
     RDKit          3D

 50 52  0  0  0  0  0  0  0  0999 V2000
   -1.5561    1.3338    0.6021 C   0  0  0  0  0  0  0  0  0  0  0  0
    4.1151    3.0919    0.4154 C   0  0  0  0  0  0  0  0  0  0  0  0
    3.2744    0.8829    0.5629 N   0  0  0  0  0  0  0  0  0  0  0  0
   -5.2558    2.3184   -0.5523 Cl  0  0  0  0  0  0  0  0  0  0  0  0
   -3.9092    1.3338   -0.0882 C   0  0  0  0  0  0  0  0  0  0  0  0
    3.0841    2.2066    0.7036 C   0  0  0  0  0  0  0  0  0  0  0  0
   -0.5392   -0.8031    1.0867 O   0  0  0  0  0  0  0  0  0  0  0  0
    0.9799    0.9095    2.2034 O   0  0  0  0  0  0  0  0  0  0  0  0
   -0.0304   -1.7473    0.1341 C   0  0  0  0  0  0  0  0  0  0  0  0
    5.3403    2.6884   -0.0139 N   0  0  0  0  0  0  0  0  0  0  0  0
    6.7611    0.8966   -0.6644 C   0  0  0  0  0  0  0  0  0  0  0  0
    1.9872   -1.9400   -1.4827 C   0  0  0  0  0  0  0  0  0  0  0  0
   -0.4164    2.1534    0.8151 N   0  0  0  0  0  0  0  0  0  0  0  0
    5.4923    1.3390   -0.1683 C   0  0  0  0  0  0  0  0  0  0  0  0
   -3.9870   -0.0633    0.0368 C   0  0  0  0  0  0  0  0  0  0  0  0
   -2.8224   -0.7365    0.4414 C   0  0  0  0  0  0  0  0  0  0  0  0
    3.6745   -1.7595    0.4980 C   0  0  0  0  0  0  0  0  0  0  0  0
    0.9044   -1.0566   -0.8576 C   0  0  0  0  0  0  0  0  0  0  0  0
    1.7944    2.6779    0.9896 N   0  0  0  0  0  0  0  0  0  0  0  0
   -1.6148   -0.0656    0.6899 C   0  0  0  0  0  0  0  0  0  0  0  0
    4.4704    0.4465    0.1211 C   0  0  0  0  0  0  0  0  0  0  0  0
    4.6134   -0.8937   -0.1553 O   0  0  0  0  0  0  0  0  0  0  0  0
   -2.7117    2.0134    0.1872 C   0  0  0  0  0  0  0  0  0  0  0  0
    7.7918    0.5407   -1.0683 N   0  0  0  0  0  0  0  0  0  0  0  0
    2.9496   -2.6488   -0.5172 C   0  0  0  0  0  0  0  0  0  0  0  0
    0.7864    1.8232    1.4140 C   0  0  0  0  0  0  0  0  0  0  0  0
   -5.1180   -0.8717   -0.1881 N   0  0  0  0  0  0  0  0  0  0  0  0
   -5.6510   -0.8300   -1.5487 C   0  0  0  0  0  0  0  0  0  0  0  0
   -6.1186   -0.7667    0.8745 C   0  0  0  0  0  0  0  0  0  0  0  0
    3.9903    4.1655    0.5029 H   0  0  0  0  0  0  0  0  0  0  0  0
    0.5130   -2.4870    0.7280 H   0  0  0  0  0  0  0  0  0  0  0  0
   -0.8248   -2.2916   -0.3892 H   0  0  0  0  0  0  0  0  0  0  0  0
    1.5018   -2.7038   -2.1030 H   0  0  0  0  0  0  0  0  0  0  0  0
    2.5769   -1.3196   -2.1692 H   0  0  0  0  0  0  0  0  0  0  0  0
   -0.5054    3.1145    0.5286 H   0  0  0  0  0  0  0  0  0  0  0  0
   -2.8691   -1.8157    0.5741 H   0  0  0  0  0  0  0  0  0  0  0  0
    4.2727   -2.4104    1.1475 H   0  0  0  0  0  0  0  0  0  0  0  0
    2.9585   -1.2646    1.1622 H   0  0  0  0  0  0  0  0  0  0  0  0
    1.3709   -0.1966   -0.3851 H   0  0  0  0  0  0  0  0  0  0  0  0
    0.2949   -0.6303   -1.6651 H   0  0  0  0  0  0  0  0  0  0  0  0
    1.5936    3.6563    0.8770 H   0  0  0  0  0  0  0  0  0  0  0  0
   -2.6990    3.0963    0.0892 H   0  0  0  0  0  0  0  0  0  0  0  0
    3.7026   -3.1638   -1.1276 H   0  0  0  0  0  0  0  0  0  0  0  0
    2.4064   -3.4307    0.0254 H   0  0  0  0  0  0  0  0  0  0  0  0
   -6.2473   -1.7317   -1.7280 H   0  0  0  0  0  0  0  0  0  0  0  0
   -6.3047    0.0302   -1.7187 H   0  0  0  0  0  0  0  0  0  0  0  0
   -4.8477   -0.8233   -2.2943 H   0  0  0  0  0  0  0  0  0  0  0  0
   -5.6619   -0.8996    1.8620 H   0  0  0  0  0  0  0  0  0  0  0  0
   -6.6453    0.1926    0.8560 H   0  0  0  0  0  0  0  0  0  0  0  0
   -6.8651   -1.5599    0.7562 H   0  0  0  0  0  0  0  0  0  0  0  0
 11 24  3  0
 11 14  1  0
 14 21  2  0
 10 14  1  0
  2 10  2  0
  2  6  1  0
  6 19  1  0
  3  6  2  0
  3 21  1  0
 21 22  1  0
 17 22  1  0
 17 25  1  0
 12 25  1  0
 12 18  1  0
  9 18  1  0
  7  9  1  0
  7 20  1  0
  1 20  2  0
  1 13  1  0
  1 23  1  0
 13 26  1  0
 19 26  1  0
  8 26  2  0
  5 23  2  0
  5 15  1  0
 15 16  2  0
 16 20  1  0
  4  5  1  0
 15 27  1  0
 27 28  1  0
 27 29  1  0
  2 30  1  0
  9 31  1  0
  9 32  1  0
 12 33  1  0
 12 34  1  0
 13 35  1  0
 16 36  1  0
 17 37  1  0
 17 38  1  0
 18 39  1  0
 18 40  1  0
 19 41  1  0
 23 42  1  0
 25 43  1  0
 25 44  1  0
 28 45  1  0
 28 46  1  0
 28 47  1  0
 29 48  1  0
 29 49  1  0
 29 50  1  0
M  END
$$$$
