REMARK Flexibility Score: inf
REMARK Active torsions [ 2 ] -> [ 2 ]
ROOT
ATOM      1  C1  LIG L   1      -1.556   1.334   0.602  1.00  0.00     0.078 A 
ATOM      2  C2  LIG L   1       4.115   3.092   0.415  1.00  0.00     0.156 A 
ATOM      3  N1  LIG L   1       3.274   0.883   0.563  1.00  0.00    -0.194 NA
ATOM      4 Cl1  LIG L   1      -5.256   2.318  -0.552  1.00  0.00    -0.082 Cl
ATOM      5  C3  LIG L   1      -3.909   1.334  -0.088  1.00  0.00     0.064 A 
ATOM      6  C4  LIG L   1       3.084   2.207   0.704  1.00  0.00     0.148 A 
ATOM      7  O1  LIG L   1      -0.539  -0.803   1.087  1.00  0.00    -0.490 OA
ATOM      8  O2  LIG L   1       0.980   0.910   2.203  1.00  0.00    -0.252 OA
ATOM      9  C5  LIG L   1      -0.030  -1.747   0.134  1.00  0.00     0.229 C 
ATOM     10  N2  LIG L   1       5.340   2.688  -0.014  1.00  0.00    -0.236 NA
ATOM     11  C6  LIG L   1       1.987  -1.940  -1.483  1.00  0.00     0.007 C 
ATOM     12  N3  LIG L   1      -0.416   2.153   0.815  1.00  0.00    -0.266 N 
ATOM     13  C7  LIG L   1       5.492   1.339  -0.168  1.00  0.00     0.202 A 
ATOM     14  C8  LIG L   1      -3.987  -0.063   0.037  1.00  0.00     0.051 A 
ATOM     15  C9  LIG L   1      -2.822  -0.737   0.441  1.00  0.00     0.072 A 
ATOM     16 C10  LIG L   1       3.674  -1.760   0.498  1.00  0.00     0.231 C 
ATOM     17 C11  LIG L   1       0.904  -1.057  -0.858  1.00  0.00     0.041 C 
ATOM     18  N4  LIG L   1       1.794   2.678   0.990  1.00  0.00    -0.253 N 
ATOM     19 C12  LIG L   1      -1.615  -0.066   0.690  1.00  0.00     0.143 A 
ATOM     20 C13  LIG L   1       4.470   0.447   0.121  1.00  0.00     0.254 A 
ATOM     21  O3  LIG L   1       4.613  -0.894  -0.155  1.00  0.00    -0.474 OA
ATOM     22 C14  LIG L   1      -2.712   2.013   0.187  1.00  0.00     0.049 A 
ATOM     23 C15  LIG L   1       2.950  -2.649  -0.517  1.00  0.00     0.041 C 
ATOM     24 C16  LIG L   1       0.786   1.823   1.414  1.00  0.00     0.309 C 
ATOM     25  H1  LIG L   1      -0.505   3.115   0.529  1.00  0.00     0.156 HD
ATOM     26  H2  LIG L   1       1.594   3.656   0.877  1.00  0.00     0.158 HD
ENDROOT
BRANCH   14   27
ATOM     27  N5  LIG L   1      -5.118  -0.872  -0.188  1.00  0.00    -0.335 N 
ATOM     28 C17  LIG L   1      -5.651  -0.830  -1.549  1.00  0.00     0.129 C 
ATOM     29 C18  LIG L   1      -6.119  -0.767   0.874  1.00  0.00     0.129 C 
ENDBRANCH   14   27
BRANCH   13   30
ATOM     30 C19  LIG L   1       6.761   0.897  -0.664  1.00  0.00     0.125 C 
ATOM     31  N6  LIG L   1       7.792   0.541  -1.068  1.00  0.00    -0.189 NA
ENDBRANCH   13   30
TORSDOF 2
