
     RDKit          3D

 45 47  0  0  0  0  0  0  0  0999 V2000
    2.4869    1.2414    0.7736 C   0  0  0  0  0  0  0  0  0  0  0  0
   -3.0249    3.3394   -0.0589 C   0  0  0  0  0  0  0  0  0  0  0  0
   -2.5775    1.0281    0.2611 N   0  0  0  0  0  0  0  0  0  0  0  0
    6.2962    1.4475    1.9866 Cl  0  0  0  0  0  0  0  0  0  0  0  0
    4.8261    0.8611    1.2724 C   0  0  0  0  0  0  0  0  0  0  0  0
   -2.1548    2.3059    0.2807 C   0  0  0  0  0  0  0  0  0  0  0  0
    1.2340   -0.3523   -0.4722 O   0  0  0  0  0  0  0  0  0  0  0  0
   -0.1862    0.6561    1.6404 O   0  0  0  0  0  0  0  0  0  0  0  0
    1.0182   -1.7315   -0.7890 C   0  0  0  0  0  0  0  0  0  0  0  0
   -4.3279    3.1422   -0.3847 N   0  0  0  0  0  0  0  0  0  0  0  0
   -6.1078    1.6011   -0.7133 C   0  0  0  0  0  0  0  0  0  0  0  0
   -1.3878   -2.1109   -0.0150 C   0  0  0  0  0  0  0  0  0  0  0  0
    1.3866    2.1328    0.8472 N   0  0  0  0  0  0  0  0  0  0  0  0
   -4.7380    1.8423   -0.3746 C   0  0  0  0  0  0  0  0  0  0  0  0
    4.7841   -0.3945    0.6422 C   0  0  0  0  0  0  0  0  0  0  0  0
    3.5674   -0.8214    0.0853 C   0  0  0  0  0  0  0  0  0  0  0  0
   -3.6016   -1.2826   -1.0656 C   0  0  0  0  0  0  0  0  0  0  0  0
   -0.4423   -1.9378   -1.2118 C   0  0  0  0  0  0  0  0  0  0  0  0
   -0.8190    2.6107    0.5618 N   0  0  0  0  0  0  0  0  0  0  0  0
    2.4176   -0.0192    0.1422 C   0  0  0  0  0  0  0  0  0  0  0  0
   -3.8640    0.8051   -0.0854 C   0  0  0  0  0  0  0  0  0  0  0  0
   -4.2840   -0.5009   -0.0733 O   0  0  0  0  0  0  0  0  0  0  0  0
    3.7010    1.6854    1.3121 C   0  0  0  0  0  0  0  0  0  0  0  0
   -7.2170    1.4063   -0.9983 N   0  0  0  0  0  0  0  0  0  0  0  0
   -2.8306   -2.4399   -0.4257 C   0  0  0  0  0  0  0  0  0  0  0  0
    0.0878    1.6960    1.0554 C   0  0  0  0  0  0  0  0  0  0  0  0
    5.9174   -1.2558    0.6666 N   0  0  0  0  0  0  0  0  0  0  0  0
    6.0910   -2.1804   -0.3653 O   0  0  0  0  0  0  0  0  0  0  0  0
   -2.7044    4.3760   -0.0701 H   0  0  0  0  0  0  0  0  0  0  0  0
    1.6580   -1.9971   -1.6440 H   0  0  0  0  0  0  0  0  0  0  0  0
    1.2613   -2.3783    0.0673 H   0  0  0  0  0  0  0  0  0  0  0  0
   -1.0192   -2.9386    0.6005 H   0  0  0  0  0  0  0  0  0  0  0  0
   -1.3744   -1.2275    0.6206 H   0  0  0  0  0  0  0  0  0  0  0  0
    1.5746    3.0591    1.2065 H   0  0  0  0  0  0  0  0  0  0  0  0
    3.5399   -1.7822   -0.4147 H   0  0  0  0  0  0  0  0  0  0  0  0
   -4.4022   -1.7180   -1.6780 H   0  0  0  0  0  0  0  0  0  0  0  0
   -2.9884   -0.6884   -1.7544 H   0  0  0  0  0  0  0  0  0  0  0  0
   -0.4982   -2.8430   -1.8267 H   0  0  0  0  0  0  0  0  0  0  0  0
   -0.7679   -1.0929   -1.8290 H   0  0  0  0  0  0  0  0  0  0  0  0
   -0.4742    3.5255    0.3309 H   0  0  0  0  0  0  0  0  0  0  0  0
    3.7748    2.6567    1.7945 H   0  0  0  0  0  0  0  0  0  0  0  0
   -3.3714   -2.7834    0.4635 H   0  0  0  0  0  0  0  0  0  0  0  0
   -2.8015   -3.2795   -1.1302 H   0  0  0  0  0  0  0  0  0  0  0  0
    6.7688   -0.7044    0.8307 H   0  0  0  0  0  0  0  0  0  0  0  0
    5.5732   -2.9586   -0.0619 H   0  0  0  0  0  0  0  0  0  0  0  0
 11 24  3  0
 11 14  1  0
 14 21  2  0
 10 14  1  0
  2 10  2  0
  2  6  1  0
  6 19  1  0
  3  6  2  0
  3 21  1  0
 21 22  1  0
 17 22  1  0
 17 25  1  0
 12 25  1  0
 12 18  1  0
  9 18  1  0
  7  9  1  0
  7 20  1  0
  1 20  2  0
  1 13  1  0
  1 23  1  0
 13 26  1  0
 19 26  1  0
  8 26  2  0
  5 23  2  0
  5 15  1  0
 15 16  2  0
 16 20  1  0
  4  5  1  0
 15 27  1  0
 27 28  1  0
  2 29  1  0
  9 30  1  0
  9 31  1  0
 12 32  1  0
 12 33  1  0
 13 34  1  0
 16 35  1  0
 17 36  1  0
 17 37  1  0
 18 38  1  0
 18 39  1  0
 19 40  1  0
 23 41  1  0
 25 42  1  0
 25 43  1  0
 27 44  1  0
 28 45  1  0
M  END
$$$$
