REMARK Flexibility Score: inf
REMARK Active torsions [ 3 ] -> [ 3 ]
ROOT
ATOM      1  C1  LIG L   1       2.487   1.241   0.774  1.00  0.00     0.078 A 
ATOM      2  C2  LIG L   1      -3.025   3.339  -0.059  1.00  0.00     0.156 A 
ATOM      3  N1  LIG L   1      -2.578   1.028   0.261  1.00  0.00    -0.194 NA
ATOM      4 Cl1  LIG L   1       6.296   1.447   1.987  1.00  0.00    -0.081 Cl
ATOM      5  C3  LIG L   1       4.826   0.861   1.272  1.00  0.00     0.068 A 
ATOM      6  C4  LIG L   1      -2.155   2.306   0.281  1.00  0.00     0.148 A 
ATOM      7  O1  LIG L   1       1.234  -0.352  -0.472  1.00  0.00    -0.490 OA
ATOM      8  O2  LIG L   1      -0.186   0.656   1.640  1.00  0.00    -0.252 OA
ATOM      9  C5  LIG L   1       1.018  -1.732  -0.789  1.00  0.00     0.229 C 
ATOM     10  N2  LIG L   1      -4.328   3.142  -0.385  1.00  0.00    -0.236 NA
ATOM     11  C6  LIG L   1      -1.388  -2.111  -0.015  1.00  0.00     0.007 C 
ATOM     12  N3  LIG L   1       1.387   2.133   0.847  1.00  0.00    -0.266 N 
ATOM     13  C7  LIG L   1      -4.738   1.842  -0.375  1.00  0.00     0.202 A 
ATOM     14  C8  LIG L   1       4.784  -0.394   0.642  1.00  0.00     0.083 A 
ATOM     15  C9  LIG L   1       3.567  -0.821   0.085  1.00  0.00     0.076 A 
ATOM     16 C10  LIG L   1      -3.602  -1.283  -1.066  1.00  0.00     0.231 C 
ATOM     17 C11  LIG L   1      -0.442  -1.938  -1.212  1.00  0.00     0.041 C 
ATOM     18  N4  LIG L   1      -0.819   2.611   0.562  1.00  0.00    -0.253 N 
ATOM     19 C12  LIG L   1       2.418  -0.019   0.142  1.00  0.00     0.144 A 
ATOM     20 C13  LIG L   1      -3.864   0.805  -0.085  1.00  0.00     0.254 A 
ATOM     21  O3  LIG L   1      -4.284  -0.501  -0.073  1.00  0.00    -0.474 OA
ATOM     22 C14  LIG L   1       3.701   1.685   1.312  1.00  0.00     0.049 A 
ATOM     23 C15  LIG L   1      -2.831  -2.440  -0.426  1.00  0.00     0.041 C 
ATOM     24 C16  LIG L   1       0.088   1.696   1.055  1.00  0.00     0.309 C 
ATOM     25  H1  LIG L   1       1.575   3.059   1.207  1.00  0.00     0.156 HD
ATOM     26  H2  LIG L   1      -0.474   3.526   0.331  1.00  0.00     0.158 HD
ENDROOT
BRANCH   14   27
ATOM     27  N5  LIG L   1       5.917  -1.256   0.667  1.00  0.00    -0.267 N 
ATOM     28  H3  LIG L   1       6.769  -0.704   0.831  1.00  0.00     0.194 HD
BRANCH   27   29
ATOM     29  O4  LIG L   1       6.091  -2.180  -0.365  1.00  0.00    -0.289 OA
ATOM     30  H4  LIG L   1       5.573  -2.959  -0.062  1.00  0.00     0.244 HD
ENDBRANCH   27   29
ENDBRANCH   14   27
BRANCH   13   31
ATOM     31 C17  LIG L   1      -6.108   1.601  -0.713  1.00  0.00     0.125 C 
ATOM     32  N6  LIG L   1      -7.217   1.406  -0.998  1.00  0.00    -0.189 NA
ENDBRANCH   13   31
TORSDOF 3
