REMARK Flexibility Score: inf
REMARK Active torsions [ 1 ] -> [ 1 ]
ROOT
ATOM      1  C1  LIG L   1       2.547   1.354   0.275  1.00  0.00     0.078 A 
ATOM      2  C2  LIG L   1      -3.194   2.992   0.058  1.00  0.00     0.156 A 
ATOM      3  N1  LIG L   1      -2.486   0.897   0.896  1.00  0.00    -0.194 NA
ATOM      4 Cl1  LIG L   1       6.441   1.868   0.982  1.00  0.00    -0.083 Cl
ATOM      5  C3  LIG L   1       4.939   1.116   0.576  1.00  0.00     0.046 A 
ATOM      6  C4  LIG L   1      -2.183   2.142   0.496  1.00  0.00     0.148 A 
ATOM      7  O1  LIG L   1       1.243  -0.440  -0.572  1.00  0.00    -0.490 OA
ATOM      8  O2  LIG L   1       0.123   0.815   1.638  1.00  0.00    -0.252 OA
ATOM      9  C5  LIG L   1       1.048  -1.840  -0.778  1.00  0.00     0.229 C 
ATOM     10  N2  LIG L   1      -4.507   2.634   0.016  1.00  0.00    -0.236 NA
ATOM     11  C6  LIG L   1      -1.456  -1.979  -0.235  1.00  0.00     0.007 C 
ATOM     12  N3  LIG L   1       1.413   2.207   0.335  1.00  0.00    -0.266 N 
ATOM     13  C7  LIG L   1      -4.777   1.358   0.417  1.00  0.00     0.202 A 
ATOM     14  C8  LIG L   1       4.864  -0.247   0.258  1.00  0.00    -0.029 A 
ATOM     15  C9  LIG L   1       3.616  -0.792  -0.093  1.00  0.00     0.052 A 
ATOM     16 C10  LIG L   1      -4.013  -1.718   0.107  1.00  0.00     0.231 C 
ATOM     17 C11  LIG L   1      -0.369  -2.056  -1.319  1.00  0.00     0.041 C 
ATOM     18  N4  LIG L   1      -0.843   2.552   0.433  1.00  0.00    -0.253 N 
ATOM     19 C12  LIG L   1       2.459  -0.003  -0.109  1.00  0.00     0.142 A 
ATOM     20 C13  LIG L   1      -3.770   0.495   0.819  1.00  0.00     0.254 A 
ATOM     21  O3  LIG L   1      -3.970  -0.798   1.205  1.00  0.00    -0.474 OA
ATOM     22 C14  LIG L   1       3.792   1.913   0.577  1.00  0.00     0.047 A 
ATOM     23 C15  LIG L   1      -2.828  -1.717  -0.870  1.00  0.00     0.041 C 
ATOM     24 C16  LIG L   1       0.207   1.763   0.867  1.00  0.00     0.309 C 
ATOM     25 C17  LIG L   1       6.082  -1.129   0.258  1.00  0.00     0.045 C 
ATOM     26  H1  LIG L   1       1.594   3.187   0.491  1.00  0.00     0.156 HD
ATOM     27  H2  LIG L   1      -0.620   3.386  -0.081  1.00  0.00     0.158 HD
ENDROOT
BRANCH   13   28
ATOM     28 C18  LIG L   1      -6.150   0.959   0.385  1.00  0.00     0.125 C 
ATOM     29  N5  LIG L   1      -7.260   0.616   0.343  1.00  0.00    -0.189 NA
ENDBRANCH   13   28
TORSDOF 1
