
     RDKit          3D

 45 47  0  0  0  0  0  0  0  0999 V2000
    2.5469    1.3537    0.2753 C   0  0  0  0  0  0  0  0  0  0  0  0
   -3.1942    2.9920    0.0580 C   0  0  0  0  0  0  0  0  0  0  0  0
   -2.4856    0.8974    0.8959 N   0  0  0  0  0  0  0  0  0  0  0  0
    6.4411    1.8683    0.9823 Cl  0  0  0  0  0  0  0  0  0  0  0  0
    4.9387    1.1164    0.5760 C   0  0  0  0  0  0  0  0  0  0  0  0
   -2.1832    2.1423    0.4965 C   0  0  0  0  0  0  0  0  0  0  0  0
    1.2429   -0.4403   -0.5716 O   0  0  0  0  0  0  0  0  0  0  0  0
    0.1230    0.8148    1.6378 O   0  0  0  0  0  0  0  0  0  0  0  0
    1.0476   -1.8398   -0.7783 C   0  0  0  0  0  0  0  0  0  0  0  0
   -4.5068    2.6344    0.0164 N   0  0  0  0  0  0  0  0  0  0  0  0
   -6.1503    0.9587    0.3846 C   0  0  0  0  0  0  0  0  0  0  0  0
   -1.4563   -1.9789   -0.2355 C   0  0  0  0  0  0  0  0  0  0  0  0
    1.4130    2.2072    0.3348 N   0  0  0  0  0  0  0  0  0  0  0  0
   -4.7765    1.3581    0.4168 C   0  0  0  0  0  0  0  0  0  0  0  0
    4.8643   -0.2466    0.2576 C   0  0  0  0  0  0  0  0  0  0  0  0
    3.6159   -0.7923   -0.0931 C   0  0  0  0  0  0  0  0  0  0  0  0
   -4.0129   -1.7179    0.1074 C   0  0  0  0  0  0  0  0  0  0  0  0
   -0.3690   -2.0558   -1.3187 C   0  0  0  0  0  0  0  0  0  0  0  0
   -0.8432    2.5515    0.4332 N   0  0  0  0  0  0  0  0  0  0  0  0
    2.4591   -0.0033   -0.1091 C   0  0  0  0  0  0  0  0  0  0  0  0
   -3.7698    0.4953    0.8186 C   0  0  0  0  0  0  0  0  0  0  0  0
   -3.9701   -0.7979    1.2050 O   0  0  0  0  0  0  0  0  0  0  0  0
    3.7917    1.9133    0.5770 C   0  0  0  0  0  0  0  0  0  0  0  0
   -7.2604    0.6158    0.3425 N   0  0  0  0  0  0  0  0  0  0  0  0
   -2.8277   -1.7168   -0.8704 C   0  0  0  0  0  0  0  0  0  0  0  0
    0.2072    1.7633    0.8673 C   0  0  0  0  0  0  0  0  0  0  0  0
    6.0820   -1.1287    0.2576 C   0  0  0  0  0  0  0  0  0  0  0  0
   -2.9851    4.0005   -0.2821 H   0  0  0  0  0  0  0  0  0  0  0  0
    1.7491   -2.1956   -1.5416 H   0  0  0  0  0  0  0  0  0  0  0  0
    1.1974   -2.3947    0.1549 H   0  0  0  0  0  0  0  0  0  0  0  0
   -1.4774   -2.9227    0.3223 H   0  0  0  0  0  0  0  0  0  0  0  0
   -1.2115   -1.1971    0.4847 H   0  0  0  0  0  0  0  0  0  0  0  0
    1.5940    3.1869    0.4915 H   0  0  0  0  0  0  0  0  0  0  0  0
    3.5741   -1.8407   -0.3715 H   0  0  0  0  0  0  0  0  0  0  0  0
   -4.0918   -2.7166    0.5529 H   0  0  0  0  0  0  0  0  0  0  0  0
   -4.9446   -1.5633   -0.4506 H   0  0  0  0  0  0  0  0  0  0  0  0
   -0.4272   -3.0417   -1.7951 H   0  0  0  0  0  0  0  0  0  0  0  0
   -0.5663   -1.3035   -2.0925 H   0  0  0  0  0  0  0  0  0  0  0  0
   -0.6201    3.3863   -0.0809 H   0  0  0  0  0  0  0  0  0  0  0  0
    3.8738    2.9620    0.8470 H   0  0  0  0  0  0  0  0  0  0  0  0
   -3.0192   -2.4840   -1.6314 H   0  0  0  0  0  0  0  0  0  0  0  0
   -2.7941   -0.7581   -1.4019 H   0  0  0  0  0  0  0  0  0  0  0  0
    5.8261   -2.1675    0.0228 H   0  0  0  0  0  0  0  0  0  0  0  0
    6.5562   -1.1266    1.2443 H   0  0  0  0  0  0  0  0  0  0  0  0
    6.7991   -0.7876   -0.4959 H   0  0  0  0  0  0  0  0  0  0  0  0
 11 24  3  0
 11 14  1  0
 14 21  2  0
 10 14  1  0
  2 10  2  0
  2  6  1  0
  6 19  1  0
  3  6  2  0
  3 21  1  0
 21 22  1  0
 17 22  1  0
 17 25  1  0
 12 25  1  0
 12 18  1  0
  9 18  1  0
  7  9  1  0
  7 20  1  0
  1 20  2  0
  1 13  1  0
  1 23  1  0
 13 26  1  0
 19 26  1  0
  8 26  2  0
  5 23  2  0
  5 15  1  0
 15 16  2  0
 16 20  1  0
  4  5  1  0
 15 27  1  0
  2 28  1  0
  9 29  1  0
  9 30  1  0
 12 31  1  0
 12 32  1  0
 13 33  1  0
 16 34  1  0
 17 35  1  0
 17 36  1  0
 18 37  1  0
 18 38  1  0
 19 39  1  0
 23 40  1  0
 25 41  1  0
 25 42  1  0
 27 43  1  0
 27 44  1  0
 27 45  1  0
M  END
$$$$
