
     RDKit          3D

 47 49  0  0  0  0  0  0  0  0999 V2000
    2.1862    0.9277    0.9508 C   0  0  0  0  0  0  0  0  0  0  0  0
   -2.5581    3.9552   -1.2936 C   0  0  0  0  0  0  0  0  0  0  0  0
   -2.5872    1.5923   -1.0633 N   0  0  0  0  0  0  0  0  0  0  0  0
    5.8231    1.2391    2.5928 Cl  0  0  0  0  0  0  0  0  0  0  0  0
    4.3699    0.5466    1.9494 C   0  0  0  0  0  0  0  0  0  0  0  0
   -1.9517    2.7674   -0.8922 C   0  0  0  0  0  0  0  0  0  0  0  0
    0.8852   -0.9511    0.2562 O   0  0  0  0  0  0  0  0  0  0  0  0
   -0.7697    0.9514    0.9889 O   0  0  0  0  0  0  0  0  0  0  0  0
    0.3470   -2.1954    0.7173 C   0  0  0  0  0  0  0  0  0  0  0  0
   -3.8096    4.0182   -1.8189 N   0  0  0  0  0  0  0  0  0  0  0  0
   -5.7653    2.8565   -2.5030 C   0  0  0  0  0  0  0  0  0  0  0  0
   -1.7074   -1.7461   -0.7371 C   0  0  0  0  0  0  0  0  0  0  0  0
    1.2769    1.9050    0.4669 N   0  0  0  0  0  0  0  0  0  0  0  0
   -4.4447    2.8185   -1.9497 C   0  0  0  0  0  0  0  0  0  0  0  0
    4.2110   -0.8502    1.8839 C   0  0  0  0  0  0  0  0  0  0  0  0
    3.0035   -1.3316    1.3599 C   0  0  0  0  0  0  0  0  0  0  0  0
   -3.6258   -0.6829   -1.9887 C   0  0  0  0  0  0  0  0  0  0  0  0
   -1.1817   -2.1618    0.6387 C   0  0  0  0  0  0  0  0  0  0  0  0
   -0.6445    2.8008   -0.3817 N   0  0  0  0  0  0  0  0  0  0  0  0
    1.9945   -0.4663    0.8943 C   0  0  0  0  0  0  0  0  0  0  0  0
   -3.8320    1.6231   -1.6004 C   0  0  0  0  0  0  0  0  0  0  0  0
   -4.5067    0.4292   -1.7728 O   0  0  0  0  0  0  0  0  0  0  0  0
    3.3902    1.4200    1.4681 C   0  0  0  0  0  0  0  0  0  0  0  0
   -6.8348    2.8883   -2.9582 N   0  0  0  0  0  0  0  0  0  0  0  0
   -3.1788   -1.3253   -0.6721 C   0  0  0  0  0  0  0  0  0  0  0  0
   -0.1041    1.7889    0.3968 C   0  0  0  0  0  0  0  0  0  0  0  0
    5.1872   -1.7020    2.4304 N   0  0  0  0  0  0  0  0  0  0  0  0
    5.3338   -3.0492    1.9102 C   0  0  0  0  0  0  0  0  0  0  0  0
   -2.0601    4.9133   -1.1922 H   0  0  0  0  0  0  0  0  0  0  0  0
    0.7366   -2.9971    0.0797 H   0  0  0  0  0  0  0  0  0  0  0  0
    0.6207   -2.4035    1.7598 H   0  0  0  0  0  0  0  0  0  0  0  0
   -1.5823   -2.5705   -1.4493 H   0  0  0  0  0  0  0  0  0  0  0  0
   -1.1208   -0.9063   -1.1243 H   0  0  0  0  0  0  0  0  0  0  0  0
    1.6349    2.8434    0.4016 H   0  0  0  0  0  0  0  0  0  0  0  0
    2.8512   -2.4025    1.2882 H   0  0  0  0  0  0  0  0  0  0  0  0
   -2.7896   -0.3961   -2.6407 H   0  0  0  0  0  0  0  0  0  0  0  0
   -4.1989   -1.4238   -2.5594 H   0  0  0  0  0  0  0  0  0  0  0  0
   -1.5859   -3.1446    0.9096 H   0  0  0  0  0  0  0  0  0  0  0  0
   -1.5429   -1.4545    1.3942 H   0  0  0  0  0  0  0  0  0  0  0  0
   -0.1426    3.6707   -0.4261 H   0  0  0  0  0  0  0  0  0  0  0  0
    3.5705    2.4896    1.5241 H   0  0  0  0  0  0  0  0  0  0  0  0
   -3.3379   -0.6366    0.1660 H   0  0  0  0  0  0  0  0  0  0  0  0
   -3.8023   -2.2027   -0.4627 H   0  0  0  0  0  0  0  0  0  0  0  0
    6.0775   -1.2130    2.5268 H   0  0  0  0  0  0  0  0  0  0  0  0
    4.4736   -3.6748    2.1684 H   0  0  0  0  0  0  0  0  0  0  0  0
    5.4757   -3.0442    0.8240 H   0  0  0  0  0  0  0  0  0  0  0  0
    6.2163   -3.5133    2.3621 H   0  0  0  0  0  0  0  0  0  0  0  0
 11 24  3  0
 11 14  1  0
 14 21  2  0
 10 14  1  0
  2 10  2  0
  2  6  1  0
  6 19  1  0
  3  6  2  0
  3 21  1  0
 21 22  1  0
 17 22  1  0
 17 25  1  0
 12 25  1  0
 12 18  1  0
  9 18  1  0
  7  9  1  0
  7 20  1  0
  1 20  2  0
  1 13  1  0
  1 23  1  0
 13 26  1  0
 19 26  1  0
  8 26  2  0
  5 23  2  0
  5 15  1  0
 15 16  2  0
 16 20  1  0
  4  5  1  0
 15 27  1  0
 27 28  1  0
  2 29  1  0
  9 30  1  0
  9 31  1  0
 12 32  1  0
 12 33  1  0
 13 34  1  0
 16 35  1  0
 17 36  1  0
 17 37  1  0
 18 38  1  0
 18 39  1  0
 19 40  1  0
 23 41  1  0
 25 42  1  0
 25 43  1  0
 27 44  1  0
 28 45  1  0
 28 46  1  0
 28 47  1  0
M  END
$$$$
