REMARK Flexibility Score: inf
REMARK Active torsions [ 2 ] -> [ 2 ]
ROOT
ATOM      1  C1  LIG L   1       2.186   0.928   0.951  1.00  0.00     0.078 A 
ATOM      2  C2  LIG L   1      -2.558   3.955  -1.294  1.00  0.00     0.156 A 
ATOM      3  N1  LIG L   1      -2.587   1.592  -1.063  1.00  0.00    -0.194 NA
ATOM      4 Cl1  LIG L   1       5.823   1.239   2.593  1.00  0.00    -0.082 Cl
ATOM      5  C3  LIG L   1       4.370   0.547   1.949  1.00  0.00     0.064 A 
ATOM      6  C4  LIG L   1      -1.952   2.767  -0.892  1.00  0.00     0.148 A 
ATOM      7  O1  LIG L   1       0.885  -0.951   0.256  1.00  0.00    -0.490 OA
ATOM      8  O2  LIG L   1      -0.770   0.951   0.989  1.00  0.00    -0.252 OA
ATOM      9  C5  LIG L   1       0.347  -2.195   0.717  1.00  0.00     0.229 C 
ATOM     10  N2  LIG L   1      -3.810   4.018  -1.819  1.00  0.00    -0.236 NA
ATOM     11  C6  LIG L   1      -1.707  -1.746  -0.737  1.00  0.00     0.007 C 
ATOM     12  N3  LIG L   1       1.277   1.905   0.467  1.00  0.00    -0.266 N 
ATOM     13  C7  LIG L   1      -4.445   2.819  -1.950  1.00  0.00     0.202 A 
ATOM     14  C8  LIG L   1       4.211  -0.850   1.884  1.00  0.00     0.049 A 
ATOM     15  C9  LIG L   1       3.003  -1.332   1.360  1.00  0.00     0.072 A 
ATOM     16 C10  LIG L   1      -3.626  -0.683  -1.989  1.00  0.00     0.231 C 
ATOM     17 C11  LIG L   1      -1.182  -2.162   0.639  1.00  0.00     0.041 C 
ATOM     18  N4  LIG L   1      -0.645   2.801  -0.382  1.00  0.00    -0.253 N 
ATOM     19 C12  LIG L   1       1.995  -0.466   0.894  1.00  0.00     0.143 A 
ATOM     20 C13  LIG L   1      -3.832   1.623  -1.600  1.00  0.00     0.254 A 
ATOM     21  O3  LIG L   1      -4.507   0.429  -1.773  1.00  0.00    -0.474 OA
ATOM     22 C14  LIG L   1       3.390   1.420   1.468  1.00  0.00     0.049 A 
ATOM     23 C15  LIG L   1      -3.179  -1.325  -0.672  1.00  0.00     0.041 C 
ATOM     24 C16  LIG L   1      -0.104   1.789   0.397  1.00  0.00     0.309 C 
ATOM     25  H1  LIG L   1       1.635   2.843   0.402  1.00  0.00     0.156 HD
ATOM     26  H2  LIG L   1      -0.143   3.671  -0.426  1.00  0.00     0.158 HD
ENDROOT
BRANCH   14   27
ATOM     27  N5  LIG L   1       5.187  -1.702   2.430  1.00  0.00    -0.346 N 
ATOM     28 C17  LIG L   1       5.334  -3.049   1.910  1.00  0.00     0.125 C 
ATOM     29  H3  LIG L   1       6.077  -1.213   2.527  1.00  0.00     0.146 HD
ENDBRANCH   14   27
BRANCH   13   30
ATOM     30 C18  LIG L   1      -5.765   2.856  -2.503  1.00  0.00     0.125 C 
ATOM     31  N6  LIG L   1      -6.835   2.888  -2.958  1.00  0.00    -0.189 NA
ENDBRANCH   13   30
TORSDOF 2
