Q92769_Sries19298_DeleteHit2Lead(CrossDock)_idx-in-all-generaetd-0
     RDKit          3D

 26 27  0  0  0  0  0  0  0  0999 V2000
   25.3730  -18.2490    0.1170 C   0  0  0  0  0  0  0  0  0  0  0  0
   24.1400  -17.7780   -0.6590 C   0  0  0  0  0  0  0  0  0  0  0  0
   22.8170  -18.2170   -0.0160 C   0  0  0  0  0  0  0  0  0  0  0  0
   21.7500  -18.6860   -1.0070 C   0  0  0  0  0  0  0  0  0  0  0  0
   20.5310  -19.2890   -0.3380 C   0  0  0  0  0  0  0  0  0  0  0  0
   19.6190  -19.8050   -1.2320 N   0  0  0  0  0  0  0  0  0  0  0  0
   20.3360  -19.3120    0.8740 O   0  0  0  0  0  0  0  0  0  0  0  0
   18.4000  -20.2380   -0.6540 O   0  0  0  0  0  0  0  0  0  0  0  0
   26.6150  -17.3880   -0.1340 C   0  0  0  0  0  0  0  0  0  0  0  0
   26.3370  -16.1380   -0.9680 C   0  0  0  0  0  0  0  0  0  0  0  0
   27.0720  -14.9120   -0.4400 C   0  0  0  0  0  0  0  0  0  0  0  0
   26.7460  -13.7720   -0.7470 O   0  0  0  0  0  0  0  0  0  0  0  0
   28.1120  -15.2770    0.4010 N   0  0  0  0  0  0  0  0  0  0  0  0
   29.0060  -14.4270    1.0840 C   0  0  0  0  0  0  0  0  0  0  0  0
   30.1390  -13.8550    0.5060 C   0  0  0  0  0  0  0  0  0  0  0  0
   28.7220  -14.1530    2.4300 C   0  0  0  0  0  0  0  0  0  0  0  0
   30.9760  -13.0250    1.2580 C   0  0  0  0  0  0  0  0  0  0  0  0
   29.5490  -13.3130    3.1900 C   0  0  0  0  0  0  0  0  0  0  0  0
   30.6840  -12.7580    2.5940 C   0  0  0  0  0  0  0  0  0  0  0  0
   29.2310  -13.0660    4.5980 C   0  0  0  0  0  0  0  0  0  0  0  0
   29.5830  -14.0040    5.5550 N   0  0  0  0  0  0  0  0  0  0  0  0
   28.6090  -12.0080    5.1470 C   0  0  0  0  0  0  0  0  0  0  0  0
   29.4220  -13.4330    6.8900 C   0  0  0  0  0  0  0  0  0  0  0  0
   28.5530  -12.1850    6.6470 C   0  0  0  0  0  0  0  0  0  0  0  0
   28.0270  -10.7940    4.4960 C   0  0  0  0  0  0  0  0  0  0  0  0
   29.0700   -9.7120    4.2510 C   0  0  0  0  0  0  0  0  0  0  0  0
  1  2  1  0
  1  9  1  0
  2  3  1  0
  3  4  1  0
  4  5  1  0
  5  6  1  0
  5  7  2  0
  6  8  1  0
  9 10  1  0
 10 11  1  0
 11 12  2  0
 11 13  1  0
 13 14  1  0
 14 15  2  0
 14 16  1  0
 15 17  1  0
 16 18  2  0
 17 19  2  0
 18 19  1  0
 18 20  1  0
 20 22  2  0
 20 21  1  0
 21 23  1  0
 22 25  1  0
 22 24  1  0
 23 24  1  0
 25 26  1  0
M  END
>  <vina_dock>  (1) 
-7.574

$$$$
Q92769_Sries19298_DeleteHit2Lead(CrossDock)_idx-in-all-generaetd-1
     RDKit          3D

 26 27  0  0  0  0  0  0  0  0999 V2000
   26.2950  -17.8250    0.1200 C   0  0  0  0  0  0  0  0  0  0  0  0
   24.8330  -18.2830    0.0760 C   0  0  0  0  0  0  0  0  0  0  0  0
   23.9140  -17.2890   -0.6410 C   0  0  0  0  0  0  0  0  0  0  0  0
   22.4280  -17.5160   -0.3430 C   0  0  0  0  0  0  0  0  0  0  0  0
   21.8970  -18.7910   -1.0010 C   0  0  0  0  0  0  0  0  0  0  0  0
   20.6110  -19.2940   -0.3780 C   0  0  0  0  0  0  0  0  0  0  0  0
   19.7060  -19.7660   -1.3040 N   0  0  0  0  0  0  0  0  0  0  0  0
   20.3810  -19.3260    0.8280 O   0  0  0  0  0  0  0  0  0  0  0  0
   18.4460  -20.1290   -0.7660 O   0  0  0  0  0  0  0  0  0  0  0  0
   26.5850  -16.7000   -0.8760 C   0  0  0  0  0  0  0  0  0  0  0  0
   27.5360  -15.6340   -0.3470 C   0  0  0  0  0  0  0  0  0  0  0  0
   28.7530  -15.7550   -0.3980 O   0  0  0  0  0  0  0  0  0  0  0  0
   26.8360  -14.5500    0.1640 N   0  0  0  0  0  0  0  0  0  0  0  0
   27.3670  -13.3700    0.7290 C   0  0  0  0  0  0  0  0  0  0  0  0
   27.7030  -12.2350   -0.0070 C   0  0  0  0  0  0  0  0  0  0  0  0
   27.5600  -13.3580    2.1180 C   0  0  0  0  0  0  0  0  0  0  0  0
   28.2160  -11.1050    0.6330 C   0  0  0  0  0  0  0  0  0  0  0  0
   28.0840  -12.2330    2.7760 C   0  0  0  0  0  0  0  0  0  0  0  0
   28.4030  -11.1030    2.0160 C   0  0  0  0  0  0  0  0  0  0  0  0
   28.2830  -12.2500    4.2220 C   0  0  0  0  0  0  0  0  0  0  0  0
   28.3210  -11.0180    4.8150 O   0  0  0  0  0  0  0  0  0  0  0  0
   28.4550  -13.2390    5.1830 C   0  0  0  0  0  0  0  0  0  0  0  0
   28.5480  -11.2060    6.1370 C   0  0  0  0  0  0  0  0  0  0  0  0
   28.6420  -12.5470    6.4170 C   0  0  0  0  0  0  0  0  0  0  0  0
   28.4470  -14.7140    4.9910 C   0  0  0  0  0  0  0  0  0  0  0  0
   29.7660  -15.2530    4.9680 O   0  0  0  0  0  0  0  0  0  0  0  0
  1 10  1  0
  1  2  1  0
  2  3  1  0
  3  4  1  0
  4  5  1  0
  5  6  1  0
  6  7  1  0
  6  8  2  0
  7  9  1  0
 10 11  1  0
 11 12  2  0
 11 13  1  0
 13 14  1  0
 14 15  2  0
 14 16  1  0
 15 17  1  0
 16 18  2  0
 17 19  2  0
 18 19  1  0
 18 20  1  0
 20 21  1  0
 20 22  2  0
 21 23  1  0
 22 25  1  0
 22 24  1  0
 23 24  2  0
 25 26  1  0
M  END
>  <vina_dock>  (2) 
-8.218

$$$$
Q92769_Sries19298_DeleteHit2Lead(CrossDock)_idx-in-all-generaetd-2
     RDKit          3D

 24 25  0  0  0  0  0  0  0  0999 V2000
   24.9560  -18.2590    0.1160 C   0  0  0  0  0  0  0  0  0  0  0  0
   23.9950  -17.3680   -0.6760 C   0  0  0  0  0  0  0  0  0  0  0  0
   22.5220  -17.5790   -0.3070 C   0  0  0  0  0  0  0  0  0  0  0  0
   21.9240  -18.8080   -0.9920 C   0  0  0  0  0  0  0  0  0  0  0  0
   20.6270  -19.2780   -0.3660 C   0  0  0  0  0  0  0  0  0  0  0  0
   19.7380  -19.7980   -1.2810 N   0  0  0  0  0  0  0  0  0  0  0  0
   20.3560  -19.2010    0.8300 O   0  0  0  0  0  0  0  0  0  0  0  0
   18.4600  -20.1090   -0.7560 O   0  0  0  0  0  0  0  0  0  0  0  0
   26.4360  -17.8550    0.0810 C   0  0  0  0  0  0  0  0  0  0  0  0
   26.7480  -16.6080   -0.7470 C   0  0  0  0  0  0  0  0  0  0  0  0
   27.6570  -15.6070   -0.0420 C   0  0  0  0  0  0  0  0  0  0  0  0
   28.8540  -15.8090    0.1130 O   0  0  0  0  0  0  0  0  0  0  0  0
   26.9410  -14.5060    0.4000 N   0  0  0  0  0  0  0  0  0  0  0  0
   27.4350  -13.3770    1.0880 C   0  0  0  0  0  0  0  0  0  0  0  0
   27.6200  -12.1270    0.5040 C   0  0  0  0  0  0  0  0  0  0  0  0
   27.7490  -13.5450    2.4460 C   0  0  0  0  0  0  0  0  0  0  0  0
   28.1160  -11.0640    1.2610 C   0  0  0  0  0  0  0  0  0  0  0  0
   28.2440  -12.4850    3.2290 C   0  0  0  0  0  0  0  0  0  0  0  0
   28.4280  -11.2430    2.6110 C   0  0  0  0  0  0  0  0  0  0  0  0
   28.5690  -12.7040    4.6480 C   0  0  0  0  0  0  0  0  0  0  0  0
   28.3830  -11.6310    5.5230 O   0  0  0  0  0  0  0  0  0  0  0  0
   29.0660  -13.8020    5.2170 C   0  0  0  0  0  0  0  0  0  0  0  0
   28.5590  -12.2160    6.8270 C   0  0  0  0  0  0  0  0  0  0  0  0
   29.2810  -13.5450    6.6570 C   0  0  0  0  0  0  0  0  0  0  0  0
  1  2  1  0
  1  9  2  3
  2  3  1  0
  3  4  1  0
  4  5  1  0
  5  6  1  0
  5  7  2  0
  6  8  1  0
  9 10  1  0
 10 11  1  0
 11 12  2  0
 11 13  1  0
 13 14  1  0
 14 15  2  0
 14 16  1  0
 15 17  1  0
 16 18  2  0
 17 19  2  0
 18 19  1  0
 18 20  1  0
 20 22  1  0
 20 21  1  0
 21 23  1  0
 22 24  1  0
 23 24  1  0
M  END
>  <vina_dock>  (3) 
-7.97

$$$$
Q92769_Sries19298_DeleteHit2Lead(CrossDock)_idx-in-all-generaetd-3
     RDKit          3D

 27 28  0  0  0  0  0  0  0  0999 V2000
   24.8960  -18.1810    0.0870 C   0  0  0  0  0  0  0  0  0  0  0  0
   23.9200  -17.2590   -0.6480 C   0  0  0  0  0  0  0  0  0  0  0  0
   22.4520  -17.5570   -0.3320 C   0  0  0  0  0  0  0  0  0  0  0  0
   21.9720  -18.8950   -0.8910 C   0  0  0  0  0  0  0  0  0  0  0  0
   20.6320  -19.3050   -0.3150 C   0  0  0  0  0  0  0  0  0  0  0  0
   19.7700  -19.8230   -1.2570 N   0  0  0  0  0  0  0  0  0  0  0  0
   20.3210  -19.2130    0.8700 O   0  0  0  0  0  0  0  0  0  0  0  0
   18.4640  -20.0930   -0.7780 O   0  0  0  0  0  0  0  0  0  0  0  0
   26.3400  -17.7070   -0.0840 C   0  0  0  0  0  0  0  0  0  0  0  0
   26.4050  -16.3580   -0.7990 C   0  0  0  0  0  0  0  0  0  0  0  0
   27.4280  -15.4180   -0.1790 C   0  0  0  0  0  0  0  0  0  0  0  0
   28.6000  -15.7400   -0.0250 O   0  0  0  0  0  0  0  0  0  0  0  0
   26.8500  -14.2070    0.1710 N   0  0  0  0  0  0  0  0  0  0  0  0
   27.4780  -13.0940    0.7680 C   0  0  0  0  0  0  0  0  0  0  0  0
   27.9420  -11.9870    0.0610 C   0  0  0  0  0  0  0  0  0  0  0  0
   27.6350  -13.1210    2.1630 C   0  0  0  0  0  0  0  0  0  0  0  0
   28.5560  -10.9280    0.7340 C   0  0  0  0  0  0  0  0  0  0  0  0
   28.2480  -12.0610    2.8550 C   0  0  0  0  0  0  0  0  0  0  0  0
   28.7110  -10.9660    2.1200 C   0  0  0  0  0  0  0  0  0  0  0  0
   28.4130  -12.1290    4.3050 C   0  0  0  0  0  0  0  0  0  0  0  0
   28.4050  -10.9110    4.9270 O   0  0  0  0  0  0  0  0  0  0  0  0
   28.5570  -13.1180    5.2620 C   0  0  0  0  0  0  0  0  0  0  0  0
   28.5440  -11.0740    6.2910 N   0  0  0  0  0  0  0  0  0  0  0  0
   28.6380  -12.3890    6.4730 C   0  0  0  0  0  0  0  0  0  0  0  0
   28.6480  -14.5430    5.0540 C   0  0  0  0  0  0  0  0  0  0  0  0
   27.6900  -15.3050    5.0500 O   0  0  0  0  0  0  0  0  0  0  0  0
   29.9060  -15.0420    4.8610 N   0  0  0  0  0  0  0  0  0  0  0  0
  1  2  1  0
  1  9  1  0
  2  3  1  0
  3  4  1  0
  4  5  1  0
  5  6  1  0
  5  7  2  0
  6  8  1  0
  9 10  1  0
 10 11  1  0
 11 12  2  0
 11 13  1  0
 13 14  1  0
 14 15  2  0
 14 16  1  0
 15 17  1  0
 16 18  2  0
 17 19  2  0
 18 19  1  0
 18 20  1  0
 20 21  1  0
 20 22  2  0
 21 23  1  0
 22 25  1  0
 22 24  1  0
 23 24  2  0
 25 27  1  0
 25 26  2  0
M  END
>  <vina_dock>  (4) 
-8.421

$$$$
Q92769_Sries19298_DeleteHit2Lead(CrossDock)_idx-in-all-generaetd-4
     RDKit          3D

 24 26  0  0  0  0  0  0  0  0999 V2000
   25.1990  -17.4500   -0.7020 C   0  0  0  0  0  0  0  0  0  0  0  0
   24.1160  -18.1650    0.1100 C   0  0  0  0  0  0  0  0  0  0  0  0
   22.6820  -17.7940   -0.2920 C   0  0  0  0  0  0  0  0  0  0  0  0
   21.9130  -18.9140   -0.9930 C   0  0  0  0  0  0  0  0  0  0  0  0
   20.5950  -19.2640   -0.3310 C   0  0  0  0  0  0  0  0  0  0  0  0
   19.6170  -19.6310   -1.2290 N   0  0  0  0  0  0  0  0  0  0  0  0
   20.3930  -19.2510    0.8800 O   0  0  0  0  0  0  0  0  0  0  0  0
   18.4190  -20.1080   -0.6410 O   0  0  0  0  0  0  0  0  0  0  0  0
   26.5780  -17.4950   -0.0360 C   0  0  0  0  0  0  0  0  0  0  0  0
   27.6430  -16.7060   -0.7980 C   0  0  0  0  0  0  0  0  0  0  0  0
   28.2730  -15.6100    0.0530 C   0  0  0  0  0  0  0  0  0  0  0  0
   29.4860  -15.4900    0.1650 O   0  0  0  0  0  0  0  0  0  0  0  0
   27.3030  -14.8270    0.6590 N   0  0  0  0  0  0  0  0  0  0  0  0
   27.4940  -13.7280    1.5230 C   0  0  0  0  0  0  0  0  0  0  0  0
   27.2390  -12.4570    0.9930 C   0  0  0  0  0  0  0  0  0  0  0  0
   27.9170  -13.8340    2.8520 C   0  0  0  0  0  0  0  0  0  0  0  0
   27.4030  -11.3150    1.7770 C   0  0  0  0  0  0  0  0  0  0  0  0
   28.0870  -12.6920    3.6580 C   0  0  0  0  0  0  0  0  0  0  0  0
   27.8240  -11.4310    3.1010 C   0  0  0  0  0  0  0  0  0  0  0  0
   28.5280  -12.8310    5.0440 C   0  0  0  0  0  0  0  0  0  0  0  0
   29.3960  -13.7870    5.5340 N   0  0  0  0  0  0  0  0  0  0  0  0
   28.2220  -12.1300    6.0840 C   0  0  0  0  0  0  0  0  0  0  0  0
   29.4490  -13.4740    6.8000 C   0  0  0  0  0  0  0  0  0  0  0  0
   28.6650  -12.3770    7.1390 N   0  0  0  0  0  0  0  0  0  0  0  0
  1  9  1  0
  1  2  1  0
  2  3  1  0
  3  4  1  0
  4  5  1  0
  5  6  1  0
  5  7  2  0
  6  8  1  0
  9 10  1  0
 10 11  1  0
 11 12  2  0
 11 13  1  0
 13 14  1  0
 14 15  2  0
 14 16  1  0
 15 17  1  0
 16 18  2  0
 17 19  2  0
 18 19  1  0
 18 20  1  0
 20 21  2  0
 20 22  1  0
 21 23  1  0
 22 24  1  0
 23 24  2  0
 23 22  1  0
M  END
>  <vina_dock>  (5) 
-8.063

$$$$
Q92769_Sries19298_DeleteHit2Lead(CrossDock)_idx-in-all-generaetd-5
     RDKit          3D

 24 25  0  0  0  0  0  0  0  0999 V2000
   24.9310  -18.1910    0.1110 C   0  0  0  0  0  0  0  0  0  0  0  0
   23.9600  -17.2860   -0.6580 C   0  0  0  0  0  0  0  0  0  0  0  0
   22.4770  -17.5330   -0.3470 C   0  0  0  0  0  0  0  0  0  0  0  0
   21.9590  -18.8730   -0.8720 C   0  0  0  0  0  0  0  0  0  0  0  0
   20.6060  -19.2550   -0.3030 C   0  0  0  0  0  0  0  0  0  0  0  0
   19.6930  -19.6240   -1.2690 N   0  0  0  0  0  0  0  0  0  0  0  0
   20.3100  -19.2180    0.8880 O   0  0  0  0  0  0  0  0  0  0  0  0
   18.4610  -20.1050   -0.7590 O   0  0  0  0  0  0  0  0  0  0  0  0
   26.4090  -17.8460   -0.1000 C   0  0  0  0  0  0  0  0  0  0  0  0
   26.5930  -16.4850   -0.7720 C   0  0  0  0  0  0  0  0  0  0  0  0
   27.5160  -15.5460   -0.0060 C   0  0  0  0  0  0  0  0  0  0  0  0
   28.7230  -15.7430    0.0750 O   0  0  0  0  0  0  0  0  0  0  0  0
   26.8180  -14.4750    0.5250 N   0  0  0  0  0  0  0  0  0  0  0  0
   27.3250  -13.4150    1.3050 C   0  0  0  0  0  0  0  0  0  0  0  0
   27.6680  -12.1640    0.7950 C   0  0  0  0  0  0  0  0  0  0  0  0
   27.4930  -13.6580    2.6770 C   0  0  0  0  0  0  0  0  0  0  0  0
   28.1790  -11.1750    1.6390 C   0  0  0  0  0  0  0  0  0  0  0  0
   27.9960  -12.6720    3.5410 C   0  0  0  0  0  0  0  0  0  0  0  0
   28.3460  -11.4270    3.0000 C   0  0  0  0  0  0  0  0  0  0  0  0
   28.1760  -12.9250    5.0230 C   0  0  2  0  0  0  0  0  0  0  0  0
   29.1320  -11.9810    5.7070 N   0  0  0  0  0  0  0  0  0  0  0  0
   28.7230  -14.3460    5.3220 C   0  0  0  0  0  0  0  0  0  0  0  0
   29.8090  -12.7580    6.4940 C   0  0  0  0  0  0  0  0  0  0  0  0
   29.5520  -14.0930    6.4840 N   0  0  0  0  0  0  0  0  0  0  0  0
  1  2  1  0
  1  9  1  0
  2  3  1  0
  3  4  1  0
  4  5  1  0
  5  6  1  0
  5  7  2  0
  6  8  1  0
  9 10  1  0
 10 11  1  0
 11 12  2  0
 11 13  1  0
 13 14  1  0
 14 15  2  0
 14 16  1  0
 15 17  1  0
 16 18  2  0
 17 19  2  0
 18 19  1  0
 20 18  1  6
 20 22  1  0
 20 21  1  0
 21 23  1  0
 22 24  1  0
 23 24  1  0
M  END
>  <vina_dock>  (6) 
-8.226

$$$$
Q92769_Sries19298_DeleteHit2Lead(CrossDock)_idx-in-all-generaetd-6
     RDKit          3D

 24 25  0  0  0  0  0  0  0  0999 V2000
   24.9960  -18.1730    0.1460 C   0  0  0  0  0  0  0  0  0  0  0  0
   23.9890  -17.3390   -0.6490 C   0  0  0  0  0  0  0  0  0  0  0  0
   22.5320  -17.6250   -0.2710 C   0  0  0  0  0  0  0  0  0  0  0  0
   21.9050  -18.7630   -1.0730 C   0  0  0  0  0  0  0  0  0  0  0  0
   20.6460  -19.2920   -0.4190 C   0  0  0  0  0  0  0  0  0  0  0  0
   19.7160  -19.7550   -1.3230 N   0  0  0  0  0  0  0  0  0  0  0  0
   20.4430  -19.3160    0.7930 O   0  0  0  0  0  0  0  0  0  0  0  0
   18.4700  -20.1250   -0.7570 O   0  0  0  0  0  0  0  0  0  0  0  0
   26.4540  -17.8160   -0.1590 C   0  0  0  0  0  0  0  0  0  0  0  0
   26.6220  -16.4540   -0.8310 C   0  0  0  0  0  0  0  0  0  0  0  0
   27.4920  -15.5080   -0.0160 C   0  0  0  0  0  0  0  0  0  0  0  0
   28.6930  -15.6970    0.1390 O   0  0  0  0  0  0  0  0  0  0  0  0
   26.7490  -14.4590    0.5030 N   0  0  0  0  0  0  0  0  0  0  0  0
   27.2050  -13.3920    1.3060 C   0  0  0  0  0  0  0  0  0  0  0  0
   27.3210  -12.1410    0.6910 C   0  0  0  0  0  0  0  0  0  0  0  0
   27.5410  -13.5140    2.6590 C   0  0  0  0  0  0  0  0  0  0  0  0
   27.7640  -11.0320    1.4120 C   0  0  0  0  0  0  0  0  0  0  0  0
   27.9900  -12.4070    3.4030 C   0  0  0  0  0  0  0  0  0  0  0  0
   28.0970  -11.1650    2.7600 C   0  0  0  0  0  0  0  0  0  0  0  0
   28.3350  -12.5610    4.8120 C   0  0  0  0  0  0  0  0  0  0  0  0
   28.3100  -11.5940    5.7820 N   0  0  0  0  0  0  0  0  0  0  0  0
   28.7290  -13.5910    5.4650 C   0  0  0  0  0  0  0  0  0  0  0  0
   28.6820  -12.1440    6.8720 N   0  0  0  0  0  0  0  0  0  0  0  0
   28.9650  -13.5410    6.6070 N   0  0  0  0  0  0  0  0  0  0  0  0
  1  2  1  0
  1  9  1  0
  2  3  1  0
  3  4  1  0
  4  5  1  0
  5  6  1  0
  5  7  2  0
  6  8  1  0
  9 10  1  0
 10 11  1  0
 11 12  2  0
 11 13  1  0
 13 14  1  0
 14 15  2  0
 14 16  1  0
 15 17  1  0
 16 18  2  0
 17 19  2  0
 18 19  1  0
 18 20  1  0
 20 22  2  0
 20 21  1  0
 21 23  1  0
 22 24  1  0
 23 24  2  0
M  END
>  <vina_dock>  (7) 
-7.875

$$$$
Q92769_Sries19298_DeleteHit2Lead(CrossDock)_idx-in-all-generaetd-7
     RDKit          3D

 26 27  0  0  0  0  0  0  0  0999 V2000
   26.2550  -17.7660   -0.1370 C   0  0  0  0  0  0  0  0  0  0  0  0
   24.7930  -18.2140   -0.0400 C   0  0  0  0  0  0  0  0  0  0  0  0
   23.8080  -17.2010   -0.6280 C   0  0  0  0  0  0  0  0  0  0  0  0
   22.3470  -17.5150   -0.2950 C   0  0  0  0  0  0  0  0  0  0  0  0
   21.8740  -18.8650   -0.8300 C   0  0  0  0  0  0  0  0  0  0  0  0
   20.5250  -19.2590   -0.2640 C   0  0  0  0  0  0  0  0  0  0  0  0
   19.6130  -19.6270   -1.2290 N   0  0  0  0  0  0  0  0  0  0  0  0
   20.2370  -19.2460    0.9310 O   0  0  0  0  0  0  0  0  0  0  0  0
   18.3900  -20.1330   -0.7260 O   0  0  0  0  0  0  0  0  0  0  0  0
   26.4370  -16.4160   -0.8290 C   0  0  0  0  0  0  0  0  0  0  0  0
   27.3960  -15.5040   -0.0770 C   0  0  0  0  0  0  0  0  0  0  0  0
   28.5310  -15.8570    0.2290 O   0  0  0  0  0  0  0  0  0  0  0  0
   26.8170  -14.2720    0.1880 N   0  0  0  0  0  0  0  0  0  0  0  0
   27.3870  -13.1920    0.8950 C   0  0  0  0  0  0  0  0  0  0  0  0
   27.7170  -12.0440    0.1630 C   0  0  0  0  0  0  0  0  0  0  0  0
   27.6270  -13.2060    2.2700 C   0  0  0  0  0  0  0  0  0  0  0  0
   28.2850  -10.9370    0.7970 C   0  0  0  0  0  0  0  0  0  0  0  0
   28.2180  -12.1110    2.9180 C   0  0  0  0  0  0  0  0  0  0  0  0
   28.5310  -10.9700    2.1700 C   0  0  0  0  0  0  0  0  0  0  0  0
   28.4720  -12.1440    4.3600 C   0  0  0  0  0  0  0  0  0  0  0  0
   28.7060  -10.9150    4.9760 O   0  0  0  0  0  0  0  0  0  0  0  0
   28.5480  -13.2060    5.1680 C   0  0  0  0  0  0  0  0  0  0  0  0
   28.6510  -11.2260    6.3810 C   0  0  0  0  0  0  0  0  0  0  0  0
   28.8550  -12.7260    6.5410 C   0  0  0  0  0  0  0  0  0  0  0  0
   28.4540  -14.6580    4.8780 C   0  0  0  0  0  0  0  0  0  0  0  0
   29.7350  -15.2430    5.0480 O   0  0  0  0  0  0  0  0  0  0  0  0
  1 10  1  0
  1  2  1  0
  2  3  1  0
  3  4  1  0
  4  5  1  0
  5  6  1  0
  6  7  1  0
  6  8  2  0
  7  9  1  0
 10 11  1  0
 11 13  1  0
 11 12  2  0
 13 14  1  0
 14 15  2  0
 14 16  1  0
 15 17  1  0
 16 18  2  0
 17 19  2  0
 18 19  1  0
 18 20  1  0
 20 21  1  0
 20 22  2  0
 21 23  1  0
 22 25  1  0
 22 24  1  0
 23 24  1  0
 25 26  1  0
M  END
>  <vina_dock>  (8) 
-8.285

$$$$