O14757_PocketFlow_idx-in-all-generaetd-0
     RDKit          3D

 35 40  0  0  0  0  0  0  0  0999 V2000
   -0.6395   -2.0713   41.4947 C   0  0  0  0  0  0  0  0  0  0  0  0
    0.6719   -2.2449   41.7518 C   0  0  0  0  0  0  0  0  0  0  0  0
    1.5951   -1.1948   41.6106 C   0  0  2  0  0  0  0  0  0  0  0  0
    2.8936   -1.2860   42.2441 C   0  0  0  0  0  0  0  0  0  0  0  0
    3.0768   -1.4473   43.4477 C   0  0  0  0  0  0  0  0  0  0  0  0
    4.4318   -1.2251   44.0354 C   0  0  0  0  0  0  0  0  0  0  0  0
   -1.5193   -3.1903   41.4031 C   0  0  0  0  0  0  0  0  0  0  0  0
   -0.8409   -4.3977   41.4450 N   0  0  0  0  0  0  0  0  0  0  0  0
    4.9553   -2.2201   44.8472 C   0  0  0  0  0  0  0  0  0  0  0  0
    6.2783   -2.1147   45.3814 C   0  0  0  0  0  0  0  0  0  0  0  0
    6.8221   -3.1337   46.1883 C   0  0  0  0  0  0  0  0  0  0  0  0
    8.1713   -3.0443   46.6775 C   0  0  0  0  0  0  0  0  0  0  0  0
    8.8741   -1.8866   46.3298 C   0  0  0  0  0  0  0  0  0  0  0  0
    8.3235   -0.8510   45.5519 C   0  0  0  0  0  0  0  0  0  0  0  0
    7.0984   -0.9504   45.1353 C   0  0  0  0  0  0  0  0  0  0  0  0
    4.0546   -3.1094   45.4675 C   0  0  0  0  0  0  0  0  0  0  0  0
    4.3769   -3.7996   46.6332 C   0  0  0  0  0  0  0  0  0  0  0  0
    5.9000   -4.0025   46.9102 C   0  0  0  0  0  0  0  0  0  0  0  0
    0.7587   -3.4227   42.4765 C   0  0  0  0  0  0  0  0  0  0  0  0
    1.9655   -3.5761   43.2818 N   0  0  0  0  0  0  0  0  0  0  0  0
    0.0530   -4.4860   42.3331 C   0  0  0  0  0  0  0  0  0  0  0  0
    2.8689   -2.6750   43.7291 C   0  0  0  0  0  0  0  0  0  0  0  0
    3.5173   -3.1878   44.7906 N   0  0  0  0  0  0  0  0  0  0  0  0
    1.1201   -0.0350   40.9722 C   0  0  0  0  0  0  0  0  0  0  0  0
    6.3072   -4.8834   48.0064 C   0  0  1  0  0  0  0  0  0  0  0  0
    6.4942   -4.4074   49.1001 O   0  0  0  0  0  0  0  0  0  0  0  0
    6.1918   -6.0794   47.7884 F   0  0  0  0  0  0  0  0  0  0  0  0
   10.3213   -1.8276   46.8605 C   0  0  0  0  0  0  0  0  0  0  0  0
   11.2202   -2.5179   46.3079 C   0  0  0  0  0  0  0  0  0  0  0  0
   12.3537   -2.7026   46.7137 C   0  0  0  0  0  0  0  0  0  0  0  0
   12.8608   -1.9934   47.8613 C   0  0  0  0  0  0  0  0  0  0  0  0
   11.8881   -1.2278   48.5664 C   0  0  0  0  0  0  0  0  0  0  0  0
   10.5739   -1.1159   48.1039 C   0  0  0  0  0  0  0  0  0  0  0  0
   -2.6573   -3.0242   40.6463 N   0  0  0  0  0  0  0  0  0  0  0  0
    7.7480   -4.4333   49.8352 C   0  0  0  0  0  0  0  0  0  0  0  0
  2  3  1  0
  3  4  1  0
  4  5  2  0
  5  6  1  0
  6  9  1  0
 19 20  1  0
  5 22  1  0
 20 22  2  0
 16 23  1  0
 22 23  1  0
  3 24  1  1
 18 25  1  0
 25 26  1  0
 25 27  1  1
 13 28  1  0
  7 34  1  0
 26 35  1  0
 28 29  2  0
 29 30  1  0
 30 31  2  0
 31 32  1  0
 32 33  2  0
 33 28  1  0
  9 10  2  0
 11 18  2  0
 18 17  1  0
 17 16  2  0
 16  9  1  0
  1  2  2  0
  2 19  1  0
 19 21  2  0
 21  8  1  0
  8  7  2  0
  7  1  1  0
 10 11  1  0
 11 12  1  0
 12 13  2  0
 13 14  1  0
 14 15  2  0
 15 10  1  0
M  END
$$$$
O14757_PocketFlow_idx-in-all-generaetd-1
     RDKit          3D

 31 34  0  0  0  0  0  0  0  0999 V2000
   -0.6395   -2.0713   41.4947 C   0  0  0  0  0  0  0  0  0  0  0  0
    0.1859   -1.1027   41.5970 C   0  0  0  0  0  0  0  0  0  0  0  0
    1.5858   -1.4431   41.9548 C   0  0  0  0  0  0  0  0  0  0  0  0
    1.8933   -1.7989   43.0657 C   0  0  0  0  0  0  0  0  0  0  0  0
    3.2900   -1.9767   43.4687 C   0  0  0  0  0  0  0  0  0  0  0  0
    3.7853   -3.0356   44.2382 C   0  0  0  0  0  0  0  0  0  0  0  0
    4.9928   -2.9213   44.9085 C   0  0  0  0  0  0  0  0  0  0  0  0
    5.4181   -3.8381   45.9255 C   0  0  0  0  0  0  0  0  0  0  0  0
    6.5358   -3.5133   46.8336 C   0  0  0  0  0  0  0  0  0  0  0  0
    6.9054   -4.3086   47.8924 C   0  0  0  0  0  0  0  0  0  0  0  0
    8.0650   -4.0165   48.6092 C   0  0  0  0  0  0  0  0  0  0  0  0
    8.9391   -3.0285   48.1448 C   0  0  0  0  0  0  0  0  0  0  0  0
    8.5948   -2.2861   46.9974 C   0  0  0  0  0  0  0  0  0  0  0  0
    7.4568   -2.5393   46.3042 C   0  0  0  0  0  0  0  0  0  0  0  0
    4.2313   -0.9817   43.0660 C   0  0  0  0  0  0  0  0  0  0  0  0
   -2.0559   -1.8979   41.3123 C   0  0  0  0  0  0  0  0  0  0  0  0
    5.4688   -0.8220   43.7611 C   0  0  0  0  0  0  0  0  0  0  0  0
    5.8112   -1.7030   44.6629 C   0  0  0  0  0  0  0  0  0  0  0  0
    7.0808   -1.6328   45.4291 C   0  0  0  0  0  0  0  0  0  0  0  0
   -2.4062   -1.5275   40.2320 O   0  0  0  0  0  0  0  0  0  0  0  0
    6.0152   -5.3670   48.4294 C   0  0  0  0  0  0  0  0  0  0  0  0
    6.2971   -6.5797   48.1633 O   0  0  0  0  0  0  0  0  0  0  0  0
    5.4376   -7.6188   48.3495 C   0  0  2  0  0  0  0  0  0  0  0  0
    5.2877   -8.0824   49.6200 C   0  0  0  0  0  0  0  0  0  0  0  0
    5.3758   -7.0267   50.3820 F   0  0  0  0  0  0  0  0  0  0  0  0
    6.3117   -8.8561   50.0291 F   0  0  0  0  0  0  0  0  0  0  0  0
    5.8891   -8.6779   47.4236 N   0  0  0  0  0  0  0  0  0  0  0  0
    4.1383   -8.7108   49.8896 F   0  0  0  0  0  0  0  0  0  0  0  0
    3.1504   -4.2783   44.3179 C   0  0  0  0  0  0  0  0  0  0  0  0
    1.7211   -4.2947   44.2925 C   0  0  0  0  0  0  0  0  0  0  0  0
    1.1734   -3.1701   43.3690 C   0  0  0  0  0  0  0  0  0  0  0  0
  1  2  1  0
  2  3  1  0
  3  4  1  0
  1 16  1  0
 16 20  1  0
 10 21  1  0
 21 22  1  0
 22 23  1  0
 23 24  1  0
 24 25  1  0
 24 26  1  0
 23 27  1  6
 24 28  1  0
  9 10  2  0
 10 11  1  0
 11 12  2  0
 12 13  1  0
 13 14  2  0
  7  8  2  0
  8  9  1  0
  9 14  1  0
 14 19  1  0
 19 18  2  0
  4  5  2  0
  6 29  2  0
 29 30  1  0
 30 31  2  0
 31  4  1  0
  5  6  1  0
  6  7  1  0
  7 18  1  0
 18 17  1  0
 17 15  2  0
 15  5  1  0
M  END
$$$$
O14757_PocketFlow_idx-in-all-generaetd-2
     RDKit          3D

 30 32  0  0  0  0  0  0  0  0999 V2000
    0.2881   -2.9111   42.4378 C   0  0  0  0  0  0  0  0  0  0  0  0
    1.3023   -2.0648   42.1981 C   0  0  0  0  0  0  0  0  0  0  0  0
    2.5313   -2.2887   42.6989 C   0  0  0  0  0  0  0  0  0  0  0  0
    3.5902   -1.3681   42.6298 C   0  0  0  0  0  0  0  0  0  0  0  0
    4.8714   -1.6160   43.2849 C   0  0  0  0  0  0  0  0  0  0  0  0
    0.5674   -4.0093   43.2620 C   0  0  0  0  0  0  0  0  0  0  0  0
    1.7193   -4.0624   44.0235 C   0  0  0  0  0  0  0  0  0  0  0  0
    2.7656   -3.1701   43.8038 C   0  0  0  0  0  0  0  0  0  0  0  0
    5.7995   -0.5248   43.3971 C   0  0  0  0  0  0  0  0  0  0  0  0
    5.3574    0.7282   42.7770 C   0  0  0  0  0  0  0  0  0  0  0  0
    4.0674    0.8625   42.2292 C   0  0  0  0  0  0  0  0  0  0  0  0
    3.2437   -0.0943   42.2345 C   0  0  0  0  0  0  0  0  0  0  0  0
   -0.8192   -2.9112   41.7791 F   0  0  0  0  0  0  0  0  0  0  0  0
    1.8774   -5.1889   45.0061 C   0  0  1  0  0  0  0  0  0  0  0  0
    2.4881   -4.8127   46.1156 C   0  0  0  0  0  0  0  0  0  0  0  0
    1.3630   -6.4198   44.8003 C   0  0  0  0  0  0  0  0  0  0  0  0
    0.0121   -6.7424   44.7164 C   0  0  0  0  0  0  0  0  0  0  0  0
   -0.4254   -7.3062   45.9961 C   0  0  0  0  0  0  0  0  0  0  0  0
   -1.6124   -8.0775   45.9132 C   0  0  0  0  0  0  0  0  0  0  0  0
   -1.9667   -8.9660   46.9552 C   0  0  0  0  0  0  0  0  0  0  0  0
   -1.2257   -8.8660   48.1450 C   0  0  0  0  0  0  0  0  0  0  0  0
   -0.0975   -8.0561   48.2271 C   0  0  0  0  0  0  0  0  0  0  0  0
    0.3265   -7.3545   47.1336 C   0  0  0  0  0  0  0  0  0  0  0  0
   -2.4076   -8.2041   44.6898 C   0  0  0  0  0  0  0  0  0  0  0  0
   -1.9167   -7.8582   43.6465 F   0  0  0  0  0  0  0  0  0  0  0  0
   -3.7154   -8.6919   44.7278 C   0  0  0  0  0  0  0  0  0  0  0  0
   -4.6015   -8.3263   44.3659 C   0  0  0  0  0  0  0  0  0  0  0  0
   -5.9774   -8.9193   44.2740 C   0  0  0  0  0  0  0  0  0  0  0  0
   -6.1089  -10.0864   44.9202 C   0  0  0  0  0  0  0  0  0  0  0  0
   -5.0467  -10.6133   45.5931 C   0  0  0  0  0  0  0  0  0  0  0  0
  1 13  1  0
  7 14  1  0
 14 15  1  1
 14 16  1  0
 16 17  1  0
 17 18  1  0
 19 24  1  0
 24 25  1  0
 24 26  1  0
 26 27  2  3
 27 28  1  0
 28 29  2  3
 29 30  1  0
  3  4  1  0
 18 19  2  0
 19 20  1  0
 20 21  2  0
 21 22  1  0
 22 23  2  0
 23 18  1  0
  1  2  2  0
  2  3  1  0
  3  8  2  0
  8  7  1  0
  7  6  2  0
  6  1  1  0
  4  5  2  0
  5  9  1  0
  9 10  2  0
 10 11  1  0
 11 12  2  0
 12  4  1  0
M  END
$$$$
O14757_PocketFlow_idx-in-all-generaetd-3
     RDKit          3D

 21 22  0  0  0  0  0  0  0  0999 V2000
    0.2881   -2.9111   42.4378 C   0  0  0  0  0  0  0  0  0  0  0  0
    1.1784   -3.4293   42.9321 C   0  0  0  0  0  0  0  0  0  0  0  0
    2.4696   -2.7231   42.8997 C   0  0  0  0  0  0  0  0  0  0  0  0
    3.6320   -3.1839   43.6508 C   0  0  0  0  0  0  0  0  0  0  0  0
    4.7810   -2.3542   43.7528 C   0  0  0  0  0  0  0  0  0  0  0  0
    0.3948   -1.7688   41.5591 C   0  0  0  0  0  0  0  0  0  0  0  0
    4.7418   -1.1156   43.0950 C   0  0  0  0  0  0  0  0  0  0  0  0
    3.5849   -0.7353   42.4357 C   0  0  0  0  0  0  0  0  0  0  0  0
    2.4711   -1.4319   42.4022 C   0  0  0  0  0  0  0  0  0  0  0  0
    1.4666   -1.0034   41.6356 C   0  0  0  0  0  0  0  0  0  0  0  0
    3.6894   -4.4478   44.3761 C   0  0  0  0  0  0  0  0  0  0  0  0
    2.6355   -4.5885   45.1448 F   0  0  0  0  0  0  0  0  0  0  0  0
    4.8160   -4.4950   45.1537 F   0  0  0  0  0  0  0  0  0  0  0  0
    3.7150   -5.4836   43.5537 F   0  0  0  0  0  0  0  0  0  0  0  0
    1.5098    0.1693   41.0036 O   0  0  0  0  0  0  0  0  0  0  0  0
   -0.8278   -1.3177   41.0199 O   0  0  0  0  0  0  0  0  0  0  0  0
   -2.0890   -1.7443   41.6064 C   0  0  0  0  0  0  0  0  0  0  0  0
   -3.1920   -1.1100   40.8118 C   0  0  0  0  0  0  0  0  0  0  0  0
   -3.8401   -1.9381   40.0193 O   0  0  0  0  0  0  0  0  0  0  0  0
   -3.5950    0.0212   41.1266 O   0  0  0  0  0  0  0  0  0  0  0  0
    5.8226   -0.2688   43.2229 N   0  0  0  0  0  0  0  0  0  0  0  0
  4 11  1  0
 11 12  1  0
 11 13  1  0
 11 14  1  0
 10 15  1  0
  6 16  1  0
 16 17  1  0
 17 18  1  0
 18 19  2  0
 18 20  1  0
  7 21  1  0
  3  4  2  0
  4  5  1  0
  5  7  2  0
  7  8  1  0
  8  9  2  0
  1  2  2  0
  2  3  1  0
  3  9  1  0
  9 10  1  0
 10  6  2  0
  6  1  1  0
M  END
$$$$
O14757_PocketFlow_idx-in-all-generaetd-4
     RDKit          3D

 20 22  0  0  0  0  0  0  0  0999 V2000
   -0.6395   -2.0713   41.4947 C   0  0  0  0  0  0  0  0  0  0  0  0
   -0.2671   -3.2464   41.6546 C   0  0  0  0  0  0  0  0  0  0  0  0
    0.2277   -0.9875   41.6495 C   0  0  0  0  0  0  0  0  0  0  0  0
    1.6284   -1.2752   41.8841 C   0  0  0  0  0  0  0  0  0  0  0  0
    1.8971   -2.6873   42.1685 C   0  0  0  0  0  0  0  0  0  0  0  0
    0.9380   -3.6379   42.0922 C   0  0  0  0  0  0  0  0  0  0  0  0
    2.5765   -0.2838   42.1328 C   0  0  0  0  0  0  0  0  0  0  0  0
    3.8924   -0.5890   42.5973 C   0  0  0  0  0  0  0  0  0  0  0  0
    4.1834   -1.7503   43.3382 C   0  0  0  0  0  0  0  0  0  0  0  0
    5.2850   -1.9868   44.1222 C   0  0  0  0  0  0  0  0  0  0  0  0
    5.4247   -3.1930   44.8543 C   0  0  0  0  0  0  0  0  0  0  0  0
    4.4073   -4.0983   44.7855 C   0  0  0  0  0  0  0  0  0  0  0  0
    3.2961   -3.8703   44.0271 C   0  0  0  0  0  0  0  0  0  0  0  0
    3.1388   -2.6955   43.4122 C   0  0  0  0  0  0  0  0  0  0  0  0
    4.9436    0.4988   42.5866 C   0  0  0  0  0  0  0  0  0  0  0  0
   -2.2200   -1.6305   40.8692 Cl  0  0  0  0  0  0  0  0  0  0  0  0
    6.8550   -3.3883   45.7837 Cl  0  0  0  0  0  0  0  0  0  0  0  0
    4.5060   -5.3815   45.5585 C   0  0  0  0  0  0  0  0  0  0  0  0
    4.2119   -5.1781   46.9764 C   0  0  0  0  0  0  0  0  0  0  0  0
    5.5570   -4.8585   47.7453 C   0  0  0  0  0  0  0  0  0  0  0  0
  8 15  1  0
  1 16  1  0
 11 17  1  0
 12 18  1  0
 18 19  1  0
 19 20  1  0
  1  2  2  0
  2  6  1  0
  6  5  2  0
  4  3  2  0
  3  1  1  0
  4  5  1  0
  5 14  1  0
  9  8  1  0
  8  7  2  0
  7  4  1  0
  9 10  2  0
 10 11  1  0
 11 12  2  0
 12 13  1  0
 13 14  2  0
 14  9  1  0
M  END
$$$$
O14757_PocketFlow_idx-in-all-generaetd-5
     RDKit          3D

 18 18  0  0  0  0  0  0  0  0999 V2000
   -0.6395   -2.0713   41.4947 C   0  0  0  0  0  0  0  0  0  0  0  0
    0.1859   -1.1027   41.5970 C   0  0  0  0  0  0  0  0  0  0  0  0
    1.5836   -1.3270   41.4670 C   0  0  0  0  0  0  0  0  0  0  0  0
   -0.2462   -3.3905   41.2409 C   0  0  0  0  0  0  0  0  0  0  0  0
    2.0075   -2.6977   41.3341 C   0  0  0  0  0  0  0  0  0  0  0  0
    1.0655   -3.6470   41.1373 C   0  0  0  0  0  0  0  0  0  0  0  0
    2.5048   -0.3416   41.6826 N   0  0  0  0  0  0  0  0  0  0  0  0
    3.5415   -0.3915   42.5684 C   0  0  0  0  0  0  0  0  0  0  0  0
    3.5013   -1.1324   43.4833 F   0  0  0  0  0  0  0  0  0  0  0  0
    4.6221    0.4034   42.3529 N   0  0  0  0  0  0  0  0  0  0  0  0
   -2.0110   -1.6359   41.5505 O   0  0  0  0  0  0  0  0  0  0  0  0
   -2.4499   -0.6219   40.9045 C   0  0  0  0  0  0  0  0  0  0  0  0
   -3.9412   -0.5463   41.0545 C   0  0  0  0  0  0  0  0  0  0  0  0
   -4.5603   -1.4302   40.7235 O   0  0  0  0  0  0  0  0  0  0  0  0
   -4.3506    0.5192   41.7441 O   0  0  0  0  0  0  0  0  0  0  0  0
    5.6944    0.1725   43.2313 C   0  0  0  0  0  0  0  0  0  0  0  0
    5.5022   -1.0020   44.0817 C   0  0  0  0  0  0  0  0  0  0  0  0
    6.6587   -1.3907   45.0515 C   0  0  0  0  0  0  0  0  0  0  0  0
  3  7  1  0
  7  8  1  0
  8  9  1  0
  8 10  1  0
  1 11  1  0
 11 12  1  0
 12 13  1  0
 13 14  1  0
 13 15  2  0
 10 16  1  0
 16 17  1  0
 17 18  1  0
  1  2  2  0
  2  3  1  0
  3  5  2  0
  5  6  1  0
  6  4  2  0
  4  1  1  0
M  END
$$$$
O14757_PocketFlow_idx-in-all-generaetd-6
     RDKit          3D

 29 33  0  0  0  0  0  0  0  0999 V2000
    0.2881   -2.9111   42.4378 C   0  0  0  0  0  0  0  0  0  0  0  0
    1.3023   -2.0648   42.1981 C   0  0  0  0  0  0  0  0  0  0  0  0
    2.5313   -2.2887   42.6989 C   0  0  0  0  0  0  0  0  0  0  0  0
    3.5902   -1.3681   42.6298 C   0  0  0  0  0  0  0  0  0  0  0  0
    3.2847   -0.0585   42.1867 C   0  0  0  0  0  0  0  0  0  0  0  0
    0.6458   -3.9889   43.2092 N   0  0  0  0  0  0  0  0  0  0  0  0
    1.7186   -4.0966   43.9527 C   0  0  2  0  0  0  0  0  0  0  0  0
    2.7809   -3.2391   43.7713 C   0  0  0  0  0  0  0  0  0  0  0  0
    2.0166    0.2116   41.6175 C   0  0  0  0  0  0  0  0  0  0  0  0
    0.9859   -0.7543   41.7332 C   0  0  0  0  0  0  0  0  0  0  0  0
    1.8190   -5.2967   44.8254 C   0  0  0  0  0  0  0  0  0  0  0  0
    2.9832   -5.9588   44.9986 C   0  0  0  0  0  0  0  0  0  0  0  0
    0.6532   -5.7145   45.5168 C   0  0  0  0  0  0  0  0  0  0  0  0
    0.4328   -7.0932   45.6816 C   0  0  0  0  0  0  0  0  0  0  0  0
    1.6317   -7.8091   45.9461 C   0  0  0  0  0  0  0  0  0  0  0  0
    2.8774   -7.3644   45.3675 C   0  0  0  0  0  0  0  0  0  0  0  0
   -0.8122   -7.6128   46.1511 C   0  0  2  0  0  0  0  0  0  0  0  0
   -1.8385   -7.8131   45.2465 C   0  0  0  0  0  0  0  0  0  0  0  0
   -1.6462   -7.4011   43.8949 C   0  0  0  0  0  0  0  0  0  0  0  0
   -3.0535   -8.5678   45.4988 C   0  0  0  0  0  0  0  0  0  0  0  0
   -4.0729   -8.7638   44.6044 C   0  0  0  0  0  0  0  0  0  0  0  0
   -2.6271   -7.7491   42.9630 N   0  0  0  0  0  0  0  0  0  0  0  0
   -3.7081   -8.3475   43.2814 C   0  0  0  0  0  0  0  0  0  0  0  0
   -1.0481   -7.8515   47.5841 C   0  0  0  0  0  0  0  0  0  0  0  0
   -0.8102   -2.8984   41.9042 O   0  0  0  0  0  0  0  0  0  0  0  0
   -4.6171   -8.5151   42.2961 N   0  0  0  0  0  0  0  0  0  0  0  0
    4.9103   -1.5451   43.2286 C   0  0  0  0  0  0  0  0  0  0  0  0
    5.0937   -2.2566   44.4003 C   0  0  0  0  0  0  0  0  0  0  0  0
    3.9837   -3.3661   44.5377 C   0  0  0  0  0  0  0  0  0  0  0  0
  1  2  1  0
  1  6  1  0
  6  7  1  0
  7  8  1  0
  7 11  1  6
 14 17  1  0
 17 18  1  0
 17 24  1  1
  1 25  2  0
 23 26  1  0
  4 27  1  0
 27 28  2  0
 28 29  1  0
 29  8  2  0
  8  3  1  0
 11 12  2  0
 12 16  1  0
 16 15  2  0
 15 14  1  0
 14 13  2  0
 13 11  1  0
 18 19  2  0
 19 22  1  0
 22 23  2  0
 23 21  1  0
 21 20  2  0
 20 18  1  0
  2  3  2  0
  3  4  1  0
  4  5  2  0
  5  9  1  0
  9 10  2  0
 10  2  1  0
M  END
$$$$
O14757_PocketFlow_idx-in-all-generaetd-7
     RDKit          3D

  5  4  0  0  0  0  0  0  0  0999 V2000
   -0.8413   -1.9048   41.7918 F   0  0  0  0  0  0  0  0  0  0  0  0
   -0.4300   -2.8526   41.5038 C   0  0  0  0  0  0  0  0  0  0  0  0
   -1.2613   -3.8342   41.5789 F   0  0  0  0  0  0  0  0  0  0  0  0
    0.6927   -3.2501   42.2668 F   0  0  0  0  0  0  0  0  0  0  0  0
   -0.0099   -2.8435   40.1982 F   0  0  0  0  0  0  0  0  0  0  0  0
  1  2  1  0
  2  3  1  0
  2  4  1  0
  2  5  1  0
M  END
$$$$