O14757_PocketFlow_idx-in-all-generaetd-610
     RDKit          3D

 16 17  0  0  0  0  0  0  0  0999 V2000
    1.0550   -6.6480   45.6220 C   0  0  0  0  0  0  0  0  0  0  0  0
    2.2810   -6.2420   45.0580 C   0  0  0  0  0  0  0  0  0  0  0  0
    2.5730   -4.8940   44.8520 C   0  0  0  0  0  0  0  0  0  0  0  0
    1.5790   -4.0010   45.2290 C   0  0  0  0  0  0  0  0  0  0  0  0
    0.3890   -4.3490   45.7780 N   0  0  0  0  0  0  0  0  0  0  0  0
    0.1380   -5.6530   45.9750 C   0  0  0  0  0  0  0  0  0  0  0  0
    0.8030   -8.1150   45.8360 C   0  0  0  0  0  0  0  0  0  0  0  0
    0.7290   -8.4580   47.2520 N   0  0  0  0  0  0  0  0  0  0  0  0
   -1.1090   -5.9550   46.5250 N   0  0  0  0  0  0  0  0  0  0  0  0
    3.7810   -4.5330   44.2400 N   0  0  0  0  0  0  0  0  0  0  0  0
    4.4050   -3.2850   44.0640 C   0  0  0  0  0  0  0  0  0  0  0  0
    5.4940   -2.9490   44.8790 C   0  0  0  0  0  0  0  0  0  0  0  0
    3.9580   -2.3350   43.1380 C   0  0  0  0  0  0  0  0  0  0  0  0
    6.1240   -1.7050   44.7680 C   0  0  0  0  0  0  0  0  0  0  0  0
    4.5850   -1.0900   43.0230 C   0  0  0  0  0  0  0  0  0  0  0  0
    5.6670   -0.7750   43.8400 C   0  0  0  0  0  0  0  0  0  0  0  0
  1  2  2  0
  1  7  1  0
  1  6  1  0
  2  3  1  0
  3 10  1  0
  3  4  2  0
  4  5  1  0
  5  6  2  0
  6  9  1  0
  7  8  1  0
 10 11  1  0
 11 13  1  0
 11 12  2  0
 12 14  1  0
 13 15  2  0
 14 16  2  0
 15 16  1  0
M  END
>  <vina_dock>  (1) 
-6.466

$$$$
O14757_PocketFlow_idx-in-all-generaetd-539
     RDKit          3D

 30 32  0  0  0  0  0  0  0  0999 V2000
    0.2860   -2.1260   41.6930 C   0  0  0  0  0  0  0  0  0  0  0  0
    0.6250   -3.4910   42.2250 C   0  0  0  0  0  0  0  0  0  0  0  0
    0.7330   -3.7710   43.5340 C   0  0  0  0  0  0  0  0  0  0  0  0
    1.0640   -5.1080   44.1790 C   0  0  2  0  0  0  0  0  0  0  0  0
    0.0440   -6.2140   43.8000 C   0  0  0  0  0  0  0  0  0  0  0  0
   -0.5330   -7.1260   44.8880 C   0  0  0  0  0  0  0  0  0  0  0  0
   -1.8000   -7.8720   44.5070 C   0  0  0  0  0  0  0  0  0  0  0  0
    1.4260   -5.0970   45.6880 C   0  0  0  0  0  0  0  0  0  0  0  0
    2.5900   -5.8950   46.0640 N   0  0  0  0  0  0  0  0  0  0  0  0
    1.5210   -1.4510   41.0900 C   0  0  0  0  0  0  0  0  0  0  0  0
    2.1600   -0.4310   42.0370 C   0  0  0  0  0  0  0  0  0  0  0  0
    3.5870   -0.6970   42.1990 N   0  0  0  0  0  0  0  0  0  0  0  0
    4.0240   -1.4710   43.2820 C   0  0  0  0  0  0  0  0  0  0  0  0
    4.4920   -0.8050   44.4270 C   0  0  0  0  0  0  0  0  0  0  0  0
    4.1410   -2.8660   43.2440 C   0  0  0  0  0  0  0  0  0  0  0  0
    5.0080   -1.5080   45.5200 C   0  0  0  0  0  0  0  0  0  0  0  0
    4.6550   -3.5810   44.3310 C   0  0  0  0  0  0  0  0  0  0  0  0
    5.1030   -2.8990   45.4600 C   0  0  0  0  0  0  0  0  0  0  0  0
    5.6300   -3.6710   46.6070 C   0  0  0  0  0  0  0  0  0  0  0  0
    6.9030   -3.3660   47.0980 N   0  0  0  0  0  0  0  0  0  0  0  0
    4.9090   -4.5490   47.0770 O   0  0  0  0  0  0  0  0  0  0  0  0
    7.3850   -4.1660   48.2190 C   0  0  0  0  0  0  0  0  0  0  0  0
    7.9440   -2.8220   46.2210 C   0  0  0  0  0  0  0  0  0  0  0  0
    8.3410   -3.3670   49.1000 C   0  0  0  0  0  0  0  0  0  0  0  0
    9.2210   -2.4300   46.9290 C   0  0  0  0  0  0  0  0  0  0  0  0
    9.4270   -2.7080   48.2910 C   0  0  0  0  0  0  0  0  0  0  0  0
   10.2390   -1.7940   46.2000 C   0  0  0  0  0  0  0  0  0  0  0  0
   10.6230   -2.3190   48.9090 C   0  0  0  0  0  0  0  0  0  0  0  0
   11.4310   -1.4220   46.8200 C   0  0  0  0  0  0  0  0  0  0  0  0
   11.6220   -1.6810   48.1740 C   0  0  0  0  0  0  0  0  0  0  0  0
  1 10  1  0
  1  2  1  0
  2  3  2  3
  3  4  1  0
  4  5  1  0
  4  8  1  1
  5  6  2  3
  6  7  1  0
  8  9  1  0
 10 11  1  0
 11 12  1  0
 12 13  1  0
 13 15  2  0
 13 14  1  0
 14 16  2  0
 15 17  1  0
 16 18  1  0
 17 18  2  0
 18 19  1  0
 19 21  2  0
 19 20  1  0
 20 23  1  0
 20 22  1  0
 22 24  1  0
 23 25  1  0
 24 26  1  0
 25 27  1  0
 25 26  2  0
 26 28  1  0
 27 29  2  0
 28 30  2  0
 29 30  1  0
M  END
>  <vina_dock>  (2) 
-7.444

$$$$
O14757_PocketFlow_idx-in-all-generaetd-996
     RDKit          3D

  9  9  0  0  0  0  0  0  0  0999 V2000
    2.0700   -2.6130   42.6150 C   0  0  0  0  0  0  0  0  0  0  0  0
    3.4010   -2.2560   43.2320 C   0  0  0  0  0  0  0  0  0  0  0  0
    5.2020   -2.7370   44.7910 C   0  0  0  0  0  0  0  0  0  0  0  0
    3.9760   -3.0760   44.2150 C   0  0  0  0  0  0  0  0  0  0  0  0
    5.8620   -1.5750   44.3950 C   0  0  0  0  0  0  0  0  0  0  0  0
    5.2970   -0.7490   43.4270 C   0  0  0  0  0  0  0  0  0  0  0  0
    4.0720   -1.0870   42.8490 C   0  0  0  0  0  0  0  0  0  0  0  0
    1.7010   -1.6950   41.4840 C   0  0  0  0  0  0  0  0  0  0  0  0
    0.6810   -0.8260   41.5150 C   0  0  0  0  0  0  0  0  0  0  0  0
  1  8  1  0
  1  2  1  0
  2  7  2  0
  2  4  1  0
  3  4  2  0
  3  5  1  0
  5  6  2  0
  6  7  1  0
  8  9  2  0
M  END
>  <vina_dock>  (3) 
-5.394

$$$$
O14757_PocketFlow_idx-in-all-generaetd-387
     RDKit          3D

 24 27  0  0  0  0  0  0  0  0999 V2000
    6.7930   -1.7430   44.9970 C   0  0  0  0  0  0  0  0  0  0  0  0
    6.3500   -2.8100   45.7580 C   0  0  0  0  0  0  0  0  0  0  0  0
    5.9980   -1.2150   43.9930 C   0  0  0  0  0  0  0  0  0  0  0  0
    4.7280   -1.7560   43.7310 C   0  0  0  0  0  0  0  0  0  0  0  0
    4.2370   -2.8530   44.4800 C   0  0  0  0  0  0  0  0  0  0  0  0
    5.0900   -3.3560   45.5010 C   0  0  0  0  0  0  0  0  0  0  0  0
    3.9460   -1.2000   42.7180 C   0  0  0  0  0  0  0  0  0  0  0  0
    2.6580   -1.6640   42.4460 C   0  0  0  0  0  0  0  0  0  0  0  0
    2.1580   -2.8010   43.1270 C   0  0  0  0  0  0  0  0  0  0  0  0
    0.8990   -3.3690   42.8150 C   0  0  0  0  0  0  0  0  0  0  0  0
    0.3990   -4.4770   43.4960 C   0  0  0  0  0  0  0  0  0  0  0  0
    1.1460   -5.0630   44.5040 C   0  0  0  0  0  0  0  0  0  0  0  0
    2.3870   -4.5150   44.8340 C   0  0  0  0  0  0  0  0  0  0  0  0
    2.9390   -3.3920   44.1630 C   0  0  0  0  0  0  0  0  0  0  0  0
    8.0000   -1.2150   45.2350 F   0  0  0  0  0  0  0  0  0  0  0  0
    2.0060   -1.0850   41.3300 N   0  0  0  0  0  0  0  0  0  0  0  0
    0.6490   -6.1700   45.2050 N   0  0  0  0  0  0  0  0  0  0  0  0
   -0.3860   -6.7520   44.6840 C   0  0  0  0  0  0  0  0  0  0  0  0
   -1.0180   -7.9290   45.3090 C   0  0  0  0  0  0  0  0  0  0  0  0
   -2.3250   -8.2670   44.9420 C   0  0  0  0  0  0  0  0  0  0  0  0
   -0.3290   -8.6980   46.2510 C   0  0  0  0  0  0  0  0  0  0  0  0
   -2.9400   -9.3780   45.5220 C   0  0  0  0  0  0  0  0  0  0  0  0
   -0.9490   -9.8070   46.8280 C   0  0  0  0  0  0  0  0  0  0  0  0
   -2.2530  -10.1460   46.4630 C   0  0  0  0  0  0  0  0  0  0  0  0
  1  3  2  0
  1 15  1  0
  1  2  1  0
  2  6  2  0
  3  4  1  0
  4  7  2  0
  4  5  1  0
  5 14  2  0
  5  6  1  0
  7  8  1  0
  8 16  1  0
  8  9  2  0
  9 10  1  0
  9 14  1  0
 10 11  2  0
 11 12  1  0
 12 13  2  0
 12 17  1  0
 13 14  1  0
 17 18  2  3
 18 19  1  0
 19 20  2  0
 19 21  1  0
 20 22  1  0
 21 23  2  0
 22 24  2  0
 23 24  1  0
M  END
>  <vina_dock>  (4) 
-10.247

$$$$
O14757_PocketFlow_idx-in-all-generaetd-768
     RDKit          3D

 35 37  0  0  0  0  0  0  0  0999 V2000
    2.7850   -6.6740   44.9690 C   0  0  0  0  0  0  0  0  0  0  0  0
    1.4010   -6.0370   45.1570 C   0  0  0  0  0  0  0  0  0  0  0  0
    0.2890   -6.5450   44.2360 C   0  0  0  0  0  0  0  0  0  0  0  0
   -0.8790   -7.1870   44.9910 C   0  0  0  0  0  0  0  0  0  0  0  0
   -0.4130   -8.2280   46.0090 C   0  0  0  0  0  0  0  0  0  0  0  0
   -0.8510   -7.9130   47.4150 C   0  0  0  0  0  0  0  0  0  0  0  0
   -0.6670   -8.5800   48.4170 O   0  0  0  0  0  0  0  0  0  0  0  0
   -1.5320   -6.7520   47.4790 O   0  0  0  0  0  0  0  0  0  0  0  0
    3.8920   -5.6420   44.6970 C   0  0  0  0  0  0  0  0  0  0  0  0
    3.6690   -4.2140   45.2680 C   0  0  1  0  0  0  0  0  0  0  0  0
    4.3860   -4.0960   46.6230 C   0  0  0  0  0  0  0  0  0  0  0  0
    4.4230   -3.0230   47.2260 O   0  0  0  0  0  0  0  0  0  0  0  0
    4.8790   -5.2640   47.1670 N   0  0  0  0  0  0  0  0  0  0  0  0
    5.6000   -5.2220   48.4290 C   0  0  0  0  0  0  0  0  0  0  0  0
    6.9000   -6.0430   48.3740 C   0  0  0  0  0  0  0  0  0  0  0  0
    6.8620   -7.2610   48.1900 O   0  0  0  0  0  0  0  0  0  0  0  0
    8.1000   -5.3680   48.5810 N   0  0  0  0  0  0  0  0  0  0  0  0
    9.3450   -6.1190   48.4900 C   0  0  0  0  0  0  0  0  0  0  0  0
    8.2050   -3.9750   49.0240 C   0  0  0  0  0  0  0  0  0  0  0  0
    8.6860   -3.0270   47.9460 C   0  0  0  0  0  0  0  0  0  0  0  0
    7.8410   -2.7150   46.8690 C   0  0  0  0  0  0  0  0  0  0  0  0
    9.9400   -2.4000   48.0180 C   0  0  0  0  0  0  0  0  0  0  0  0
    8.2510   -1.8200   45.8780 C   0  0  0  0  0  0  0  0  0  0  0  0
   10.3490   -1.5080   47.0230 C   0  0  0  0  0  0  0  0  0  0  0  0
    9.5050   -1.2190   45.9530 C   0  0  0  0  0  0  0  0  0  0  0  0
    3.8710   -3.0180   44.3240 C   0  0  0  0  0  0  0  0  0  0  0  0
    2.8480   -2.6400   43.3910 C   0  0  0  0  0  0  0  0  0  0  0  0
    5.0630   -2.2730   44.3520 C   0  0  0  0  0  0  0  0  0  0  0  0
    3.0640   -1.5190   42.5460 C   0  0  0  0  0  0  0  0  0  0  0  0
    1.6110   -3.3150   43.2490 C   0  0  0  0  0  0  0  0  0  0  0  0
    5.2560   -1.1780   43.5140 C   0  0  0  0  0  0  0  0  0  0  0  0
    4.2630   -0.8030   42.6220 C   0  0  0  0  0  0  0  0  0  0  0  0
    2.0790   -1.1160   41.6280 C   0  0  0  0  0  0  0  0  0  0  0  0
    0.6390   -2.9000   42.3340 C   0  0  0  0  0  0  0  0  0  0  0  0
    0.8720   -1.8000   41.5230 C   0  0  0  0  0  0  0  0  0  0  0  0
  1  9  1  0
  1  2  1  0
  2  3  1  0
  3  4  1  0
  4  5  1  0
  5  6  1  0
  6  8  1  0
  6  7  2  0
 10  9  1  6
 10 26  1  0
 10 11  1  0
 11 13  1  0
 11 12  2  0
 13 14  1  0
 14 15  1  0
 15 16  2  0
 15 17  1  0
 17 18  1  0
 17 19  1  0
 19 20  1  0
 20 21  2  0
 20 22  1  0
 21 23  1  0
 22 24  2  0
 23 25  2  0
 24 25  1  0
 26 27  1  0
 26 28  2  0
 27 29  2  0
 27 30  1  0
 28 31  1  0
 29 33  1  0
 29 32  1  0
 30 34  2  0
 31 32  2  0
 33 35  2  0
 34 35  1  0
M  END
>  <vina_dock>  (5) 
-8.597

$$$$
O14757_PocketFlow_idx-in-all-generaetd-353
     RDKit          3D

  9  9  0  0  0  0  0  0  0  0999 V2000
    1.9750   -2.6240   42.6760 C   0  0  0  0  0  0  0  0  0  0  0  0
    1.6150   -1.8730   41.3910 C   0  0  0  0  0  0  0  0  0  0  0  0
    0.5330   -0.8210   41.5950 C   0  0  0  0  0  0  0  0  0  0  0  0
    3.3250   -2.2540   43.2400 C   0  0  0  0  0  0  0  0  0  0  0  0
    3.9710   -1.0810   42.8250 C   0  0  0  0  0  0  0  0  0  0  0  0
    3.9500   -3.0740   44.1890 C   0  0  0  0  0  0  0  0  0  0  0  0
    5.2160   -0.7360   43.3520 C   0  0  0  0  0  0  0  0  0  0  0  0
    5.1950   -2.7260   44.7140 C   0  0  0  0  0  0  0  0  0  0  0  0
    5.8280   -1.5580   44.2960 C   0  0  0  0  0  0  0  0  0  0  0  0
  1  2  1  0
  1  4  1  0
  2  3  1  0
  4  5  2  0
  4  6  1  0
  5  7  1  0
  6  8  2  0
  7  9  2  0
  8  9  1  0
M  END
>  <vina_dock>  (6) 
-5.347

$$$$
O14757_PocketFlow_idx-in-all-generaetd-89
     RDKit          3D

 16 17  0  0  0  0  0  0  0  0999 V2000
    5.6130   -1.1270   43.8250 C   0  0  0  0  0  0  0  0  0  0  0  0
    4.8670   -0.3740   43.0010 C   0  0  0  0  0  0  0  0  0  0  0  0
    5.1290   -2.2470   44.6370 C   0  0  0  0  0  0  0  0  0  0  0  0
    4.3050   -4.5190   44.8170 C   0  0  0  0  0  0  0  0  0  0  0  0
    4.7680   -3.4580   44.0360 C   0  0  0  0  0  0  0  0  0  0  0  0
    4.2000   -4.3740   46.2000 C   0  0  0  0  0  0  0  0  0  0  0  0
    4.5570   -3.1670   46.8030 C   0  0  0  0  0  0  0  0  0  0  0  0
    5.0200   -2.1050   46.0240 C   0  0  0  0  0  0  0  0  0  0  0  0
    3.4520   -0.5360   42.7380 C   0  0  0  0  0  0  0  0  0  0  0  0
    2.9610   -1.5510   42.0090 C   0  0  0  0  0  0  0  0  0  0  0  0
    1.5310   -1.7500   41.7310 C   0  0  0  0  0  0  0  0  0  0  0  0
    0.7020   -0.6270   41.6100 C   0  0  0  0  0  0  0  0  0  0  0  0
    0.9540   -3.0240   41.6400 C   0  0  0  0  0  0  0  0  0  0  0  0
   -0.6680   -0.7730   41.3750 C   0  0  0  0  0  0  0  0  0  0  0  0
   -0.4160   -3.1710   41.4050 C   0  0  0  0  0  0  0  0  0  0  0  0
   -1.2250   -2.0450   41.2710 C   0  0  0  0  0  0  0  0  0  0  0  0
  1  2  2  3
  1  3  1  0
  2  9  1  0
  3  5  1  0
  3  8  2  0
  4  5  2  0
  4  6  1  0
  6  7  2  0
  7  8  1  0
  9 10  2  3
 10 11  1  0
 11 12  2  0
 11 13  1  0
 12 14  1  0
 13 15  2  0
 14 16  2  0
 15 16  1  0
M  END
>  <vina_dock>  (7) 
-7.318

$$$$
O14757_PocketFlow_idx-in-all-generaetd-549
     RDKit          3D

 18 20  0  0  0  0  0  0  0  0999 V2000
    0.8390   -1.7100   41.6040 C   0  0  0  0  0  0  0  0  0  0  0  0
    1.4710   -2.6090   42.5520 C   0  0  0  0  0  0  0  0  0  0  0  0
    2.7360   -2.3920   42.9730 C   0  0  0  0  0  0  0  0  0  0  0  0
    3.3550   -3.2600   43.9710 C   0  0  0  0  0  0  0  0  0  0  0  0
    2.6070   -4.1550   44.6440 C   0  0  0  0  0  0  0  0  0  0  0  0
    1.3420   -0.4880   41.3740 C   0  0  0  0  0  0  0  0  0  0  0  0
    1.1200   -4.3330   44.4030 C   0  0  1  0  0  0  0  0  0  0  0  0
    0.6610   -3.7860   43.0380 C   0  0  0  0  0  0  0  0  0  0  0  0
    2.6140   -0.0310   42.0370 C   0  0  0  0  0  0  0  0  0  0  0  0
    3.5350   -1.2130   42.4280 C   0  0  1  0  0  0  0  0  0  0  0  0
    4.8180   -3.0450   44.2910 C   0  0  0  0  0  0  0  0  0  0  0  0
    5.2540   -1.5890   44.2100 C   0  0  0  0  0  0  0  0  0  0  0  0
    4.6450   -0.7590   43.3490 C   0  0  0  0  0  0  0  0  0  0  0  0
    0.6560   -5.7800   44.5460 C   0  0  0  0  0  0  0  0  0  0  0  0
   -0.0520   -6.1780   43.4630 F   0  0  0  0  0  0  0  0  0  0  0  0
    1.7130   -6.6180   44.6610 F   0  0  0  0  0  0  0  0  0  0  0  0
   -0.1260   -5.9620   45.6330 F   0  0  0  0  0  0  0  0  0  0  0  0
    6.2940   -1.1810   45.0220 N   0  0  0  0  0  0  0  0  0  0  0  0
  1  6  2  0
  1  2  1  0
  2  3  2  0
  2  8  1  0
  3 10  1  0
  3  4  1  0
  4 11  1  0
  4  5  2  0
  5  7  1  0
  6  9  1  0
  7  8  1  0
  7 14  1  6
 10  9  1  1
 10 13  1  0
 11 12  1  0
 12 13  2  0
 12 18  1  0
 14 15  1  0
 14 16  1  0
 14 17  1  0
M  END
>  <vina_dock>  (8) 
-9.151

$$$$