O14757_PocketFlow_idx-in-all-generaetd-610
     RDKit          3D

 16 17  0  0  0  0  0  0  0  0999 V2000
    1.0550   -6.6480   45.6220 C   0  0  0  0  0  0  0  0  0  0  0  0
    2.2810   -6.2420   45.0580 C   0  0  0  0  0  0  0  0  0  0  0  0
    2.5730   -4.8940   44.8520 C   0  0  0  0  0  0  0  0  0  0  0  0
    1.5790   -4.0010   45.2290 C   0  0  0  0  0  0  0  0  0  0  0  0
    0.3890   -4.3490   45.7780 N   0  0  0  0  0  0  0  0  0  0  0  0
    0.1380   -5.6530   45.9750 C   0  0  0  0  0  0  0  0  0  0  0  0
    0.8030   -8.1150   45.8360 C   0  0  0  0  0  0  0  0  0  0  0  0
    0.7290   -8.4580   47.2520 N   0  0  0  0  0  0  0  0  0  0  0  0
   -1.1090   -5.9550   46.5250 N   0  0  0  0  0  0  0  0  0  0  0  0
    3.7810   -4.5330   44.2400 N   0  0  0  0  0  0  0  0  0  0  0  0
    4.4050   -3.2850   44.0640 C   0  0  0  0  0  0  0  0  0  0  0  0
    5.4940   -2.9490   44.8790 C   0  0  0  0  0  0  0  0  0  0  0  0
    3.9580   -2.3350   43.1380 C   0  0  0  0  0  0  0  0  0  0  0  0
    6.1240   -1.7050   44.7680 C   0  0  0  0  0  0  0  0  0  0  0  0
    4.5850   -1.0900   43.0230 C   0  0  0  0  0  0  0  0  0  0  0  0
    5.6670   -0.7750   43.8400 C   0  0  0  0  0  0  0  0  0  0  0  0
  1  2  2  0
  1  7  1  0
  1  6  1  0
  2  3  1  0
  3 10  1  0
  3  4  2  0
  4  5  1  0
  5  6  2  0
  6  9  1  0
  7  8  1  0
 10 11  1  0
 11 13  1  0
 11 12  2  0
 12 14  1  0
 13 15  2  0
 14 16  2  0
 15 16  1  0
M  END
>  <vina_dock>  (1) 
-6.466

$$$$
O14757_PocketFlow_idx-in-all-generaetd-539
     RDKit          3D

 30 32  0  0  0  0  0  0  0  0999 V2000
    0.2860   -2.1260   41.6930 C   0  0  0  0  0  0  0  0  0  0  0  0
    0.6250   -3.4910   42.2250 C   0  0  0  0  0  0  0  0  0  0  0  0
    0.7330   -3.7710   43.5340 C   0  0  0  0  0  0  0  0  0  0  0  0
    1.0640   -5.1080   44.1790 C   0  0  2  0  0  0  0  0  0  0  0  0
    0.0440   -6.2140   43.8000 C   0  0  0  0  0  0  0  0  0  0  0  0
   -0.5330   -7.1260   44.8880 C   0  0  0  0  0  0  0  0  0  0  0  0
   -1.8000   -7.8720   44.5070 C   0  0  0  0  0  0  0  0  0  0  0  0
    1.4260   -5.0970   45.6880 C   0  0  0  0  0  0  0  0  0  0  0  0
    2.5900   -5.8950   46.0640 N   0  0  0  0  0  0  0  0  0  0  0  0
    1.5210   -1.4510   41.0900 C   0  0  0  0  0  0  0  0  0  0  0  0
    2.1600   -0.4310   42.0370 C   0  0  0  0  0  0  0  0  0  0  0  0
    3.5870   -0.6970   42.1990 N   0  0  0  0  0  0  0  0  0  0  0  0
    4.0240   -1.4710   43.2820 C   0  0  0  0  0  0  0  0  0  0  0  0
    4.4920   -0.8050   44.4270 C   0  0  0  0  0  0  0  0  0  0  0  0
    4.1410   -2.8660   43.2440 C   0  0  0  0  0  0  0  0  0  0  0  0
    5.0080   -1.5080   45.5200 C   0  0  0  0  0  0  0  0  0  0  0  0
    4.6550   -3.5810   44.3310 C   0  0  0  0  0  0  0  0  0  0  0  0
    5.1030   -2.8990   45.4600 C   0  0  0  0  0  0  0  0  0  0  0  0
    5.6300   -3.6710   46.6070 C   0  0  0  0  0  0  0  0  0  0  0  0
    6.9030   -3.3660   47.0980 N   0  0  0  0  0  0  0  0  0  0  0  0
    4.9090   -4.5490   47.0770 O   0  0  0  0  0  0  0  0  0  0  0  0
    7.3850   -4.1660   48.2190 C   0  0  0  0  0  0  0  0  0  0  0  0
    7.9440   -2.8220   46.2210 C   0  0  0  0  0  0  0  0  0  0  0  0
    8.3410   -3.3670   49.1000 C   0  0  0  0  0  0  0  0  0  0  0  0
    9.2210   -2.4300   46.9290 C   0  0  0  0  0  0  0  0  0  0  0  0
    9.4270   -2.7080   48.2910 C   0  0  0  0  0  0  0  0  0  0  0  0
   10.2390   -1.7940   46.2000 C   0  0  0  0  0  0  0  0  0  0  0  0
   10.6230   -2.3190   48.9090 C   0  0  0  0  0  0  0  0  0  0  0  0
   11.4310   -1.4220   46.8200 C   0  0  0  0  0  0  0  0  0  0  0  0
   11.6220   -1.6810   48.1740 C   0  0  0  0  0  0  0  0  0  0  0  0
  1 10  1  0
  1  2  1  0
  2  3  2  3
  3  4  1  0
  4  5  1  0
  4  8  1  1
  5  6  2  3
  6  7  1  0
  8  9  1  0
 10 11  1  0
 11 12  1  0
 12 13  1  0
 13 15  2  0
 13 14  1  0
 14 16  2  0
 15 17  1  0
 16 18  1  0
 17 18  2  0
 18 19  1  0
 19 21  2  0
 19 20  1  0
 20 23  1  0
 20 22  1  0
 22 24  1  0
 23 25  1  0
 24 26  1  0
 25 27  1  0
 25 26  2  0
 26 28  1  0
 27 29  2  0
 28 30  2  0
 29 30  1  0
M  END
>  <vina_dock>  (2) 
-7.444

$$$$
O14757_PocketFlow_idx-in-all-generaetd-996
     RDKit          3D

  9  9  0  0  0  0  0  0  0  0999 V2000
    2.0700   -2.6130   42.6150 C   0  0  0  0  0  0  0  0  0  0  0  0
    3.4010   -2.2560   43.2320 C   0  0  0  0  0  0  0  0  0  0  0  0
    5.2020   -2.7370   44.7910 C   0  0  0  0  0  0  0  0  0  0  0  0
    3.9760   -3.0760   44.2150 C   0  0  0  0  0  0  0  0  0  0  0  0
    5.8620   -1.5750   44.3950 C   0  0  0  0  0  0  0  0  0  0  0  0
    5.2970   -0.7490   43.4270 C   0  0  0  0  0  0  0  0  0  0  0  0
    4.0720   -1.0870   42.8490 C   0  0  0  0  0  0  0  0  0  0  0  0
    1.7010   -1.6950   41.4840 C   0  0  0  0  0  0  0  0  0  0  0  0
    0.6810   -0.8260   41.5150 C   0  0  0  0  0  0  0  0  0  0  0  0
  1  8  1  0
  1  2  1  0
  2  7  2  0
  2  4  1  0
  3  4  2  0
  3  5  1  0
  5  6  2  0
  6  7  1  0
  8  9  2  0
M  END
>  <vina_dock>  (3) 
-5.394

$$$$
O14757_PocketFlow_idx-in-all-generaetd-387
     RDKit          3D

 24 27  0  0  0  0  0  0  0  0999 V2000
    6.7930   -1.7430   44.9970 C   0  0  0  0  0  0  0  0  0  0  0  0
    6.3500   -2.8100   45.7580 C   0  0  0  0  0  0  0  0  0  0  0  0
    5.9980   -1.2150   43.9930 C   0  0  0  0  0  0  0  0  0  0  0  0
    4.7280   -1.7560   43.7310 C   0  0  0  0  0  0  0  0  0  0  0  0
    4.2370   -2.8530   44.4800 C   0  0  0  0  0  0  0  0  0  0  0  0
    5.0900   -3.3560   45.5010 C   0  0  0  0  0  0  0  0  0  0  0  0
    3.9460   -1.2000   42.7180 C   0  0  0  0  0  0  0  0  0  0  0  0
    2.6580   -1.6640   42.4460 C   0  0  0  0  0  0  0  0  0  0  0  0
    2.1580   -2.8010   43.1270 C   0  0  0  0  0  0  0  0  0  0  0  0
    0.8990   -3.3690   42.8150 C   0  0  0  0  0  0  0  0  0  0  0  0
    0.3990   -4.4770   43.4960 C   0  0  0  0  0  0  0  0  0  0  0  0
    1.1460   -5.0630   44.5040 C   0  0  0  0  0  0  0  0  0  0  0  0
    2.3870   -4.5150   44.8340 C   0  0  0  0  0  0  0  0  0  0  0  0
    2.9390   -3.3920   44.1630 C   0  0  0  0  0  0  0  0  0  0  0  0
    8.0000   -1.2150   45.2350 F   0  0  0  0  0  0  0  0  0  0  0  0
    2.0060   -1.0850   41.3300 N   0  0  0  0  0  0  0  0  0  0  0  0
    0.6490   -6.1700   45.2050 N   0  0  0  0  0  0  0  0  0  0  0  0
   -0.3860   -6.7520   44.6840 C   0  0  0  0  0  0  0  0  0  0  0  0
   -1.0180   -7.9290   45.3090 C   0  0  0  0  0  0  0  0  0  0  0  0
   -2.3250   -8.2670   44.9420 C   0  0  0  0  0  0  0  0  0  0  0  0
   -0.3290   -8.6980   46.2510 C   0  0  0  0  0  0  0  0  0  0  0  0
   -2.9400   -9.3780   45.5220 C   0  0  0  0  0  0  0  0  0  0  0  0
   -0.9490   -9.8070   46.8280 C   0  0  0  0  0  0  0  0  0  0  0  0
   -2.2530  -10.1460   46.4630 C   0  0  0  0  0  0  0  0  0  0  0  0
  1  3  2  0
  1 15  1  0
  1  2  1  0
  2  6  2  0
  3  4  1  0
  4  7  2  0
  4  5  1  0
  5 14  2  0
  5  6  1  0
  7  8  1  0
  8 16  1  0
  8  9  2  0
  9 10  1  0
  9 14  1  0
 10 11  2  0
 11 12  1  0
 12 13  2  0
 12 17  1  0
 13 14  1  0
 17 18  2  3
 18 19  1  0
 19 20  2  0
 19 21  1  0
 20 22  1  0
 21 23  2  0
 22 24  2  0
 23 24  1  0
M  END
>  <vina_dock>  (4) 
-10.247

$$$$
O14757_PocketFlow_idx-in-all-generaetd-768
     RDKit          3D

 35 37  0  0  0  0  0  0  0  0999 V2000
    2.7850   -6.6740   44.9690 C   0  0  0  0  0  0  0  0  0  0  0  0
    1.4010   -6.0370   45.1570 C   0  0  0  0  0  0  0  0  0  0  0  0
    0.2890   -6.5450   44.2360 C   0  0  0  0  0  0  0  0  0  0  0  0
   -0.8790   -7.1870   44.9910 C   0  0  0  0  0  0  0  0  0  0  0  0
   -0.4130   -8.2280   46.0090 C   0  0  0  0  0  0  0  0  0  0  0  0
   -0.8510   -7.9130   47.4150 C   0  0  0  0  0  0  0  0  0  0  0  0
   -0.6670   -8.5800   48.4170 O   0  0  0  0  0  0  0  0  0  0  0  0
   -1.5320   -6.7520   47.4790 O   0  0  0  0  0  0  0  0  0  0  0  0
    3.8920   -5.6420   44.6970 C   0  0  0  0  0  0  0  0  0  0  0  0
    3.6690   -4.2140   45.2680 C   0  0  1  0  0  0  0  0  0  0  0  0
    4.3860   -4.0960   46.6230 C   0  0  0  0  0  0  0  0  0  0  0  0
    4.4230   -3.0230   47.2260 O   0  0  0  0  0  0  0  0  0  0  0  0
    4.8790   -5.2640   47.1670 N   0  0  0  0  0  0  0  0  0  0  0  0
    5.6000   -5.2220   48.4290 C   0  0  0  0  0  0  0  0  0  0  0  0
    6.9000   -6.0430   48.3740 C   0  0  0  0  0  0  0  0  0  0  0  0
    6.8620   -7.2610   48.1900 O   0  0  0  0  0  0  0  0  0  0  0  0
    8.1000   -5.3680   48.5810 N   0  0  0  0  0  0  0  0  0  0  0  0
    9.3450   -6.1190   48.4900 C   0  0  0  0  0  0  0  0  0  0  0  0
    8.2050   -3.9750   49.0240 C   0  0  0  0  0  0  0  0  0  0  0  0
    8.6860   -3.0270   47.9460 C   0  0  0  0  0  0  0  0  0  0  0  0
    7.8410   -2.7150   46.8690 C   0  0  0  0  0  0  0  0  0  0  0  0
    9.9400   -2.4000   48.0180 C   0  0  0  0  0  0  0  0  0  0  0  0
    8.2510   -1.8200   45.8780 C   0  0  0  0  0  0  0  0  0  0  0  0
   10.3490   -1.5080   47.0230 C   0  0  0  0  0  0  0  0  0  0  0  0
    9.5050   -1.2190   45.9530 C   0  0  0  0  0  0  0  0  0  0  0  0
    3.8710   -3.0180   44.3240 C   0  0  0  0  0  0  0  0  0  0  0  0
    2.8480   -2.6400   43.3910 C   0  0  0  0  0  0  0  0  0  0  0  0
    5.0630   -2.2730   44.3520 C   0  0  0  0  0  0  0  0  0  0  0  0
    3.0640   -1.5190   42.5460 C   0  0  0  0  0  0  0  0  0  0  0  0
    1.6110   -3.3150   43.2490 C   0  0  0  0  0  0  0  0  0  0  0  0
    5.2560   -1.1780   43.5140 C   0  0  0  0  0  0  0  0  0  0  0  0
    4.2630   -0.8030   42.6220 C   0  0  0  0  0  0  0  0  0  0  0  0
    2.0790   -1.1160   41.6280 C   0  0  0  0  0  0  0  0  0  0  0  0
    0.6390   -2.9000   42.3340 C   0  0  0  0  0  0  0  0  0  0  0  0
    0.8720   -1.8000   41.5230 C   0  0  0  0  0  0  0  0  0  0  0  0
  1  9  1  0
  1  2  1  0
  2  3  1  0
  3  4  1  0
  4  5  1  0
  5  6  1  0
  6  8  1  0
  6  7  2  0
 10  9  1  6
 10 26  1  0
 10 11  1  0
 11 13  1  0
 11 12  2  0
 13 14  1  0
 14 15  1  0
 15 16  2  0
 15 17  1  0
 17 18  1  0
 17 19  1  0
 19 20  1  0
 20 21  2  0
 20 22  1  0
 21 23  1  0
 22 24  2  0
 23 25  2  0
 24 25  1  0
 26 27  1  0
 26 28  2  0
 27 29  2  0
 27 30  1  0
 28 31  1  0
 29 33  1  0
 29 32  1  0
 30 34  2  0
 31 32  2  0
 33 35  2  0
 34 35  1  0
M  END
>  <vina_dock>  (5) 
-8.597

$$$$
O14757_PocketFlow_idx-in-all-generaetd-353
     RDKit          3D

  9  9  0  0  0  0  0  0  0  0999 V2000
    1.9750   -2.6240   42.6760 C   0  0  0  0  0  0  0  0  0  0  0  0
    1.6150   -1.8730   41.3910 C   0  0  0  0  0  0  0  0  0  0  0  0
    0.5330   -0.8210   41.5950 C   0  0  0  0  0  0  0  0  0  0  0  0
    3.3250   -2.2540   43.2400 C   0  0  0  0  0  0  0  0  0  0  0  0
    3.9710   -1.0810   42.8250 C   0  0  0  0  0  0  0  0  0  0  0  0
    3.9500   -3.0740   44.1890 C   0  0  0  0  0  0  0  0  0  0  0  0
    5.2160   -0.7360   43.3520 C   0  0  0  0  0  0  0  0  0  0  0  0
    5.1950   -2.7260   44.7140 C   0  0  0  0  0  0  0  0  0  0  0  0
    5.8280   -1.5580   44.2960 C   0  0  0  0  0  0  0  0  0  0  0  0
  1  2  1  0
  1  4  1  0
  2  3  1  0
  4  5  2  0
  4  6  1  0
  5  7  1  0
  6  8  2  0
  7  9  2  0
  8  9  1  0
M  END
>  <vina_dock>  (6) 
-5.347

$$$$
O14757_PocketFlow_idx-in-all-generaetd-89
     RDKit          3D

 16 17  0  0  0  0  0  0  0  0999 V2000
    5.6130   -1.1270   43.8250 C   0  0  0  0  0  0  0  0  0  0  0  0
    4.8670   -0.3740   43.0010 C   0  0  0  0  0  0  0  0  0  0  0  0
    5.1290   -2.2470   44.6370 C   0  0  0  0  0  0  0  0  0  0  0  0
    4.3050   -4.5190   44.8170 C   0  0  0  0  0  0  0  0  0  0  0  0
    4.7680   -3.4580   44.0360 C   0  0  0  0  0  0  0  0  0  0  0  0
    4.2000   -4.3740   46.2000 C   0  0  0  0  0  0  0  0  0  0  0  0
    4.5570   -3.1670   46.8030 C   0  0  0  0  0  0  0  0  0  0  0  0
    5.0200   -2.1050   46.0240 C   0  0  0  0  0  0  0  0  0  0  0  0
    3.4520   -0.5360   42.7380 C   0  0  0  0  0  0  0  0  0  0  0  0
    2.9610   -1.5510   42.0090 C   0  0  0  0  0  0  0  0  0  0  0  0
    1.5310   -1.7500   41.7310 C   0  0  0  0  0  0  0  0  0  0  0  0
    0.7020   -0.6270   41.6100 C   0  0  0  0  0  0  0  0  0  0  0  0
    0.9540   -3.0240   41.6400 C   0  0  0  0  0  0  0  0  0  0  0  0
   -0.6680   -0.7730   41.3750 C   0  0  0  0  0  0  0  0  0  0  0  0
   -0.4160   -3.1710   41.4050 C   0  0  0  0  0  0  0  0  0  0  0  0
   -1.2250   -2.0450   41.2710 C   0  0  0  0  0  0  0  0  0  0  0  0
  1  2  2  3
  1  3  1  0
  2  9  1  0
  3  5  1  0
  3  8  2  0
  4  5  2  0
  4  6  1  0
  6  7  2  0
  7  8  1  0
  9 10  2  3
 10 11  1  0
 11 12  2  0
 11 13  1  0
 12 14  1  0
 13 15  2  0
 14 16  2  0
 15 16  1  0
M  END
>  <vina_dock>  (7) 
-7.318

$$$$
O14757_PocketFlow_idx-in-all-generaetd-549
     RDKit          3D

 18 20  0  0  0  0  0  0  0  0999 V2000
    0.8390   -1.7100   41.6040 C   0  0  0  0  0  0  0  0  0  0  0  0
    1.4710   -2.6090   42.5520 C   0  0  0  0  0  0  0  0  0  0  0  0
    2.7360   -2.3920   42.9730 C   0  0  0  0  0  0  0  0  0  0  0  0
    3.3550   -3.2600   43.9710 C   0  0  0  0  0  0  0  0  0  0  0  0
    2.6070   -4.1550   44.6440 C   0  0  0  0  0  0  0  0  0  0  0  0
    1.3420   -0.4880   41.3740 C   0  0  0  0  0  0  0  0  0  0  0  0
    1.1200   -4.3330   44.4030 C   0  0  1  0  0  0  0  0  0  0  0  0
    0.6610   -3.7860   43.0380 C   0  0  0  0  0  0  0  0  0  0  0  0
    2.6140   -0.0310   42.0370 C   0  0  0  0  0  0  0  0  0  0  0  0
    3.5350   -1.2130   42.4280 C   0  0  1  0  0  0  0  0  0  0  0  0
    4.8180   -3.0450   44.2910 C   0  0  0  0  0  0  0  0  0  0  0  0
    5.2540   -1.5890   44.2100 C   0  0  0  0  0  0  0  0  0  0  0  0
    4.6450   -0.7590   43.3490 C   0  0  0  0  0  0  0  0  0  0  0  0
    0.6560   -5.7800   44.5460 C   0  0  0  0  0  0  0  0  0  0  0  0
   -0.0520   -6.1780   43.4630 F   0  0  0  0  0  0  0  0  0  0  0  0
    1.7130   -6.6180   44.6610 F   0  0  0  0  0  0  0  0  0  0  0  0
   -0.1260   -5.9620   45.6330 F   0  0  0  0  0  0  0  0  0  0  0  0
    6.2940   -1.1810   45.0220 N   0  0  0  0  0  0  0  0  0  0  0  0
  1  6  2  0
  1  2  1  0
  2  3  2  0
  2  8  1  0
  3 10  1  0
  3  4  1  0
  4 11  1  0
  4  5  2  0
  5  7  1  0
  6  9  1  0
  7  8  1  0
  7 14  1  6
 10  9  1  1
 10 13  1  0
 11 12  1  0
 12 13  2  0
 12 18  1  0
 14 15  1  0
 14 16  1  0
 14 17  1  0
M  END
>  <vina_dock>  (8) 
-9.151

$$$$
O14757_PocketFlow_idx-in-all-generaetd-587
     RDKit          3D

 22 24  0  0  0  0  0  0  0  0999 V2000
    7.5580   -3.2880   46.5030 C   0  0  0  0  0  0  0  0  0  0  0  0
    6.8900   -2.7090   45.3790 O   0  0  0  0  0  0  0  0  0  0  0  0
    5.6060   -3.0880   45.1070 C   0  0  0  0  0  0  0  0  0  0  0  0
    4.9130   -4.1350   45.7010 C   0  0  0  0  0  0  0  0  0  0  0  0
    3.5970   -4.4140   45.3120 C   0  0  0  0  0  0  0  0  0  0  0  0
    2.9360   -3.6610   44.3130 C   0  0  0  0  0  0  0  0  0  0  0  0
    4.9770   -2.3390   44.1110 C   0  0  0  0  0  0  0  0  0  0  0  0
    1.5980   -3.9110   43.8950 C   0  0  0  0  0  0  0  0  0  0  0  0
    3.6570   -2.6060   43.7070 C   0  0  0  0  0  0  0  0  0  0  0  0
    1.0250   -3.1110   42.8880 C   0  0  0  0  0  0  0  0  0  0  0  0
    3.0520   -1.8290   42.7060 C   0  0  0  0  0  0  0  0  0  0  0  0
    1.7460   -2.0800   42.2800 C   0  0  0  0  0  0  0  0  0  0  0  0
    1.1060   -1.2180   41.2330 C   0  0  0  0  0  0  0  0  0  0  0  0
    0.7760   -4.9830   44.4790 C   0  0  0  0  0  0  0  0  0  0  0  0
    0.3350   -6.0570   43.6910 C   0  0  0  0  0  0  0  0  0  0  0  0
    0.4130   -4.9500   45.8340 C   0  0  0  0  0  0  0  0  0  0  0  0
   -0.4470   -7.0740   44.2450 C   0  0  0  0  0  0  0  0  0  0  0  0
   -0.3670   -5.9670   46.3890 C   0  0  0  0  0  0  0  0  0  0  0  0
   -0.7970   -7.0280   45.5940 C   0  0  0  0  0  0  0  0  0  0  0  0
    8.9660   -2.7780   46.5820 C   0  0  0  0  0  0  0  0  0  0  0  0
    9.3770   -1.5200   46.3920 C   0  0  0  0  0  0  0  0  0  0  0  0
    8.6350   -0.4070   46.1150 N   0  0  0  0  0  0  0  0  0  0  0  0
  1  2  1  0
  1 20  1  0
  2  3  1  0
  3  7  2  0
  3  4  1  0
  4  5  2  0
  5  6  1  0
  6  9  2  0
  6  8  1  0
  7  9  1  0
  8 10  2  0
  8 14  1  0
  9 11  1  0
 10 12  1  0
 11 12  2  0
 12 13  1  0
 14 15  2  0
 14 16  1  0
 15 17  1  0
 16 18  2  0
 17 19  2  0
 18 19  1  0
 20 21  2  3
 21 22  1  0
M  END
>  <vina_dock>  (9) 
-8.793

$$$$
O14757_PocketFlow_idx-in-all-generaetd-64
     RDKit          3D

 35 38  0  0  0  0  0  0  0  0999 V2000
    7.0890   -2.5160   46.0680 C   0  0  0  0  0  0  0  0  0  0  0  0
    6.1840   -3.4260   46.6260 C   0  0  0  0  0  0  0  0  0  0  0  0
    4.9290   -3.6390   46.0430 C   0  0  0  0  0  0  0  0  0  0  0  0
    4.5480   -2.9580   44.8780 C   0  0  0  0  0  0  0  0  0  0  0  0
    5.4680   -2.0610   44.3120 C   0  0  0  0  0  0  0  0  0  0  0  0
    6.7230   -1.8460   44.8970 C   0  0  0  0  0  0  0  0  0  0  0  0
    8.4120   -2.3570   46.6920 C   0  0  0  0  0  0  0  0  0  0  0  0
    9.3750   -3.2940   46.7130 C   0  0  0  0  0  0  0  0  0  0  0  0
    9.1640   -4.4760   46.0870 F   0  0  0  0  0  0  0  0  0  0  0  0
   10.6990   -3.1220   47.3310 C   0  0  0  0  0  0  0  0  0  0  0  0
   12.6000   -1.6380   47.8380 C   0  0  0  0  0  0  0  0  0  0  0  0
   11.3280   -1.8650   47.2850 C   0  0  0  0  0  0  0  0  0  0  0  0
   13.1740   -2.7640   48.4390 C   0  0  0  0  0  0  0  0  0  0  0  0
   12.6230   -4.0020   48.5030 N   0  0  0  0  0  0  0  0  0  0  0  0
   11.4040   -4.1500   47.9420 C   0  0  0  0  0  0  0  0  0  0  0  0
   13.2000   -0.3910   47.7830 N   0  0  0  0  0  0  0  0  0  0  0  0
   13.4230    0.3510   46.5540 C   0  0  0  0  0  0  0  0  0  0  0  0
   13.3350    0.4150   49.0170 C   0  0  0  0  0  0  0  0  0  0  0  0
   12.7000    1.6190   46.4500 N   0  0  0  0  0  0  0  0  0  0  0  0
   13.3270    1.9410   48.8100 C   0  0  0  0  0  0  0  0  0  0  0  0
   12.9790    2.4370   47.5690 N   0  0  0  0  0  0  0  0  0  0  0  0
   13.6030    2.7200   49.7250 O   0  0  0  0  0  0  0  0  0  0  0  0
    3.2280   -3.1780   44.2660 C   0  0  0  0  0  0  0  0  0  0  0  0
    2.3410   -4.1380   44.7800 C   0  0  0  0  0  0  0  0  0  0  0  0
    2.8190   -2.4390   43.1470 C   0  0  0  0  0  0  0  0  0  0  0  0
    1.0870   -4.3680   44.2020 C   0  0  0  0  0  0  0  0  0  0  0  0
    1.5630   -2.6490   42.5530 C   0  0  0  0  0  0  0  0  0  0  0  0
    0.7070   -3.6280   43.0850 C   0  0  0  0  0  0  0  0  0  0  0  0
    0.3530   -5.3380   44.8230 O   0  0  0  0  0  0  0  0  0  0  0  0
    0.3460   -6.6600   44.2860 C   0  0  0  0  0  0  0  0  0  0  0  0
   -0.9270   -7.3920   44.6680 C   0  0  0  0  0  0  0  0  0  0  0  0
    1.1560   -1.8570   41.3370 C   0  0  0  0  0  0  0  0  0  0  0  0
    1.4300   -2.5120   40.1740 F   0  0  0  0  0  0  0  0  0  0  0  0
   -0.1770   -1.5770   41.3030 F   0  0  0  0  0  0  0  0  0  0  0  0
    1.7880   -0.6520   41.2470 F   0  0  0  0  0  0  0  0  0  0  0  0
  1  6  1  0
  1  2  2  0
  1  7  1  0
  2  3  1  0
  3  4  2  0
  4 23  1  0
  4  5  1  0
  5  6  2  0
  7  8  2  3
  8  9  1  0
  8 10  1  0
 10 12  2  0
 10 15  1  0
 11 12  1  0
 11 16  1  0
 11 13  2  0
 13 14  1  0
 14 15  2  0
 16 17  1  0
 16 18  1  0
 17 19  1  0
 18 20  1  0
 19 21  1  0
 20 21  1  0
 20 22  2  0
 23 25  1  0
 23 24  2  0
 24 26  1  0
 25 27  2  0
 26 28  2  0
 26 29  1  0
 27 32  1  0
 27 28  1  0
 29 30  1  0
 30 31  1  0
 32 33  1  0
 32 35  1  0
 32 34  1  0
M  END
>  <vina_dock>  (10) 
-9.914

$$$$
O14757_PocketFlow_idx-in-all-generaetd-486
     RDKit          3D

 15 14  0  0  0  0  0  0  0  0999 V2000
    4.6870   -3.5770   44.3020 C   0  0  0  0  0  0  0  0  0  0  0  0
    4.3490   -4.8740   44.2310 C   0  0  0  0  0  0  0  0  0  0  0  0
    4.4320   -2.5960   45.4170 C   0  0  0  0  0  0  0  0  0  0  0  0
    4.8190   -1.1710   45.0030 C   0  0  0  0  0  0  0  0  0  0  0  0
    4.9420   -0.9040   43.5250 C   0  0  0  0  0  0  0  0  0  0  0  0
    4.2770    0.0060   42.8010 C   0  0  0  0  0  0  0  0  0  0  0  0
    3.6350   -5.6290   45.2330 C   0  0  0  0  0  0  0  0  0  0  0  0
    2.3240   -5.9250   45.2530 C   0  0  0  0  0  0  0  0  0  0  0  0
    1.1920   -5.5560   44.3190 C   0  0  1  0  0  0  0  0  0  0  0  0
    0.0190   -6.5410   44.3340 C   0  0  0  0  0  0  0  0  0  0  0  0
    0.7260   -4.1380   44.5500 C   0  0  0  0  0  0  0  0  0  0  0  0
    0.8900   -3.0550   43.7720 C   0  0  0  0  0  0  0  0  0  0  0  0
    1.5620   -3.0010   42.4940 C   0  0  0  0  0  0  0  0  0  0  0  0
    1.4640   -2.0180   41.5840 C   0  0  0  0  0  0  0  0  0  0  0  0
    0.6630   -0.7580   41.6460 C   0  0  0  0  0  0  0  0  0  0  0  0
  1  2  2  3
  1  3  1  0
  2  7  1  0
  3  4  1  0
  4  5  1  0
  5  6  2  0
  7  8  2  3
  8  9  1  0
  9 10  1  1
  9 11  1  0
 11 12  2  3
 12 13  1  0
 13 14  2  3
 14 15  1  0
M  END
>  <vina_dock>  (11) 
-5.894

$$$$
O14757_PocketFlow_idx-in-all-generaetd-894
     RDKit          3D

 35 39  0  0  0  0  0  0  0  0999 V2000
    2.8710   -3.5220   44.0750 C   0  0  0  0  0  0  0  0  0  0  0  0
    3.1970   -2.5260   43.1330 C   0  0  0  0  0  0  0  0  0  0  0  0
    2.2170   -1.9760   42.3070 C   0  0  0  0  0  0  0  0  0  0  0  0
    0.9050   -2.4300   42.4150 C   0  0  0  0  0  0  0  0  0  0  0  0
    0.5590   -3.4080   43.3400 C   0  0  0  0  0  0  0  0  0  0  0  0
    1.5330   -3.9460   44.1850 C   0  0  0  0  0  0  0  0  0  0  0  0
    3.9670   -4.1060   44.9440 C   0  0  0  0  0  0  0  0  0  0  0  0
    5.1810   -3.2100   45.1010 C   0  0  0  0  0  0  0  0  0  0  0  0
    9.1060   -5.4170   49.7580 C   0  0  0  0  0  0  0  0  0  0  0  0
   10.0800   -5.7290   50.6260 F   0  0  0  0  0  0  0  0  0  0  0  0
    7.9820   -6.2350   49.6700 C   0  0  0  0  0  0  0  0  0  0  0  0
    9.2360   -4.2890   48.9600 C   0  0  0  0  0  0  0  0  0  0  0  0
    6.9650   -5.9240   48.7590 C   0  0  0  0  0  0  0  0  0  0  0  0
    8.2170   -3.9860   48.0500 C   0  0  0  0  0  0  0  0  0  0  0  0
    7.0820   -4.8030   47.9300 C   0  0  0  0  0  0  0  0  0  0  0  0
    8.3270   -2.7970   47.1760 C   0  0  0  0  0  0  0  0  0  0  0  0
    6.0600   -4.4690   47.0320 N   0  0  0  0  0  0  0  0  0  0  0  0
    7.2670   -2.5540   46.1600 C   0  0  0  0  0  0  0  0  0  0  0  0
    9.2870   -2.0370   47.2790 O   0  0  0  0  0  0  0  0  0  0  0  0
    6.1660   -3.4310   46.0880 C   0  0  0  0  0  0  0  0  0  0  0  0
    7.3980   -1.4770   45.2780 C   0  0  0  0  0  0  0  0  0  0  0  0
    6.4260   -1.2630   44.3050 C   0  0  0  0  0  0  0  0  0  0  0  0
    5.3330   -2.1240   44.2130 C   0  0  0  0  0  0  0  0  0  0  0  0
    1.2800   -4.9400   45.1010 O   0  0  0  0  0  0  0  0  0  0  0  0
    1.3080   -6.2920   44.6230 C   0  0  0  0  0  0  0  0  0  0  0  0
   -0.0790   -6.7960   44.3500 C   0  0  0  0  0  0  0  0  0  0  0  0
   -0.8930   -7.4990   45.1660 C   0  0  0  0  0  0  0  0  0  0  0  0
   -2.2150   -7.8700   44.6780 C   0  0  0  0  0  0  0  0  0  0  0  0
   -0.5650   -7.8680   46.5920 C   0  0  0  0  0  0  0  0  0  0  0  0
   -3.0400   -8.8260   45.1400 C   0  0  0  0  0  0  0  0  0  0  0  0
   -0.4510   -9.3440   46.7980 C   0  0  0  0  0  0  0  0  0  0  0  0
   -2.8770   -9.8810   46.2110 C   0  0  1  0  0  0  0  0  0  0  0  0
   -1.4700  -10.2050   46.6460 C   0  0  0  0  0  0  0  0  0  0  0  0
   -3.7600   -9.5690   47.4190 C   0  0  0  0  0  0  0  0  0  0  0  0
   -0.0840   -1.9350   41.6140 O   0  0  0  0  0  0  0  0  0  0  0  0
  1  2  2  0
  1  6  1  0
  1  7  1  0
  2  3  1  0
  3  4  2  0
  4 35  1  0
  4  5  1  0
  5  6  2  0
  6 24  1  0
  7  8  1  0
  8 23  1  0
  8 20  2  0
  9 12  2  0
  9 11  1  0
  9 10  1  0
 11 13  2  0
 12 14  1  0
 13 15  1  0
 14 16  1  0
 14 15  2  0
 15 17  1  0
 16 18  1  0
 16 19  2  0
 17 20  1  0
 18 21  2  0
 18 20  1  0
 21 22  1  0
 22 23  2  0
 24 25  1  0
 25 26  1  0
 26 27  2  3
 27 28  1  0
 27 29  1  0
 28 30  2  0
 29 31  1  0
 30 32  1  0
 31 33  2  0
 32 33  1  0
 32 34  1  1
M  END
>  <vina_dock>  (12) 
-10.843

$$$$
O14757_PocketFlow_idx-in-all-generaetd-582
     RDKit          3D

 35 38  0  0  0  0  0  0  0  0999 V2000
    5.2370   -3.0040   44.0890 C   0  0  0  0  0  0  0  0  0  0  0  0
    5.4340   -1.4920   43.9030 C   0  0  0  0  0  0  0  0  0  0  0  0
    4.1240   -0.7340   43.6690 C   0  0  0  0  0  0  0  0  0  0  0  0
    3.6840   -0.7290   42.2020 C   0  0  0  0  0  0  0  0  0  0  0  0
    2.2850   -1.2720   42.0390 C   0  0  0  0  0  0  0  0  0  0  0  0
    0.6600   -3.0290   42.3590 C   0  0  0  0  0  0  0  0  0  0  0  0
    0.3540   -4.2580   42.8000 F   0  0  0  0  0  0  0  0  0  0  0  0
    1.9600   -2.5510   42.5020 C   0  0  0  0  0  0  0  0  0  0  0  0
   -0.3310   -2.2540   41.7690 C   0  0  0  0  0  0  0  0  0  0  0  0
   -0.0190   -0.9770   41.3080 C   0  0  0  0  0  0  0  0  0  0  0  0
    1.2840   -0.4900   41.4420 C   0  0  0  0  0  0  0  0  0  0  0  0
    4.6470   -3.3560   45.4800 C   0  0  1  0  0  0  0  0  0  0  0  0
    3.4790   -4.3380   45.4110 C   0  0  0  0  0  0  0  0  0  0  0  0
    3.5970   -5.6200   44.8560 C   0  0  0  0  0  0  0  0  0  0  0  0
    2.2380   -3.9610   45.9480 C   0  0  0  0  0  0  0  0  0  0  0  0
    2.5000   -6.4900   44.8230 C   0  0  0  0  0  0  0  0  0  0  0  0
    1.1440   -4.8310   45.9130 C   0  0  0  0  0  0  0  0  0  0  0  0
    1.2550   -6.1090   45.3490 C   0  0  0  0  0  0  0  0  0  0  0  0
    0.1020   -7.0240   45.3130 C   0  0  0  0  0  0  0  0  0  0  0  0
   -0.1060   -7.9620   46.3390 C   0  0  0  0  0  0  0  0  0  0  0  0
   -0.8180   -6.9830   44.2520 C   0  0  0  0  0  0  0  0  0  0  0  0
   -1.1980   -8.8360   46.3090 C   0  0  0  0  0  0  0  0  0  0  0  0
   -1.9020   -7.8590   44.2290 C   0  0  0  0  0  0  0  0  0  0  0  0
   -2.0960   -8.7830   45.2470 C   0  0  0  0  0  0  0  0  0  0  0  0
   -2.8080   -7.8390   43.2070 O   0  0  0  0  0  0  0  0  0  0  0  0
    5.7010   -3.8040   46.4870 C   0  0  0  0  0  0  0  0  0  0  0  0
    5.3690   -4.5210   47.6460 C   0  0  0  0  0  0  0  0  0  0  0  0
    7.0510   -3.4860   46.2600 C   0  0  0  0  0  0  0  0  0  0  0  0
    6.3630   -4.9180   48.5440 C   0  0  0  0  0  0  0  0  0  0  0  0
    8.0580   -3.8850   47.1540 C   0  0  0  0  0  0  0  0  0  0  0  0
    7.6990   -4.6020   48.3010 C   0  0  0  0  0  0  0  0  0  0  0  0
    9.4980   -3.5150   46.8830 C   0  0  0  0  0  0  0  0  0  0  0  0
   10.1490   -2.9380   48.0690 N   0  0  0  0  0  0  0  0  0  0  0  0
    9.6880   -1.7960   48.4340 C   0  0  0  0  0  0  0  0  0  0  0  0
   10.2460   -1.1010   49.6350 C   0  0  0  0  0  0  0  0  0  0  0  0
  1  2  1  0
 12  1  1  6
  2  3  1  0
  3  4  1  0
  4  5  1  0
  5 11  1  0
  5  8  2  0
  6  9  2  0
  6  8  1  0
  6  7  1  0
  9 10  1  0
 10 11  2  0
 12 13  1  0
 12 26  1  0
 13 14  2  0
 13 15  1  0
 14 16  1  0
 15 17  2  0
 16 18  2  0
 17 18  1  0
 18 19  1  0
 19 21  1  0
 19 20  2  0
 20 22  1  0
 21 23  2  0
 22 24  2  0
 23 25  1  0
 23 24  1  0
 26 28  1  0
 26 27  2  0
 27 29  1  0
 28 30  2  0
 29 31  2  0
 30 32  1  0
 30 31  1  0
 32 33  1  0
 33 34  1  0
 34 35  1  0
M  END
>  <vina_dock>  (13) 
-9.2

$$$$
O14757_PocketFlow_idx-in-all-generaetd-793
     RDKit          3D

 19 21  0  0  0  0  0  0  0  0999 V2000
    0.8080   -4.0380   43.3000 C   0  0  0  0  0  0  0  0  0  0  0  0
    0.3570   -3.2250   42.2570 C   0  0  0  0  0  0  0  0  0  0  0  0
    2.0730   -3.7720   43.8480 C   0  0  0  0  0  0  0  0  0  0  0  0
    2.8910   -2.7310   43.3700 C   0  0  0  0  0  0  0  0  0  0  0  0
    2.4070   -1.9440   42.3150 C   0  0  0  0  0  0  0  0  0  0  0  0
    1.1500   -2.1880   41.7630 C   0  0  0  0  0  0  0  0  0  0  0  0
    0.0320   -5.0730   43.8540 N   0  0  0  0  0  0  0  0  0  0  0  0
    0.3800   -6.2300   44.5710 C   0  0  0  0  0  0  0  0  0  0  0  0
   -0.3500   -8.2220   45.7750 C   0  0  0  0  0  0  0  0  0  0  0  0
   -0.6400   -7.0790   45.0260 C   0  0  0  0  0  0  0  0  0  0  0  0
    0.9710   -8.5330   46.0870 C   0  0  0  0  0  0  0  0  0  0  0  0
    1.9960   -7.7000   45.6490 C   0  0  0  0  0  0  0  0  0  0  0  0
    1.7000   -6.5560   44.9010 C   0  0  0  0  0  0  0  0  0  0  0  0
    4.2140   -2.4730   43.9620 C   0  0  0  0  0  0  0  0  0  0  0  0
    4.7630   -3.3500   44.9120 C   0  0  0  0  0  0  0  0  0  0  0  0
    4.9650   -1.3460   43.5930 C   0  0  0  0  0  0  0  0  0  0  0  0
    6.0190   -3.1080   45.4760 C   0  0  0  0  0  0  0  0  0  0  0  0
    6.2220   -1.1020   44.1540 C   0  0  0  0  0  0  0  0  0  0  0  0
    6.7480   -1.9830   45.0960 C   0  0  0  0  0  0  0  0  0  0  0  0
  1  2  2  0
  1  3  1  0
  1  7  1  0
  2  6  1  0
  3  4  2  0
  4  5  1  0
  4 14  1  0
  5  6  2  0
  7  8  1  0
  8 13  2  0
  8 10  1  0
  9 10  2  0
  9 11  1  0
 11 12  2  0
 12 13  1  0
 14 16  1  0
 14 15  2  0
 15 17  1  0
 16 18  2  0
 17 19  2  0
 18 19  1  0
M  END
>  <vina_dock>  (14) 
-8.867

$$$$
O14757_PocketFlow_idx-in-all-generaetd-888
     RDKit          3D

 32 34  0  0  0  0  0  0  0  0999 V2000
    4.7770   -3.2850   43.6370 C   0  0  0  0  0  0  0  0  0  0  0  0
    3.6590   -4.2040   44.0730 C   0  0  0  0  0  0  0  0  0  0  0  0
    1.5640   -5.9220   44.9380 C   0  0  0  0  0  0  0  0  0  0  0  0
    1.3120   -4.5870   44.5910 C   0  0  0  0  0  0  0  0  0  0  0  0
    2.8890   -6.3750   44.8370 C   0  0  0  0  0  0  0  0  0  0  0  0
    2.3440   -3.7370   44.1720 C   0  0  0  0  0  0  0  0  0  0  0  0
    3.9220   -5.5370   44.4000 C   0  0  0  0  0  0  0  0  0  0  0  0
    0.4870   -6.8120   45.4150 C   0  0  0  0  0  0  0  0  0  0  0  0
   -1.5650   -8.5610   46.3020 C   0  0  0  0  0  0  0  0  0  0  0  0
   -0.2600   -8.6920   46.7870 C   0  0  0  0  0  0  0  0  0  0  0  0
   -1.8390   -7.5470   45.3760 C   0  0  0  0  0  0  0  0  0  0  0  0
    0.7510   -7.8310   46.3450 C   0  0  0  0  0  0  0  0  0  0  0  0
   -0.8290   -6.6820   44.9380 C   0  0  0  0  0  0  0  0  0  0  0  0
   -2.6170   -9.5030   46.7250 C   0  0  0  0  0  0  0  0  0  0  0  0
   -2.9820  -10.4930   45.8900 C   0  0  0  0  0  0  0  0  0  0  0  0
   -3.3420   -9.4110   48.0170 C   0  0  0  0  0  0  0  0  0  0  0  0
   -3.7600  -10.3450   48.6800 O   0  0  0  0  0  0  0  0  0  0  0  0
   -3.5200   -8.1440   48.4330 O   0  0  0  0  0  0  0  0  0  0  0  0
    5.0450   -2.1370   44.6370 C   0  0  1  0  0  0  0  0  0  0  0  0
    6.3540   -2.3260   45.4010 C   0  0  0  0  0  0  0  0  0  0  0  0
    6.5780   -3.4380   46.2270 C   0  0  0  0  0  0  0  0  0  0  0  0
    7.3810   -1.3800   45.2650 C   0  0  0  0  0  0  0  0  0  0  0  0
    7.7950   -3.5970   46.8940 C   0  0  0  0  0  0  0  0  0  0  0  0
    8.6000   -1.5380   45.9230 C   0  0  0  0  0  0  0  0  0  0  0  0
    8.8030   -2.6480   46.7370 C   0  0  0  0  0  0  0  0  0  0  0  0
    5.0170   -0.7790   43.8890 C   0  0  0  0  0  0  0  0  0  0  0  0
    4.1490   -0.8260   42.7180 N   0  0  0  0  0  0  0  0  0  0  0  0
    3.1500    0.0800   42.4530 C   0  0  0  0  0  0  0  0  0  0  0  0
    1.9580   -0.1450   41.8840 C   0  0  0  0  0  0  0  0  0  0  0  0
    1.5360   -1.4330   41.4410 C   0  0  0  0  0  0  0  0  0  0  0  0
    1.1600   -2.6370   41.0210 C   0  0  0  0  0  0  0  0  0  0  0  0
   -0.2120   -3.1850   41.2450 C   0  0  0  0  0  0  0  0  0  0  0  0
  1  2  1  0
 19  1  1  6
  2  6  2  0
  2  7  1  0
  3  4  2  0
  3  5  1  0
  3  8  1  0
  4  6  1  0
  5  7  2  0
  8 13  2  0
  8 12  1  0
  9 11  2  0
  9 14  1  0
  9 10  1  0
 10 12  2  0
 11 13  1  0
 14 15  2  0
 14 16  1  0
 16 18  1  0
 16 17  2  0
 19 26  1  0
 19 20  1  0
 20 22  1  0
 20 21  2  0
 21 23  1  0
 22 24  2  0
 23 25  2  0
 24 25  1  0
 26 27  1  0
 27 28  1  0
 28 29  1  0
 29 30  2  0
 30 31  2  0
 31 32  1  0
M  END
>  <vina_dock>  (15) 
-9.164

$$$$
O14757_PocketFlow_idx-in-all-generaetd-452
     RDKit          3D

 35 38  0  0  0  0  0  0  0  0999 V2000
   -0.7810   -8.0000   47.2090 C   0  0  0  0  0  0  0  0  0  0  0  0
   -0.5610   -9.3740   47.8520 C   0  0  0  0  0  0  0  0  0  0  0  0
    0.7860   -9.4630   48.5160 C   0  0  0  0  0  0  0  0  0  0  0  0
    3.1870   -9.7550   48.4250 C   0  0  0  0  0  0  0  0  0  0  0  0
    3.1900   -9.6640   49.8140 C   0  0  0  0  0  0  0  0  0  0  0  0
    1.9550   -9.6500   47.7740 C   0  0  0  0  0  0  0  0  0  0  0  0
    2.0810   -9.4850   50.5640 N   0  0  0  0  0  0  0  0  0  0  0  0
    0.9080   -9.3930   49.9000 C   0  0  0  0  0  0  0  0  0  0  0  0
    4.4700   -9.9300   47.6590 C   0  0  0  0  0  0  0  0  0  0  0  0
    5.4480   -8.7600   47.8330 C   0  0  0  0  0  0  0  0  0  0  0  0
    4.8740   -7.4810   47.4160 N   0  0  0  0  0  0  0  0  0  0  0  0
   -0.3010   -7.9410   45.7540 C   0  0  0  0  0  0  0  0  0  0  0  0
    0.7070   -6.8500   45.4930 C   0  0  0  0  0  0  0  0  0  0  0  0
    0.3710   -5.5060   45.6870 C   0  0  0  0  0  0  0  0  0  0  0  0
    1.9970   -7.1620   45.0490 C   0  0  0  0  0  0  0  0  0  0  0  0
    1.3040   -4.4960   45.4340 C   0  0  0  0  0  0  0  0  0  0  0  0
    2.9270   -6.1500   44.7960 C   0  0  0  0  0  0  0  0  0  0  0  0
    2.5990   -4.7980   44.9810 C   0  0  0  0  0  0  0  0  0  0  0  0
    3.5790   -3.7320   44.7110 C   0  0  0  0  0  0  0  0  0  0  0  0
    4.8110   -3.6930   45.3890 C   0  0  0  0  0  0  0  0  0  0  0  0
    3.3150   -2.7260   43.7700 C   0  0  0  0  0  0  0  0  0  0  0  0
    5.7670   -2.6890   45.1510 C   0  0  0  0  0  0  0  0  0  0  0  0
    4.2470   -1.7110   43.5130 C   0  0  0  0  0  0  0  0  0  0  0  0
    5.4660   -1.6990   44.2030 C   0  0  0  0  0  0  0  0  0  0  0  0
    7.0470   -2.6760   45.8790 C   0  0  0  0  0  0  0  0  0  0  0  0
    7.4240   -3.7520   46.7010 C   0  0  0  0  0  0  0  0  0  0  0  0
    7.9280   -1.5870   45.7740 C   0  0  0  0  0  0  0  0  0  0  0  0
    8.6390   -3.7390   47.3920 C   0  0  0  0  0  0  0  0  0  0  0  0
    9.1430   -1.5730   46.4640 C   0  0  0  0  0  0  0  0  0  0  0  0
    9.4980   -2.6500   47.2720 C   0  0  0  0  0  0  0  0  0  0  0  0
    3.8910   -0.6740   42.5050 C   0  0  0  0  0  0  0  0  0  0  0  0
    4.4470    0.4090   42.4290 O   0  0  0  0  0  0  0  0  0  0  0  0
    2.8790   -1.1070   41.7120 O   0  0  0  0  0  0  0  0  0  0  0  0
    1.7310   -0.2490   41.6400 C   0  0  0  0  0  0  0  0  0  0  0  0
    0.4600   -1.0760   41.6360 C   0  0  0  0  0  0  0  0  0  0  0  0
  1 12  1  0
  1  2  1  0
  2  3  1  0
  3  6  1  0
  3  8  2  0
  4  9  1  0
  4  6  2  0
  4  5  1  0
  5  7  2  0
  7  8  1  0
  9 10  1  0
 10 11  1  0
 12 13  1  0
 13 15  1  0
 13 14  2  0
 14 16  1  0
 15 17  2  0
 16 18  2  0
 17 18  1  0
 18 19  1  0
 19 21  1  0
 19 20  2  0
 20 22  1  0
 21 23  2  0
 22 24  2  0
 22 25  1  0
 23 31  1  0
 23 24  1  0
 25 27  1  0
 25 26  2  0
 26 28  1  0
 27 29  2  0
 28 30  2  0
 29 30  1  0
 31 33  1  0
 31 32  2  0
 33 34  1  0
 34 35  1  0
M  END
>  <vina_dock>  (16) 
-8.85

$$$$
O14757_PocketFlow_idx-in-all-generaetd-129
     RDKit          3D

 21 21  0  0  0  0  0  0  0  0999 V2000
    1.3100   -5.3810   45.7350 C   0  0  0  0  0  0  0  0  0  0  0  0
    1.6940   -4.3570   44.6920 C   0  0  0  0  0  0  0  0  0  0  0  0
    3.3760   -2.9060   43.6760 C   0  0  0  0  0  0  0  0  0  0  0  0
    3.0000   -3.8460   44.6480 C   0  0  0  0  0  0  0  0  0  0  0  0
    2.4220   -2.4680   42.7450 C   0  0  0  0  0  0  0  0  0  0  0  0
    1.1170   -2.9750   42.7770 C   0  0  0  0  0  0  0  0  0  0  0  0
    0.7580   -3.9190   43.7470 C   0  0  0  0  0  0  0  0  0  0  0  0
    4.7810   -2.3520   43.6520 C   0  0  0  0  0  0  0  0  0  0  0  0
    4.8660   -0.8890   44.0160 C   0  0  0  0  0  0  0  0  0  0  0  0
    4.9360    0.0740   43.2720 O   0  0  0  0  0  0  0  0  0  0  0  0
    4.8600   -0.7060   45.3550 O   0  0  0  0  0  0  0  0  0  0  0  0
    0.0820   -2.5420   41.8060 C   0  0  0  0  0  0  0  0  0  0  0  0
   -0.2650   -1.3940   41.5970 O   0  0  0  0  0  0  0  0  0  0  0  0
   -0.4790   -3.5700   41.1430 O   0  0  0  0  0  0  0  0  0  0  0  0
    1.2560   -6.7950   45.1410 C   0  0  0  0  0  0  0  0  0  0  0  0
   -0.0470   -7.5730   45.4050 C   0  0  2  0  0  0  0  0  0  0  0  0
   -1.1210   -7.4610   44.3010 C   0  0  0  0  0  0  0  0  0  0  0  0
   -2.5380   -7.8580   44.7350 C   0  0  0  0  0  0  0  0  0  0  0  0
   -3.4640   -8.2120   43.5820 C   0  0  0  0  0  0  0  0  0  0  0  0
   -0.6540   -7.1680   46.7330 C   0  0  0  0  0  0  0  0  0  0  0  0
   -0.7070   -7.9670   47.8070 C   0  0  0  0  0  0  0  0  0  0  0  0
  1  2  1  0
  1 15  1  0
  2  7  2  0
  2  4  1  0
  3  5  1  0
  3  8  1  0
  3  4  2  0
  5  6  2  0
  6 12  1  0
  6  7  1  0
  8  9  1  0
  9 10  2  0
  9 11  1  0
 12 14  1  0
 12 13  2  0
 16 15  1  6
 16 17  1  0
 16 20  1  0
 17 18  1  0
 18 19  1  0
 20 21  2  0
M  END
>  <vina_dock>  (17) 
-7.659

$$$$
O14757_PocketFlow_idx-in-all-generaetd-367
     RDKit          3D

 15 15  0  0  0  0  0  0  0  0999 V2000
    0.9190   -6.0600   44.5910 C   0  0  0  0  0  0  0  0  0  0  0  0
    1.0000   -4.7030   44.2590 C   0  0  0  0  0  0  0  0  0  0  0  0
    2.2310   -4.0430   44.2680 C   0  0  0  0  0  0  0  0  0  0  0  0
    3.4060   -4.7290   44.6010 C   0  0  0  0  0  0  0  0  0  0  0  0
    3.3240   -6.0870   44.9370 C   0  0  0  0  0  0  0  0  0  0  0  0
    2.0920   -6.7480   44.9270 C   0  0  0  0  0  0  0  0  0  0  0  0
   -0.4050   -6.7750   44.5610 C   0  0  0  0  0  0  0  0  0  0  0  0
   -0.9420   -7.0530   45.9620 C   0  0  0  0  0  0  0  0  0  0  0  0
   -1.3580   -5.8390   46.5800 O   0  0  0  0  0  0  0  0  0  0  0  0
    4.7320   -4.0080   44.6240 C   0  0  0  0  0  0  0  0  0  0  0  0
    4.7140   -2.8130   45.5360 C   0  0  0  0  0  0  0  0  0  0  0  0
    5.0800   -1.5530   45.2420 C   0  0  0  0  0  0  0  0  0  0  0  0
    5.5480   -1.0240   43.9160 C   0  0  0  0  0  0  0  0  0  0  0  0
    4.4060   -0.4600   43.1230 C   0  0  0  0  0  0  0  0  0  0  0  0
    3.5360   -1.2000   42.4240 C   0  0  0  0  0  0  0  0  0  0  0  0
  1  2  2  0
  1  7  1  0
  1  6  1  0
  2  3  1  0
  3  4  2  0
  4 10  1  0
  4  5  1  0
  5  6  2  0
  7  8  1  0
  8  9  1  0
 10 11  1  0
 11 12  2  3
 12 13  1  0
 13 14  1  0
 14 15  2  0
M  END
>  <vina_dock>  (18) 
-6.346

$$$$
O14757_PocketFlow_idx-in-all-generaetd-135
     RDKit          3D

 30 31  0  0  0  0  0  0  0  0999 V2000
    3.5430   -5.3780   45.7900 C   0  0  0  0  0  0  0  0  0  0  0  0
    3.7620   -3.9200   45.5180 C   0  0  0  0  0  0  0  0  0  0  0  0
    4.7400   -3.1220   45.9950 C   0  0  0  0  0  0  0  0  0  0  0  0
    5.7570   -3.6100   46.9650 C   0  0  0  0  0  0  0  0  0  0  0  0
    6.9360   -3.9990   46.4080 N   0  0  0  0  0  0  0  0  0  0  0  0
    5.5520   -3.6970   48.1660 O   0  0  0  0  0  0  0  0  0  0  0  0
    4.8450   -1.6630   45.6280 C   0  0  0  0  0  0  0  0  0  0  0  0
    5.7040   -1.4320   44.4130 C   0  0  0  0  0  0  0  0  0  0  0  0
    5.2880   -1.1890   43.1570 C   0  0  0  0  0  0  0  0  0  0  0  0
    3.8900   -1.0950   42.7320 C   0  0  0  0  0  0  0  0  0  0  0  0
    3.0880   -2.2430   42.7280 C   0  0  0  0  0  0  0  0  0  0  0  0
    3.3490    0.1230   42.3110 C   0  0  0  0  0  0  0  0  0  0  0  0
    1.7470   -2.1800   42.3180 C   0  0  0  0  0  0  0  0  0  0  0  0
    2.0150    0.1990   41.9130 C   0  0  0  0  0  0  0  0  0  0  0  0
    1.2180   -0.9480   41.9140 C   0  0  0  0  0  0  0  0  0  0  0  0
    0.8880   -3.4190   42.3230 C   0  0  0  0  0  0  0  0  0  0  0  0
   -0.1080   -3.4380   41.1710 C   0  0  0  0  0  0  0  0  0  0  0  0
    2.9670   -6.1940   44.6590 C   0  0  0  0  0  0  0  0  0  0  0  0
    1.9800   -7.1060   44.5970 C   0  0  0  0  0  0  0  0  0  0  0  0
    1.1100   -7.5740   45.6860 C   0  0  0  0  0  0  0  0  0  0  0  0
    1.3360   -8.8070   46.3500 C   0  0  0  0  0  0  0  0  0  0  0  0
    0.0430   -6.7450   46.0690 C   0  0  0  0  0  0  0  0  0  0  0  0
    0.4830   -9.1390   47.4140 C   0  0  0  0  0  0  0  0  0  0  0  0
   -0.8130   -7.1220   47.1010 C   0  0  0  0  0  0  0  0  0  0  0  0
   -0.5910   -8.3170   47.7730 C   0  0  0  0  0  0  0  0  0  0  0  0
    2.4600   -9.5820   46.0170 N   0  0  0  0  0  0  0  0  0  0  0  0
    3.4310   -9.9520   47.0290 C   0  0  0  0  0  0  0  0  0  0  0  0
    4.3330   -8.7670   47.2130 C   0  0  0  0  0  0  0  0  0  0  0  0
    4.8450   -8.2810   48.3570 C   0  0  0  0  0  0  0  0  0  0  0  0
    4.6210   -8.7840   49.7480 C   0  0  0  0  0  0  0  0  0  0  0  0
  1 18  1  0
  1  2  1  0
  2  3  2  3
  3  7  1  0
  3  4  1  0
  4  5  1  0
  4  6  2  0
  7  8  1  0
  8  9  2  3
  9 10  1  0
 10 12  1  0
 10 11  2  0
 11 13  1  0
 12 14  2  0
 13 15  2  0
 13 16  1  0
 14 15  1  0
 16 17  1  0
 18 19  2  3
 19 20  1  0
 20 22  1  0
 20 21  2  0
 21 26  1  0
 21 23  1  0
 22 24  2  0
 23 25  2  0
 24 25  1  0
 26 27  1  0
 27 28  1  0
 28 29  2  3
 29 30  1  0
M  END
>  <vina_dock>  (19) 
-8.125

$$$$
O14757_PocketFlow_idx-in-all-generaetd-369
     RDKit          3D

 24 28  0  0  0  0  0  0  0  0999 V2000
    4.5680   -1.0800   43.1240 C   0  0  0  0  0  0  0  0  0  0  0  0
    3.2640   -1.2770   42.6430 C   0  0  0  0  0  0  0  0  0  0  0  0
    2.6740   -0.3750   41.7360 C   0  0  0  0  0  0  0  0  0  0  0  0
    5.1440   -1.9700   44.0180 C   0  0  0  0  0  0  0  0  0  0  0  0
    4.4180   -3.0810   44.4480 C   0  0  0  0  0  0  0  0  0  0  0  0
    3.1050   -3.3330   44.0000 C   0  0  0  0  0  0  0  0  0  0  0  0
    2.5260   -2.4120   43.0830 C   0  0  0  0  0  0  0  0  0  0  0  0
    2.3260   -4.5190   44.4580 C   0  0  0  0  0  0  0  0  0  0  0  0
    2.8280   -5.4750   45.3600 C   0  0  0  0  0  0  0  0  0  0  0  0
    1.0180   -4.7240   43.9830 C   0  0  0  0  0  0  0  0  0  0  0  0
    0.2590   -5.8380   44.4040 C   0  0  0  0  0  0  0  0  0  0  0  0
    0.7710   -6.7810   45.3030 C   0  0  0  0  0  0  0  0  0  0  0  0
    2.0700   -6.5810   45.7730 C   0  0  0  0  0  0  0  0  0  0  0  0
    1.3820   -0.5700   41.2580 C   0  0  0  0  0  0  0  0  0  0  0  0
    0.6570   -1.6730   41.6820 C   0  0  0  0  0  0  0  0  0  0  0  0
    1.2160   -2.5920   42.5880 C   0  0  0  0  0  0  0  0  0  0  0  0
    0.3750   -3.7700   43.0070 C   0  0  0  0  0  0  0  0  0  0  0  0
    5.2870    0.0110   42.7050 O   0  0  0  0  0  0  0  0  0  0  0  0
   -0.0290   -7.9390   45.7340 C   0  0  0  0  0  0  0  0  0  0  0  0
   -1.3850   -8.0530   45.3840 C   0  0  0  0  0  0  0  0  0  0  0  0
    0.5400   -8.9640   46.5080 C   0  0  0  0  0  0  0  0  0  0  0  0
   -2.1460   -9.1510   45.7940 C   0  0  0  0  0  0  0  0  0  0  0  0
   -0.2190  -10.0640   46.9170 C   0  0  0  0  0  0  0  0  0  0  0  0
   -1.5620  -10.1570   46.5600 C   0  0  0  0  0  0  0  0  0  0  0  0
  1  2  2  0
  1 18  1  0
  1  4  1  0
  2  3  1  0
  2  7  1  0
  3 14  2  0
  4  5  2  0
  5  6  1  0
  6  7  2  0
  6  8  1  0
  7 16  1  0
  8 10  1  0
  8  9  2  0
  9 13  1  0
 10 17  2  0
 10 11  1  0
 11 12  1  0
 12 19  1  0
 12 13  2  0
 14 15  1  0
 15 16  2  0
 16 17  1  0
 19 20  2  0
 19 21  1  0
 20 22  1  0
 21 23  2  0
 22 24  2  0
 23 24  1  0
M  END
>  <vina_dock>  (20) 
-10.739

$$$$
O14757_PocketFlow_idx-in-all-generaetd-83
     RDKit          3D

 35 38  0  0  0  0  0  0  0  0999 V2000
    3.6820   -4.1580   44.3710 C   0  0  0  0  0  0  0  0  0  0  0  0
    2.6600   -3.3800   43.5610 C   0  0  0  0  0  0  0  0  0  0  0  0
    0.8790   -1.8170   42.0150 C   0  0  0  0  0  0  0  0  0  0  0  0
    2.2470   -1.5410   42.0070 C   0  0  0  0  0  0  0  0  0  0  0  0
    0.4110   -2.8880   42.7890 C   0  0  0  0  0  0  0  0  0  0  0  0
    3.1240   -2.3100   42.7720 C   0  0  0  0  0  0  0  0  0  0  0  0
    1.2800   -3.6800   43.5680 C   0  0  0  0  0  0  0  0  0  0  0  0
   -0.0770   -0.9990   41.1810 C   0  0  0  0  0  0  0  0  0  0  0  0
   -1.5170   -1.4360   41.2920 C   0  0  0  0  0  0  0  0  0  0  0  0
   -2.4860   -0.7810   41.6380 O   0  0  0  0  0  0  0  0  0  0  0  0
   -1.6720   -2.7360   40.9580 O   0  0  0  0  0  0  0  0  0  0  0  0
    0.7010   -4.7850   44.3450 C   0  0  0  0  0  0  0  0  0  0  0  0
    0.3030   -5.9770   43.7210 C   0  0  0  0  0  0  0  0  0  0  0  0
    0.5180   -4.6620   45.7300 C   0  0  0  0  0  0  0  0  0  0  0  0
   -0.2380   -7.0310   44.4660 C   0  0  0  0  0  0  0  0  0  0  0  0
   -0.0210   -5.7110   46.4790 C   0  0  0  0  0  0  0  0  0  0  0  0
   -0.3940   -6.9030   45.8500 C   0  0  0  0  0  0  0  0  0  0  0  0
   -0.9320   -7.9990   46.6890 C   0  0  0  0  0  0  0  0  0  0  0  0
   -0.5800   -9.1640   46.6540 O   0  0  0  0  0  0  0  0  0  0  0  0
   -1.8920   -7.5860   47.5360 O   0  0  0  0  0  0  0  0  0  0  0  0
    4.0320   -3.5190   45.7240 C   0  0  0  0  0  0  0  0  0  0  0  0
    5.4460   -2.9960   45.8060 C   0  0  0  0  0  0  0  0  0  0  0  0
    6.3530   -3.5510   46.7250 C   0  0  0  0  0  0  0  0  0  0  0  0
    5.8660   -1.9480   44.9800 C   0  0  0  0  0  0  0  0  0  0  0  0
    7.6680   -3.0710   46.8320 C   0  0  0  0  0  0  0  0  0  0  0  0
    7.1700   -1.4680   45.0640 C   0  0  0  0  0  0  0  0  0  0  0  0
    8.0630   -2.0230   45.9820 C   0  0  0  0  0  0  0  0  0  0  0  0
    8.6820   -3.6280   47.8320 C   0  0  1  0  0  0  0  0  0  0  0  0
    8.1800   -3.7660   49.2770 C   0  0  0  0  0  0  0  0  0  0  0  0
    9.2950   -4.9510   47.3810 C   0  0  0  0  0  0  0  0  0  0  0  0
   10.2060   -4.9720   46.3130 C   0  0  0  0  0  0  0  0  0  0  0  0
    8.9880   -6.1580   48.0280 C   0  0  0  0  0  0  0  0  0  0  0  0
   10.7870   -6.1730   45.8980 C   0  0  0  0  0  0  0  0  0  0  0  0
    9.5690   -7.3570   47.6110 C   0  0  0  0  0  0  0  0  0  0  0  0
   10.4680   -7.3630   46.5470 C   0  0  0  0  0  0  0  0  0  0  0  0
  1  2  1  0
  1 21  1  0
  2  6  2  0
  2  7  1  0
  3  8  1  0
  3  4  2  0
  3  5  1  0
  4  6  1  0
  5  7  2  0
  7 12  1  0
  8  9  1  0
  9 11  1  0
  9 10  2  0
 12 13  2  0
 12 14  1  0
 13 15  1  0
 14 16  2  0
 15 17  2  0
 16 17  1  0
 17 18  1  0
 18 19  2  0
 18 20  1  0
 21 22  1  0
 22 24  1  0
 22 23  2  0
 23 25  1  0
 24 26  2  0
 25 27  2  0
 25 28  1  0
 26 27  1  0
 28 30  1  0
 28 29  1  1
 30 31  2  0
 30 32  1  0
 31 33  1  0
 32 34  2  0
 33 35  2  0
 34 35  1  0
M  END
>  <vina_dock>  (21) 
-9.32

$$$$
O14757_PocketFlow_idx-in-all-generaetd-268
     RDKit          3D

 22 25  0  0  0  0  0  0  0  0999 V2000
   -0.2080   -2.5110   41.6220 C   0  0  0  0  0  0  0  0  0  0  0  0
    0.5030   -1.4510   41.0640 C   0  0  0  0  0  0  0  0  0  0  0  0
    1.7990   -1.1560   41.4940 C   0  0  0  0  0  0  0  0  0  0  0  0
    2.4080   -1.9230   42.4980 C   0  0  0  0  0  0  0  0  0  0  0  0
    3.7090   -1.6420   42.9430 C   0  0  0  0  0  0  0  0  0  0  0  0
    4.3210   -2.4100   43.9480 C   0  0  0  0  0  0  0  0  0  0  0  0
    0.3900   -3.2810   42.6230 C   0  0  0  0  0  0  0  0  0  0  0  0
    1.6950   -2.9980   43.0700 C   0  0  0  0  0  0  0  0  0  0  0  0
    5.6250   -2.1310   44.3950 C   0  0  0  0  0  0  0  0  0  0  0  0
    6.2420   -2.8940   45.4020 C   0  0  0  0  0  0  0  0  0  0  0  0
    5.5180   -3.9560   45.9590 C   0  0  0  0  0  0  0  0  0  0  0  0
    4.2210   -4.2480   45.5260 C   0  0  0  0  0  0  0  0  0  0  0  0
    3.6100   -3.4840   44.5210 C   0  0  0  0  0  0  0  0  0  0  0  0
    2.3080   -3.7650   44.0750 C   0  0  0  0  0  0  0  0  0  0  0  0
   -1.4640   -2.6890   41.1100 O   0  0  0  0  0  0  0  0  0  0  0  0
   -2.2780   -1.5310   40.9790 C   0  0  0  0  0  0  0  0  0  0  0  0
    7.6080   -2.5870   45.8560 C   0  0  0  0  0  0  0  0  0  0  0  0
    8.4300   -3.5850   46.4040 C   0  0  0  0  0  0  0  0  0  0  0  0
    8.1290   -1.2850   45.7550 C   0  0  0  0  0  0  0  0  0  0  0  0
    9.7270   -3.2940   46.8360 C   0  0  0  0  0  0  0  0  0  0  0  0
    9.4260   -0.9930   46.1850 C   0  0  0  0  0  0  0  0  0  0  0  0
   10.2240   -1.9980   46.7260 C   0  0  0  0  0  0  0  0  0  0  0  0
  1  2  2  0
  1 15  1  0
  1  7  1  0
  2  3  1  0
  3  4  2  0
  4  5  1  0
  4  8  1  0
  5  6  2  0
  6  9  1  0
  6 13  1  0
  7  8  2  0
  8 14  1  0
  9 10  2  0
 10 17  1  0
 10 11  1  0
 11 12  2  0
 12 13  1  0
 13 14  2  0
 15 16  1  0
 17 19  1  0
 17 18  2  0
 18 20  1  0
 19 21  2  0
 20 22  2  0
 21 22  1  0
M  END
>  <vina_dock>  (22) 
-9.741

$$$$
O14757_PocketFlow_idx-in-all-generaetd-782
     RDKit          3D

 12 12  0  0  0  0  0  0  0  0999 V2000
    1.5500   -4.0500   44.1220 C   0  0  0  0  0  0  0  0  0  0  0  0
    0.7540   -5.1280   44.8260 C   0  0  0  0  0  0  0  0  0  0  0  0
    0.7220   -5.2670   46.0440 O   0  0  0  0  0  0  0  0  0  0  0  0
    0.0630   -5.9400   43.9500 N   0  0  0  0  0  0  0  0  0  0  0  0
   -0.6830   -7.0780   44.4230 C   0  0  0  0  0  0  0  0  0  0  0  0
    3.0530   -4.2930   44.2360 C   0  0  0  0  0  0  0  0  0  0  0  0
    3.8330   -3.0250   43.9870 C   0  0  0  0  0  0  0  0  0  0  0  0
    5.0290   -2.7810   44.6750 C   0  0  0  0  0  0  0  0  0  0  0  0
    3.3890   -2.0910   43.0420 C   0  0  0  0  0  0  0  0  0  0  0  0
    5.7610   -1.6190   44.4270 C   0  0  0  0  0  0  0  0  0  0  0  0
    4.1220   -0.9290   42.7970 C   0  0  0  0  0  0  0  0  0  0  0  0
    5.3080   -0.6930   43.4900 C   0  0  0  0  0  0  0  0  0  0  0  0
  1  6  1  0
  1  2  1  0
  2  4  1  0
  2  3  2  0
  4  5  1  0
  6  7  1  0
  7  9  2  0
  7  8  1  0
  8 10  2  0
  9 11  1  0
 10 12  1  0
 11 12  2  0
M  END
>  <vina_dock>  (23) 
-6.051

$$$$
O14757_PocketFlow_idx-in-all-generaetd-517
     RDKit          3D

 22 21  0  0  0  0  0  0  0  0999 V2000
    3.0090   -3.1160   43.8860 C   0  0  0  0  0  0  0  0  0  0  0  0
    2.5530   -3.9180   44.8960 C   0  0  0  0  0  0  0  0  0  0  0  0
    4.4550   -2.6890   43.7260 C   0  0  0  0  0  0  0  0  0  0  0  0
    2.1510   -2.5810   42.7430 C   0  0  0  0  0  0  0  0  0  0  0  0
    2.6730   -1.3250   42.0350 C   0  0  0  0  0  0  0  0  0  0  0  0
    1.5710   -0.4610   41.4200 C   0  0  0  0  0  0  0  0  0  0  0  0
    0.2000   -1.0920   41.6110 C   0  0  0  0  0  0  0  0  0  0  0  0
    3.4430   -4.4750   46.0380 C   0  0  1  0  0  0  0  0  0  0  0  0
    4.0900   -5.8160   45.7120 C   0  0  0  0  0  0  0  0  0  0  0  0
    3.7060   -7.0340   46.1230 C   0  0  0  0  0  0  0  0  0  0  0  0
    4.4600   -3.4090   46.5410 C   0  0  0  0  0  0  0  0  0  0  0  0
    5.8720   -3.9540   46.8310 C   0  0  2  0  0  0  0  0  0  0  0  0
    6.0790   -4.1500   48.3310 C   0  0  0  0  0  0  0  0  0  0  0  0
    7.1500   -2.8650   46.2210 Cl  0  0  0  0  0  0  0  0  0  0  0  0
    1.0990   -4.3990   45.0380 C   0  0  0  0  0  0  0  0  0  0  0  0
    0.8290   -4.8070   46.3080 F   0  0  0  0  0  0  0  0  0  0  0  0
    0.2450   -3.3520   44.8300 F   0  0  0  0  0  0  0  0  0  0  0  0
    0.7380   -5.5220   44.0680 C   0  0  2  0  0  0  0  0  0  0  0  0
    0.0120   -5.0310   43.0170 F   0  0  0  0  0  0  0  0  0  0  0  0
   -0.0900   -6.5630   44.7850 C   0  0  0  0  0  0  0  0  0  0  0  0
   -0.9990   -7.0840   43.9130 F   0  0  0  0  0  0  0  0  0  0  0  0
    0.6780   -7.6090   45.1770 F   0  0  0  0  0  0  0  0  0  0  0  0
  1  4  1  0
  1  3  1  0
  1  2  2  3
  2 15  1  0
  2  8  1  0
  4  5  1  0
  5  6  1  0
  6  7  1  0
  8  9  1  0
  8 11  1  6
  9 10  2  0
 11 12  1  0
 12 14  1  0
 12 13  1  1
 15 18  1  0
 15 17  1  0
 15 16  1  0
 18 19  1  6
 18 20  1  0
 20 21  1  0
 20 22  1  0
M  END
>  <vina_dock>  (24) 
-6.418

$$$$
O14757_PocketFlow_idx-in-all-generaetd-540
     RDKit          3D

 14 15  0  0  0  0  0  0  0  0999 V2000
    4.3780   -1.5460   43.3970 C   0  0  0  0  0  0  0  0  0  0  0  0
    4.7830   -0.4360   42.7500 C   0  0  0  0  0  0  0  0  0  0  0  0
    5.2920   -2.1430   44.4040 C   0  0  0  0  0  0  0  0  0  0  0  0
    7.4130   -2.0950   45.5910 C   0  0  0  0  0  0  0  0  0  0  0  0
    7.0320   -3.2120   46.3320 C   0  0  0  0  0  0  0  0  0  0  0  0
    6.5460   -1.5620   44.6340 C   0  0  0  0  0  0  0  0  0  0  0  0
    5.7830   -3.7930   46.1220 C   0  0  0  0  0  0  0  0  0  0  0  0
    4.9150   -3.2590   45.1650 C   0  0  0  0  0  0  0  0  0  0  0  0
    3.0410   -2.1010   43.0640 C   0  0  0  0  0  0  0  0  0  0  0  0
    2.3290   -1.5880   41.9700 C   0  0  0  0  0  0  0  0  0  0  0  0
    2.4820   -3.1600   43.7960 C   0  0  0  0  0  0  0  0  0  0  0  0
    1.0790   -2.1080   41.6270 C   0  0  0  0  0  0  0  0  0  0  0  0
    1.2320   -3.6810   43.4510 C   0  0  0  0  0  0  0  0  0  0  0  0
    0.5310   -3.1530   42.3690 C   0  0  0  0  0  0  0  0  0  0  0  0
  1  2  2  0
  1  9  1  0
  1  3  1  0
  3  6  1  0
  3  8  2  0
  4  6  2  0
  4  5  1  0
  5  7  2  0
  7  8  1  0
  9 10  2  0
  9 11  1  0
 10 12  1  0
 11 13  2  0
 12 14  2  0
 13 14  1  0
M  END
>  <vina_dock>  (25) 
-7.592

$$$$
O14757_PocketFlow_idx-in-all-generaetd-507
     RDKit          3D

 21 23  0  0  0  0  0  0  0  0999 V2000
    3.6430   -6.3860   45.0850 C   0  0  0  0  0  0  0  0  0  0  0  0
    2.3160   -7.0480   45.3680 C   0  0  0  0  0  0  0  0  0  0  0  0
    1.1270   -6.7560   44.8170 C   0  0  0  0  0  0  0  0  0  0  0  0
   -0.1180   -7.4700   45.1290 C   0  0  0  0  0  0  0  0  0  0  0  0
   -2.3620   -8.1950   44.6240 C   0  0  0  0  0  0  0  0  0  0  0  0
   -3.7410   -8.2000   43.6010 Cl  0  0  0  0  0  0  0  0  0  0  0  0
   -1.2280   -7.4650   44.2780 C   0  0  0  0  0  0  0  0  0  0  0  0
   -2.3520   -8.9190   45.8060 C   0  0  0  0  0  0  0  0  0  0  0  0
   -1.2940   -8.9630   46.6500 N   0  0  0  0  0  0  0  0  0  0  0  0
   -0.2050   -8.2400   46.2880 C   0  0  0  0  0  0  0  0  0  0  0  0
    3.8740   -4.9430   45.5700 C   0  0  0  0  0  0  0  0  0  0  0  0
    3.5400   -3.8280   44.6010 C   0  0  0  0  0  0  0  0  0  0  0  0
    2.2910   -3.7360   43.9690 C   0  0  0  0  0  0  0  0  0  0  0  0
    4.5210   -2.8820   44.2810 C   0  0  0  0  0  0  0  0  0  0  0  0
    2.0030   -2.7000   43.0610 C   0  0  0  0  0  0  0  0  0  0  0  0
    4.2520   -1.8480   43.3810 C   0  0  0  0  0  0  0  0  0  0  0  0
    0.7480   -2.5970   42.4400 C   0  0  0  0  0  0  0  0  0  0  0  0
    2.9980   -1.7410   42.7660 C   0  0  0  0  0  0  0  0  0  0  0  0
    0.4760   -1.5620   41.5430 C   0  0  0  0  0  0  0  0  0  0  0  0
    2.7100   -0.7070   41.8610 C   0  0  0  0  0  0  0  0  0  0  0  0
    1.4570   -0.6180   41.2540 C   0  0  0  0  0  0  0  0  0  0  0  0
  1  2  1  0
  1 11  1  0
  2  3  2  3
  3  4  1  0
  4  7  1  0
  4 10  2  0
  5  6  1  0
  5  7  2  0
  5  8  1  0
  8  9  2  0
  9 10  1  0
 11 12  1  0
 12 13  2  0
 12 14  1  0
 13 15  1  0
 14 16  2  0
 15 17  2  0
 15 18  1  0
 16 18  1  0
 17 19  1  0
 18 20  2  0
 19 21  2  0
 20 21  1  0
M  END
>  <vina_dock>  (26) 
-8.749

$$$$
O14757_PocketFlow_idx-in-all-generaetd-613
     RDKit          3D

  6  6  0  0  0  0  0  0  0  0999 V2000
    4.0230   -1.0360   42.7480 C   0  0  0  0  0  0  0  0  0  0  0  0
    3.4320   -2.2480   43.1080 C   0  0  0  0  0  0  0  0  0  0  0  0
    5.2230   -0.6440   43.3390 C   0  0  0  0  0  0  0  0  0  0  0  0
    4.0430   -3.0660   44.0580 C   0  0  0  0  0  0  0  0  0  0  0  0
    5.2440   -2.6730   44.6490 C   0  0  0  0  0  0  0  0  0  0  0  0
    5.8340   -1.4620   44.2890 C   0  0  0  0  0  0  0  0  0  0  0  0
  1  2  2  0
  1  3  1  0
  2  4  1  0
  3  6  2  0
  4  5  2  0
  5  6  1  0
M  END
>  <vina_dock>  (27) 
-3.967

$$$$
O14757_PocketFlow_idx-in-all-generaetd-596
     RDKit          3D

 29 31  0  0  0  0  0  0  0  0999 V2000
    4.5590   -2.0720   44.7180 C   0  0  0  0  0  0  0  0  0  0  0  0
    4.6910   -1.7290   43.2280 C   0  0  0  0  0  0  0  0  0  0  0  0
    3.3490   -1.4060   42.6170 C   0  0  0  0  0  0  0  0  0  0  0  0
    1.1600   -2.1280   41.8130 C   0  0  0  0  0  0  0  0  0  0  0  0
    0.8720   -0.8040   41.4490 C   0  0  0  0  0  0  0  0  0  0  0  0
    2.4010   -2.4170   42.4010 C   0  0  0  0  0  0  0  0  0  0  0  0
    1.8120    0.2050   41.6530 C   0  0  0  0  0  0  0  0  0  0  0  0
    3.0450   -0.0940   42.2310 C   0  0  0  0  0  0  0  0  0  0  0  0
    0.1370   -3.2190   41.6090 C   0  0  0  0  0  0  0  0  0  0  0  0
   -1.1440   -2.7550   41.6020 F   0  0  0  0  0  0  0  0  0  0  0  0
    0.3030   -3.8710   40.4260 F   0  0  0  0  0  0  0  0  0  0  0  0
    0.1760   -4.1800   42.5750 F   0  0  0  0  0  0  0  0  0  0  0  0
    4.9240   -3.5470   45.0230 C   0  0  1  0  0  0  0  0  0  0  0  0
    5.7970   -3.7320   46.2660 C   0  0  0  0  0  0  0  0  0  0  0  0
    7.1490   -3.3450   46.2100 C   0  0  0  0  0  0  0  0  0  0  0  0
    5.3190   -4.2980   47.4570 C   0  0  0  0  0  0  0  0  0  0  0  0
    7.9890   -3.5050   47.3130 C   0  0  0  0  0  0  0  0  0  0  0  0
    6.1620   -4.4580   48.5620 C   0  0  0  0  0  0  0  0  0  0  0  0
    7.4940   -4.0600   48.4900 C   0  0  0  0  0  0  0  0  0  0  0  0
    3.6870   -4.4410   45.0680 C   0  0  0  0  0  0  0  0  0  0  0  0
    2.4620   -3.9710   45.5640 C   0  0  0  0  0  0  0  0  0  0  0  0
    3.7620   -5.7640   44.6070 C   0  0  0  0  0  0  0  0  0  0  0  0
    1.3390   -4.8010   45.5950 C   0  0  0  0  0  0  0  0  0  0  0  0
    2.6390   -6.5940   44.6360 C   0  0  0  0  0  0  0  0  0  0  0  0
    1.4130   -6.1220   45.1280 C   0  0  0  0  0  0  0  0  0  0  0  0
    0.2010   -7.0250   45.1750 C   0  0  0  0  0  0  0  0  0  0  0  0
    0.5210   -8.3160   45.4790 F   0  0  0  0  0  0  0  0  0  0  0  0
   -0.4550   -7.0860   43.9810 F   0  0  0  0  0  0  0  0  0  0  0  0
   -0.9400   -6.4300   46.4090 Cl  0  0  0  0  0  0  0  0  0  0  0  0
  1  2  1  0
 13  1  1  1
  2  3  1  0
  3  8  1  0
  3  6  2  0
  4  5  2  0
  4  9  1  0
  4  6  1  0
  5  7  1  0
  7  8  2  0
  9 11  1  0
  9 10  1  0
  9 12  1  0
 13 20  1  0
 13 14  1  0
 14 15  2  0
 14 16  1  0
 15 17  1  0
 16 18  2  0
 17 19  2  0
 18 19  1  0
 20 22  1  0
 20 21  2  0
 21 23  1  0
 22 24  2  0
 23 25  2  0
 24 25  1  0
 25 26  1  0
 26 28  1  0
 26 27  1  0
 26 29  1  0
M  END
>  <vina_dock>  (28) 
-9.984

$$$$
O14757_PocketFlow_idx-in-all-generaetd-272
     RDKit          3D

 34 37  0  0  0  0  0  0  0  0999 V2000
   -1.4150   -8.9660   48.3740 C   0  0  2  0  0  0  0  0  0  0  0  0
   -1.8260   -8.6810   46.9380 C   0  0  0  0  0  0  0  0  0  0  0  0
   -3.4050   -8.9040   45.1050 C   0  0  0  0  0  0  0  0  0  0  0  0
   -2.5540   -8.1700   44.2870 C   0  0  0  0  0  0  0  0  0  0  0  0
   -3.0420   -9.1630   46.4250 C   0  0  0  0  0  0  0  0  0  0  0  0
   -2.9240   -7.9320   43.0220 F   0  0  0  0  0  0  0  0  0  0  0  0
   -1.3350   -7.6800   44.7610 C   0  0  0  0  0  0  0  0  0  0  0  0
   -0.9790   -7.9400   46.0950 C   0  0  0  0  0  0  0  0  0  0  0  0
   -0.4150   -6.9090   43.8460 C   0  0  0  0  0  0  0  0  0  0  0  0
    0.7870   -6.3040   44.5280 C   0  0  0  0  0  0  0  0  0  0  0  0
    0.7270   -5.0540   45.1360 C   0  0  0  0  0  0  0  0  0  0  0  0
    1.9500   -7.0020   44.4910 N   0  0  0  0  0  0  0  0  0  0  0  0
    1.7890   -4.4680   45.7370 N   0  0  0  0  0  0  0  0  0  0  0  0
    3.0130   -6.4200   45.0970 C   0  0  0  0  0  0  0  0  0  0  0  0
    2.9470   -5.1770   45.7140 C   0  0  0  0  0  0  0  0  0  0  0  0
    4.1520   -4.5810   46.3970 C   0  0  0  0  0  0  0  0  0  0  0  0
    4.8190   -3.4690   45.6180 C   0  0  0  0  0  0  0  0  0  0  0  0
    4.2060   -2.9410   44.4720 C   0  0  0  0  0  0  0  0  0  0  0  0
    6.0540   -2.9480   46.0280 C   0  0  0  0  0  0  0  0  0  0  0  0
    4.8190   -1.9170   43.7490 C   0  0  0  0  0  0  0  0  0  0  0  0
    6.6650   -1.9230   45.3030 C   0  0  0  0  0  0  0  0  0  0  0  0
    6.0470   -1.4070   44.1640 C   0  0  0  0  0  0  0  0  0  0  0  0
    0.0440   -9.4590   48.4420 C   0  0  0  0  0  0  0  0  0  0  0  0
    0.5640   -9.5280   49.8850 C   0  0  0  0  0  0  0  0  0  0  0  0
    1.8100  -10.4120   50.0290 C   0  0  0  0  0  0  0  0  0  0  0  0
    2.7760  -10.3760   48.8380 C   0  0  0  0  0  0  0  0  0  0  0  0
    3.8290   -9.3030   48.9530 C   0  0  0  0  0  0  0  0  0  0  0  0
    4.2720   -8.8760   50.2120 C   0  0  0  0  0  0  0  0  0  0  0  0
    4.3920   -8.7280   47.8060 C   0  0  0  0  0  0  0  0  0  0  0  0
    5.2560   -7.8920   50.3220 C   0  0  0  0  0  0  0  0  0  0  0  0
    5.3780   -7.7460   47.9180 C   0  0  0  0  0  0  0  0  0  0  0  0
    5.8090   -7.3280   49.1740 C   0  0  0  0  0  0  0  0  0  0  0  0
   -2.3960   -9.9400   49.0150 C   0  0  0  0  0  0  0  0  0  0  0  0
   -2.9290   -9.7800   50.1090 O   0  0  0  0  0  0  0  0  0  0  0  0
  1  2  1  0
  1 23  1  6
  1 33  1  0
  2  8  1  0
  2  5  2  0
  3  4  2  0
  3  5  1  0
  4  6  1  0
  4  7  1  0
  7  9  1  0
  7  8  2  0
  9 10  1  0
 10 12  1  0
 10 11  2  0
 11 13  1  0
 12 14  2  0
 13 15  2  0
 14 15  1  0
 15 16  1  0
 16 17  1  0
 17 18  2  0
 17 19  1  0
 18 20  1  0
 19 21  2  0
 20 22  2  0
 21 22  1  0
 23 24  1  0
 24 25  1  0
 25 26  1  0
 26 27  1  0
 27 29  1  0
 27 28  2  0
 28 30  1  0
 29 31  2  0
 30 32  2  0
 31 32  1  0
 33 34  2  0
M  END
>  <vina_dock>  (29) 
-8.511

$$$$
O14757_PocketFlow_idx-in-all-generaetd-149
     RDKit          3D

 22 23  0  0  0  0  0  0  0  0999 V2000
    0.8440   -3.9080   44.3230 C   0  0  0  0  0  0  0  0  0  0  0  0
    0.4700   -5.3640   44.0040 C   0  0  0  0  0  0  0  0  0  0  0  0
    0.5520   -6.3120   45.1850 C   0  0  0  0  0  0  0  0  0  0  0  0
    1.6390   -7.0910   45.3540 C   0  0  0  0  0  0  0  0  0  0  0  0
   -0.6620   -6.3300   46.1010 C   0  0  1  0  0  0  0  0  0  0  0  0
   -1.8680   -7.2640   45.7280 C   0  0  1  0  0  0  0  0  0  0  0  0
   -1.8210   -7.9050   44.3470 C   0  0  0  0  0  0  0  0  0  0  0  0
   -1.8540   -8.2900   46.8390 C   0  0  0  0  0  0  0  0  0  0  0  0
   -0.9280   -7.9740   47.7470 C   0  0  0  0  0  0  0  0  0  0  0  0
   -0.2710   -6.8080   47.4410 N   0  0  0  0  0  0  0  0  0  0  0  0
    1.8770   -3.2750   43.3800 C   0  0  0  0  0  0  0  0  0  0  0  0
    3.2540   -3.0930   43.9740 C   0  0  0  0  0  0  0  0  0  0  0  0
    3.6820   -3.8730   45.0570 C   0  0  0  0  0  0  0  0  0  0  0  0
    4.1190   -2.1160   43.4610 C   0  0  0  0  0  0  0  0  0  0  0  0
    4.9560   -3.6940   45.6020 C   0  0  0  0  0  0  0  0  0  0  0  0
    5.3950   -1.9350   44.0040 C   0  0  0  0  0  0  0  0  0  0  0  0
    5.8140   -2.7180   45.0830 C   0  0  0  0  0  0  0  0  0  0  0  0
    7.1660   -2.5660   45.6920 C   0  0  0  0  0  0  0  0  0  0  0  0
    7.7160   -3.7030   46.2500 N   0  0  0  0  0  0  0  0  0  0  0  0
    7.7420   -1.4850   45.6490 O   0  0  0  0  0  0  0  0  0  0  0  0
    9.0850   -3.6930   46.7240 C   0  0  0  0  0  0  0  0  0  0  0  0
    9.8000   -4.9840   46.3750 C   0  0  0  0  0  0  0  0  0  0  0  0
  1 11  1  0
  1  2  1  0
  2  3  1  0
  3  4  2  0
  5  3  1  6
  5  6  1  0
  5 10  1  0
  6  7  1  6
  6  8  1  0
  8  9  2  0
  9 10  1  0
 11 12  1  0
 12 14  1  0
 12 13  2  0
 13 15  1  0
 14 16  2  0
 15 17  2  0
 16 17  1  0
 17 18  1  0
 18 20  2  0
 18 19  1  0
 19 21  1  0
 21 22  1  0
M  END
>  <vina_dock>  (30) 
-7.786

$$$$
O14757_PocketFlow_idx-in-all-generaetd-81
     RDKit          3D

 16 17  0  0  0  0  0  0  0  0999 V2000
    3.4140   -2.9880   44.1400 C   0  0  0  0  0  0  0  0  0  0  0  0
    2.9720   -2.2560   43.0240 C   0  0  0  0  0  0  0  0  0  0  0  0
    1.6840   -2.4350   42.4890 C   0  0  0  0  0  0  0  0  0  0  0  0
    0.8200   -3.3560   43.0950 C   0  0  0  0  0  0  0  0  0  0  0  0
    1.2400   -4.0920   44.2020 C   0  0  0  0  0  0  0  0  0  0  0  0
    2.5250   -3.9090   44.7170 C   0  0  0  0  0  0  0  0  0  0  0  0
    4.7670   -2.7940   44.6870 C   0  0  0  0  0  0  0  0  0  0  0  0
    5.2800   -3.6540   45.6720 C   0  0  0  0  0  0  0  0  0  0  0  0
    6.5640   -3.4700   46.1920 C   0  0  0  0  0  0  0  0  0  0  0  0
    7.3590   -2.4230   45.7320 C   0  0  0  0  0  0  0  0  0  0  0  0
    5.5840   -1.7430   44.2390 C   0  0  0  0  0  0  0  0  0  0  0  0
    6.8690   -1.5580   44.7550 C   0  0  0  0  0  0  0  0  0  0  0  0
    1.2310   -1.6150   41.3060 C   0  0  0  0  0  0  0  0  0  0  0  0
   -0.1150   -1.3970   41.2940 F   0  0  0  0  0  0  0  0  0  0  0  0
    1.5240   -2.2120   40.1180 F   0  0  0  0  0  0  0  0  0  0  0  0
    1.8050   -0.3800   41.2570 F   0  0  0  0  0  0  0  0  0  0  0  0
  1  2  2  0
  1  7  1  0
  1  6  1  0
  2  3  1  0
  3 13  1  0
  3  4  2  0
  4  5  1  0
  5  6  2  0
  7 11  1  0
  7  8  2  0
  8  9  1  0
  9 10  2  0
 10 12  1  0
 11 12  2  0
 13 15  1  0
 13 16  1  0
 13 14  1  0
M  END
>  <vina_dock>  (31) 
-8.344

$$$$
O14757_PocketFlow_idx-in-all-generaetd-695
     RDKit          3D

 35 36  0  0  0  0  0  0  0  0999 V2000
   -0.0070   -6.6210   43.9580 C   0  0  0  0  0  0  0  0  0  0  0  0
    1.1880   -6.1900   44.8100 C   0  0  0  0  0  0  0  0  0  0  0  0
    1.2950   -4.6730   44.9950 C   0  0  0  0  0  0  0  0  0  0  0  0
    0.7550   -3.8670   43.8090 C   0  0  0  0  0  0  0  0  0  0  0  0
    1.8400   -3.0150   43.1710 C   0  0  0  0  0  0  0  0  0  0  0  0
    3.0810   -3.0000   43.7030 C   0  0  0  0  0  0  0  0  0  0  0  0
    4.2740   -2.2060   43.2390 C   0  0  0  0  0  0  0  0  0  0  0  0
    4.9350   -1.3860   44.3560 C   0  0  0  0  0  0  0  0  0  0  0  0
    5.7630   -2.2040   45.3150 C   0  0  0  0  0  0  0  0  0  0  0  0
    7.4800   -5.4240   48.8490 C   0  0  0  0  0  0  0  0  0  0  0  0
    8.0910   -4.4870   48.0070 C   0  0  0  0  0  0  0  0  0  0  0  0
    6.0950   -5.6030   48.7980 C   0  0  0  0  0  0  0  0  0  0  0  0
    7.3280   -3.7230   47.1100 C   0  0  0  0  0  0  0  0  0  0  0  0
    5.3240   -4.8470   47.9120 C   0  0  0  0  0  0  0  0  0  0  0  0
    7.9260   -2.7850   46.2600 C   0  0  0  0  0  0  0  0  0  0  0  0
    5.9240   -3.9060   47.0620 C   0  0  0  0  0  0  0  0  0  0  0  0
    7.1470   -2.0410   45.3790 C   0  0  0  0  0  0  0  0  0  0  0  0
    5.1590   -3.1400   46.1660 C   0  0  0  0  0  0  0  0  0  0  0  0
    7.7510   -1.1510   44.5760 F   0  0  0  0  0  0  0  0  0  0  0  0
    8.3390   -6.2000   49.7750 C   0  0  0  0  0  0  0  0  0  0  0  0
    8.0080   -7.2000   50.3870 O   0  0  0  0  0  0  0  0  0  0  0  0
    9.5760   -5.6840   49.8940 O   0  0  0  0  0  0  0  0  0  0  0  0
    1.4180   -2.2230   41.9620 C   0  0  0  0  0  0  0  0  0  0  0  0
   -0.2160   -3.0020   41.2450 Br  0  0  0  0  0  0  0  0  0  0  0  0
   -0.9680   -7.5460   44.7160 C   0  0  0  0  0  0  0  0  0  0  0  0
   -2.2370   -7.8650   43.9190 C   0  0  0  0  0  0  0  0  0  0  0  0
   -3.4310   -8.1200   44.8420 C   0  0  0  0  0  0  0  0  0  0  0  0
   -3.6690   -9.6060   45.1210 C   0  0  0  0  0  0  0  0  0  0  0  0
   -3.4120  -10.0890   46.5540 C   0  0  0  0  0  0  0  0  0  0  0  0
   -1.9340  -10.2890   46.9120 C   0  0  0  0  0  0  0  0  0  0  0  0
   -1.4760   -9.4760   48.1270 C   0  0  0  0  0  0  0  0  0  0  0  0
    0.0280   -9.1500   48.1200 C   0  0  1  0  0  0  0  0  0  0  0  0
    0.6710   -9.3410   49.4920 C   0  0  0  0  0  0  0  0  0  0  0  0
    0.7140  -10.0450   47.2320 O   0  0  0  0  0  0  0  0  0  0  0  0
    1.7550   -9.4240   46.4910 C   0  0  0  0  0  0  0  0  0  0  0  0
  1 25  1  0
  1  2  1  0
  2  3  1  0
  3  4  1  0
  4  5  1  0
  5 23  1  0
  5  6  2  3
  6  7  1  0
  7  8  1  0
  8  9  1  0
  9 17  2  0
  9 18  1  0
 10 11  2  0
 10 12  1  0
 10 20  1  0
 11 13  1  0
 12 14  2  0
 13 15  2  0
 13 16  1  0
 14 16  1  0
 15 17  1  0
 16 18  2  0
 17 19  1  0
 20 22  1  0
 20 21  2  0
 23 24  1  0
 25 26  1  0
 26 27  1  0
 27 28  1  0
 28 29  1  0
 29 30  1  0
 30 31  1  0
 31 32  1  0
 32 34  1  0
 32 33  1  1
 34 35  1  0
M  END
>  <vina_dock>  (32) 
-7.21

$$$$
O14757_PocketFlow_idx-in-all-generaetd-314
     RDKit          3D

 19 21  0  0  0  0  0  0  0  0999 V2000
    2.3950   -5.5850   44.7240 C   0  0  0  0  0  0  0  0  0  0  0  0
    3.3850   -4.3810   44.8740 C   0  0  2  0  0  0  0  0  0  0  0  0
    5.2850   -3.7240   47.6660 O   0  0  0  0  0  0  0  0  0  0  0  0
    4.6670   -3.2440   46.7120 C   0  0  0  0  0  0  0  0  0  0  0  0
    5.2040   -2.0310   45.9860 C   0  0  0  0  0  0  0  0  0  0  0  0
    3.3310   -3.8160   46.2970 C   0  0  0  0  0  0  0  0  0  0  0  0
    5.5190   -2.3140   44.5240 C   0  0  0  0  0  0  0  0  0  0  0  0
    4.2630   -2.2900   43.6720 C   0  0  0  0  0  0  0  0  0  0  0  0
    3.2230   -3.2440   43.8690 C   0  0  0  0  0  0  0  0  0  0  0  0
    4.6210   -4.9850   44.7170 F   0  0  0  0  0  0  0  0  0  0  0  0
    4.1410   -1.2580   42.7220 C   0  0  0  0  0  0  0  0  0  0  0  0
    2.0620   -2.9930   43.1160 C   0  0  0  0  0  0  0  0  0  0  0  0
    2.9820   -1.0960   41.9590 C   0  0  0  0  0  0  0  0  0  0  0  0
    0.8970   -3.6980   43.1930 O   0  0  0  0  0  0  0  0  0  0  0  0
    1.9130   -1.9730   42.1800 C   0  0  0  0  0  0  0  0  0  0  0  0
    0.0270   -3.1670   42.3000 C   0  0  0  0  0  0  0  0  0  0  0  0
    0.6020   -2.1030   41.6500 C   0  0  0  0  0  0  0  0  0  0  0  0
    3.0650   -6.8190   44.5020 O   0  0  0  0  0  0  0  0  0  0  0  0
    1.6140   -5.7700   45.9020 O   0  0  0  0  0  0  0  0  0  0  0  0
  1 18  1  0
  1  2  1  0
  1 19  1  0
  2  9  1  0
  2 10  1  6
  2  6  1  0
  3  4  2  0
  4  5  1  0
  4  6  1  0
  5  7  1  0
  7  8  1  0
  8 11  1  0
  8  9  2  0
  9 12  1  0
 11 13  2  0
 12 15  2  0
 12 14  1  0
 13 15  1  0
 14 16  1  0
 15 17  1  0
 16 17  2  0
M  END
>  <vina_dock>  (33) 
-8.063

$$$$
O14757_PocketFlow_idx-in-all-generaetd-421
     RDKit          3D

 11 11  0  0  0  0  0  0  0  0999 V2000
    0.3290   -3.3900   42.4600 C   0  0  0  0  0  0  0  0  0  0  0  0
    1.6280   -2.7150   42.8110 C   0  0  0  0  0  0  0  0  0  0  0  0
    2.6020   -3.3020   43.5250 C   0  0  0  0  0  0  0  0  0  0  0  0
    3.8810   -2.6600   43.8560 C   0  0  0  0  0  0  0  0  0  0  0  0
    6.3070   -1.4510   44.5910 C   0  0  0  0  0  0  0  0  0  0  0  0
    5.8860   -2.6150   45.2290 C   0  0  0  0  0  0  0  0  0  0  0  0
    5.5170   -0.8810   43.5940 C   0  0  0  0  0  0  0  0  0  0  0  0
    4.6760   -3.2130   44.8680 C   0  0  0  0  0  0  0  0  0  0  0  0
    4.3070   -1.4800   43.2310 C   0  0  0  0  0  0  0  0  0  0  0  0
   -0.4450   -2.6810   41.3380 C   0  0  0  0  0  0  0  0  0  0  0  0
   -1.8040   -2.2910   41.7160 N   0  0  0  0  0  0  0  0  0  0  0  0
  1 10  1  0
  1  2  1  0
  2  3  2  3
  3  4  1  0
  4  9  2  0
  4  8  1  0
  5  7  2  0
  5  6  1  0
  6  8  2  0
  7  9  1  0
 10 11  1  0
M  END
>  <vina_dock>  (34) 
-5.901

$$$$
O14757_PocketFlow_idx-in-all-generaetd-190
     RDKit          3D

 35 37  0  0  0  0  0  0  0  0999 V2000
    6.0410   -1.9400   46.4230 C   0  0  0  0  0  0  0  0  0  0  0  0
    6.9510   -3.1520   46.5640 C   0  0  0  0  0  0  0  0  0  0  0  0
    8.2970   -3.1660   46.3850 C   0  0  0  0  0  0  0  0  0  0  0  0
    9.1240   -4.4520   46.3940 C   0  0  0  0  0  0  0  0  0  0  0  0
    6.2130   -4.3850   46.8440 C   0  0  0  0  0  0  0  0  0  0  0  0
    9.9150   -4.7110   47.7020 C   0  0  1  0  0  0  0  0  0  0  0  0
    6.1270   -4.9940   48.0410 C   0  0  0  0  0  0  0  0  0  0  0  0
    9.0820   -5.4780   48.7470 C   0  0  0  0  0  0  0  0  0  0  0  0
   11.1680   -5.5380   47.3770 C   0  0  0  0  0  0  0  0  0  0  0  0
    6.7910   -4.4850   49.2260 C   0  0  0  0  0  0  0  0  0  0  0  0
    5.3450   -6.2550   48.2290 C   0  0  0  0  0  0  0  0  0  0  0  0
    8.0950   -4.6420   49.5100 C   0  0  0  0  0  0  0  0  0  0  0  0
    9.1580   -1.9380   46.1230 C   0  0  0  0  0  0  0  0  0  0  0  0
    9.6040   -1.1570   47.3700 C   0  0  0  0  0  0  0  0  0  0  0  0
   11.0670   -1.4430   47.7210 C   0  0  0  0  0  0  0  0  0  0  0  0
   11.9450   -1.4170   46.4780 C   0  0  0  0  0  0  0  0  0  0  0  0
   12.3360   -2.6890   46.1780 F   0  0  0  0  0  0  0  0  0  0  0  0
    5.2510   -1.8680   45.1310 C   0  0  0  0  0  0  0  0  0  0  0  0
    5.7570   -1.1490   44.0420 C   0  0  0  0  0  0  0  0  0  0  0  0
    4.0280   -2.5390   44.9890 C   0  0  0  0  0  0  0  0  0  0  0  0
    5.0520   -1.0800   42.8420 C   0  0  0  0  0  0  0  0  0  0  0  0
    3.3380   -2.5090   43.7680 C   0  0  0  0  0  0  0  0  0  0  0  0
    3.8460   -1.7570   42.7040 C   0  0  0  0  0  0  0  0  0  0  0  0
    2.0970   -3.2930   43.5260 C   0  0  0  0  0  0  0  0  0  0  0  0
    1.4480   -3.1190   42.5000 O   0  0  0  0  0  0  0  0  0  0  0  0
    1.7890   -4.2700   44.4490 N   0  0  0  0  0  0  0  0  0  0  0  0
    0.7550   -5.2570   44.1920 C   0  0  0  0  0  0  0  0  0  0  0  0
    1.0240   -6.5660   44.8940 C   0  0  0  0  0  0  0  0  0  0  0  0
    2.3350   -7.0150   45.0510 C   0  0  0  0  0  0  0  0  0  0  0  0
    0.0050   -7.4260   45.3470 C   0  0  0  0  0  0  0  0  0  0  0  0
    2.6690   -8.1770   45.6550 N   0  0  0  0  0  0  0  0  0  0  0  0
    0.3970   -8.6210   45.9490 C   0  0  0  0  0  0  0  0  0  0  0  0
    1.6890   -8.9830   46.1200 N   0  0  0  0  0  0  0  0  0  0  0  0
   -1.4720   -7.1650   45.1740 C   0  0  0  0  0  0  0  0  0  0  0  0
   -2.2870   -8.4530   45.1660 C   0  0  0  0  0  0  0  0  0  0  0  0
  1 18  1  0
  1  2  1  0
  2  3  2  3
  2  5  1  0
  3 13  1  0
  3  4  1  0
  4  6  1  0
  5  7  2  3
  6  9  1  6
  6  8  1  0
  7 11  1  0
  7 10  1  0
  8 12  1  0
 10 12  2  3
 13 14  1  0
 14 15  1  0
 15 16  1  0
 16 17  1  0
 18 19  2  0
 18 20  1  0
 19 21  1  0
 20 22  2  0
 21 23  2  0
 22 23  1  0
 22 24  1  0
 24 25  2  0
 24 26  1  0
 26 27  1  0
 27 28  1  0
 28 29  2  0
 28 30  1  0
 29 31  1  0
 30 34  1  0
 30 32  2  0
 31 33  2  0
 32 33  1  0
 34 35  1  0
M  END
>  <vina_dock>  (35) 
-7.835

$$$$
O14757_PocketFlow_idx-in-all-generaetd-976
     RDKit          3D

 29 33  0  0  0  0  0  0  0  0999 V2000
    8.3800   -2.2060   46.6220 C   0  0  0  0  0  0  0  0  0  0  0  0
    8.1810   -3.2150   47.5690 C   0  0  0  0  0  0  0  0  0  0  0  0
    7.4130   -1.9810   45.6350 C   0  0  0  0  0  0  0  0  0  0  0  0
    6.2430   -2.7570   45.5850 C   0  0  0  0  0  0  0  0  0  0  0  0
    6.0450   -3.7760   46.5440 C   0  0  0  0  0  0  0  0  0  0  0  0
    7.0220   -3.9930   47.5280 C   0  0  0  0  0  0  0  0  0  0  0  0
    5.2670   -2.5450   44.6020 C   0  0  0  0  0  0  0  0  0  0  0  0
    4.1090   -3.3270   44.5640 C   0  0  0  0  0  0  0  0  0  0  0  0
    3.8910   -4.3420   45.5060 C   0  0  0  0  0  0  0  0  0  0  0  0
    4.8730   -4.5510   46.4910 C   0  0  0  0  0  0  0  0  0  0  0  0
    9.5930   -1.3530   46.6230 C   0  0  0  0  0  0  0  0  0  0  0  0
   10.3110   -1.1340   45.6650 O   0  0  0  0  0  0  0  0  0  0  0  0
    9.8520   -0.8120   47.8270 O   0  0  0  0  0  0  0  0  0  0  0  0
    2.6710   -5.1640   45.4670 C   0  0  0  0  0  0  0  0  0  0  0  0
    1.4280   -4.6320   45.8450 C   0  0  0  0  0  0  0  0  0  0  0  0
    2.7140   -6.5040   45.0530 C   0  0  0  0  0  0  0  0  0  0  0  0
    0.2670   -5.4120   45.8080 C   0  0  0  0  0  0  0  0  0  0  0  0
    1.5540   -7.2860   45.0180 C   0  0  0  0  0  0  0  0  0  0  0  0
    0.3170   -6.7500   45.3970 C   0  0  0  0  0  0  0  0  0  0  0  0
   -0.9030   -7.5710   45.3570 C   0  0  0  0  0  0  0  0  0  0  0  0
   -1.6820   -7.5460   44.1860 C   0  0  0  0  0  0  0  0  0  0  0  0
   -1.3140   -8.3820   46.4550 C   0  0  0  0  0  0  0  0  0  0  0  0
   -2.8460   -8.2990   44.0830 C   0  0  0  0  0  0  0  0  0  0  0  0
   -2.5030   -9.1460   46.3360 C   0  0  0  0  0  0  0  0  0  0  0  0
   -0.5980   -8.4710   47.6730 C   0  0  0  0  0  0  0  0  0  0  0  0
   -3.2530   -9.0940   45.1510 C   0  0  0  0  0  0  0  0  0  0  0  0
   -2.9290   -9.9540   47.4040 C   0  0  0  0  0  0  0  0  0  0  0  0
   -1.0350   -9.2780   48.7250 C   0  0  0  0  0  0  0  0  0  0  0  0
   -2.2000  -10.0190   48.5910 C   0  0  0  0  0  0  0  0  0  0  0  0
  1  3  2  0
  1 11  1  0
  1  2  1  0
  2  6  2  0
  3  4  1  0
  4  7  2  0
  4  5  1  0
  5 10  2  0
  5  6  1  0
  7  8  1  0
  8  9  2  0
  9 14  1  0
  9 10  1  0
 11 12  2  0
 11 13  1  0
 14 16  1  0
 14 15  2  0
 15 17  1  0
 16 18  2  0
 17 19  2  0
 18 19  1  0
 19 20  1  0
 20 21  2  0
 20 22  1  0
 21 23  1  0
 22 24  2  0
 22 25  1  0
 23 26  2  0
 24 26  1  0
 24 27  1  0
 25 28  2  0
 27 29  2  0
 28 29  1  0
M  END
>  <vina_dock>  (36) 
-10.255

$$$$
O14757_PocketFlow_idx-in-all-generaetd-560
     RDKit          3D

 17 19  0  0  0  0  0  0  0  0999 V2000
    5.1580   -1.9520   45.4510 C   0  0  0  0  0  0  0  0  0  0  0  0
    5.0210   -0.9720   44.5470 C   0  0  0  0  0  0  0  0  0  0  0  0
    4.9700   -3.3930   45.0890 C   0  0  0  0  0  0  0  0  0  0  0  0
    3.5170   -3.7900   44.7200 C   0  0  1  0  0  0  0  0  0  0  0  0
    2.8660   -3.0090   43.6160 C   0  0  0  0  0  0  0  0  0  0  0  0
    3.3490   -1.9470   42.9300 C   0  0  0  0  0  0  0  0  0  0  0  0
    4.6410   -1.2040   43.1150 C   0  0  0  0  0  0  0  0  0  0  0  0
    1.4640   -3.4010   43.2780 C   0  0  0  0  0  0  0  0  0  0  0  0
    0.8260   -2.5380   42.4610 F   0  0  0  0  0  0  0  0  0  0  0  0
    0.7200   -4.3840   43.6320 N   0  0  0  0  0  0  0  0  0  0  0  0
    1.0870   -5.4790   44.4260 C   0  0  0  0  0  0  0  0  0  0  0  0
    0.0110   -6.2510   44.8930 C   0  0  0  0  0  0  0  0  0  0  0  0
    0.2080   -7.4350   45.6070 C   0  0  0  0  0  0  0  0  0  0  0  0
    1.4990   -7.8790   45.8490 C   0  0  0  0  0  0  0  0  0  0  0  0
    2.5850   -7.1310   45.3940 C   0  0  0  0  0  0  0  0  0  0  0  0
    2.3990   -5.9160   44.7050 C   0  0  0  0  0  0  0  0  0  0  0  0
    3.5510   -5.2010   44.3040 N   0  0  0  0  0  0  0  0  0  0  0  0
  1  2  2  0
  1  3  1  0
  2  7  1  0
  4  3  1  6
  4  5  1  0
  4 17  1  0
  5  6  2  0
  5  8  1  0
  6  7  1  0
  8  9  1  0
  8 10  2  0
 10 11  1  0
 11 16  2  0
 11 12  1  0
 12 13  2  0
 13 14  1  0
 14 15  2  0
 15 16  1  0
 16 17  1  0
M  END
>  <vina_dock>  (37) 
-7.956

$$$$
O14757_PocketFlow_idx-in-all-generaetd-20
     RDKit          3D

 17 18  0  0  0  0  0  0  0  0999 V2000
    1.9200   -4.7640   44.9910 C   0  0  0  0  0  0  0  0  0  0  0  0
    2.7840   -4.9070   45.8520 O   0  0  0  0  0  0  0  0  0  0  0  0
    2.0580   -3.6670   44.0020 C   0  0  0  0  0  0  0  0  0  0  0  0
    3.3410   -1.9530   42.8900 C   0  0  0  0  0  0  0  0  0  0  0  0
    4.8110   -1.0790   42.7030 Cl  0  0  0  0  0  0  0  0  0  0  0  0
    2.2460   -1.6400   42.0860 C   0  0  0  0  0  0  0  0  0  0  0  0
    3.2600   -2.9660   43.8450 C   0  0  0  0  0  0  0  0  0  0  0  0
    1.0560   -2.3550   42.2270 C   0  0  0  0  0  0  0  0  0  0  0  0
    0.9630   -3.3700   43.1800 C   0  0  0  0  0  0  0  0  0  0  0  0
    0.7690   -5.6990   44.9700 C   0  0  0  0  0  0  0  0  0  0  0  0
    0.2910   -6.2500   43.7760 C   0  0  0  0  0  0  0  0  0  0  0  0
    0.1900   -6.0690   46.1910 C   0  0  0  0  0  0  0  0  0  0  0  0
   -0.7840   -7.1430   43.8040 C   0  0  0  0  0  0  0  0  0  0  0  0
   -0.8840   -6.9640   46.2170 C   0  0  0  0  0  0  0  0  0  0  0  0
   -1.3760   -7.4990   45.0210 C   0  0  0  0  0  0  0  0  0  0  0  0
   -1.5590   -7.3640   47.7560 Cl  0  0  0  0  0  0  0  0  0  0  0  0
   -2.7010   -8.6060   44.9750 Cl  0  0  0  0  0  0  0  0  0  0  0  0
  1  3  1  0
  1 10  1  0
  1  2  2  0
  3  9  1  0
  3  7  2  0
  4  6  2  0
  4  5  1  0
  4  7  1  0
  6  8  1  0
  8  9  2  0
 10 11  2  0
 10 12  1  0
 11 13  1  0
 12 14  2  0
 13 15  2  0
 14 15  1  0
 14 16  1  0
 15 17  1  0
M  END
>  <vina_dock>  (38) 
-7.554

$$$$
O14757_PocketFlow_idx-in-all-generaetd-663
     RDKit          3D

 14 16  0  0  0  0  0  0  0  0999 V2000
    0.0040   -2.6960   41.6060 C   0  0  0  0  0  0  0  0  0  0  0  0
    0.4010   -3.5340   42.6430 C   0  0  0  0  0  0  0  0  0  0  0  0
    0.8490   -1.6800   41.1860 C   0  0  0  0  0  0  0  0  0  0  0  0
    1.6460   -3.3680   43.2750 C   0  0  0  0  0  0  0  0  0  0  0  0
    2.0100   -4.2290   44.3130 C   0  0  0  0  0  0  0  0  0  0  0  0
    3.2350   -4.0910   44.9590 C   0  0  0  0  0  0  0  0  0  0  0  0
    4.1330   -3.0890   44.5850 C   0  0  0  0  0  0  0  0  0  0  0  0
    3.8000   -2.1950   43.5350 C   0  0  0  0  0  0  0  0  0  0  0  0
    4.7640   -1.2050   43.2150 C   0  0  0  0  0  0  0  0  0  0  0  0
    2.5310   -2.3370   42.8670 C   0  0  0  0  0  0  0  0  0  0  0  0
    2.0900   -1.5050   41.8060 C   0  0  0  0  0  0  0  0  0  0  0  0
    5.9840   -1.1040   43.8910 C   0  0  0  0  0  0  0  0  0  0  0  0
    6.2830   -1.9910   44.9130 C   0  0  0  0  0  0  0  0  0  0  0  0
    5.3620   -2.9770   45.2580 C   0  0  0  0  0  0  0  0  0  0  0  0
  1  3  2  0
  1  2  1  0
  2  4  2  0
  3 11  1  0
  4 10  1  0
  4  5  1  0
  5  6  2  0
  6  7  1  0
  7  8  2  0
  7 14  1  0
  8 10  1  0
  8  9  1  0
  9 12  2  0
 10 11  2  0
 12 13  1  0
 13 14  2  0
M  END
>  <vina_dock>  (39) 
-8.52

$$$$
O14757_PocketFlow_idx-in-all-generaetd-766
     RDKit          3D

 19 20  0  0  0  0  0  0  0  0999 V2000
    1.8590   -2.5700   42.4100 O   0  0  0  0  0  0  0  0  0  0  0  0
    2.0880   -3.3020   43.5420 C   0  0  0  0  0  0  0  0  0  0  0  0
    1.1140   -3.9050   44.3430 C   0  0  0  0  0  0  0  0  0  0  0  0
    3.4340   -3.4270   43.8880 C   0  0  0  0  0  0  0  0  0  0  0  0
    1.4690   -4.6290   45.4920 C   0  0  0  0  0  0  0  0  0  0  0  0
    3.8050   -4.1440   45.0230 C   0  0  0  0  0  0  0  0  0  0  0  0
    2.8270   -4.7420   45.8170 C   0  0  0  0  0  0  0  0  0  0  0  0
    0.5200   -5.2820   46.3000 N   0  0  0  0  0  0  0  0  0  0  0  0
   -0.2810   -6.4160   46.0770 C   0  0  0  0  0  0  0  0  0  0  0  0
   -0.7270   -7.1570   47.1830 C   0  0  0  0  0  0  0  0  0  0  0  0
   -0.7030   -6.8090   44.7990 C   0  0  0  0  0  0  0  0  0  0  0  0
   -1.5590   -8.2670   47.0150 C   0  0  0  0  0  0  0  0  0  0  0  0
   -1.5340   -7.9200   44.6280 C   0  0  0  0  0  0  0  0  0  0  0  0
   -1.9550   -8.6370   45.7390 C   0  0  0  0  0  0  0  0  0  0  0  0
   -2.7540   -9.7010   45.5760 F   0  0  0  0  0  0  0  0  0  0  0  0
    0.7830   -2.9840   41.5770 C   0  0  0  0  0  0  0  0  0  0  0  0
   -0.3490   -1.9750   41.6440 C   0  0  0  0  0  0  0  0  0  0  0  0
   -0.2760   -0.7580   41.6760 O   0  0  0  0  0  0  0  0  0  0  0  0
   -1.5610   -2.5750   41.6670 O   0  0  0  0  0  0  0  0  0  0  0  0
  1 16  1  0
  1  2  1  0
  2  4  2  0
  2  3  1  0
  3  5  2  0
  4  6  1  0
  5  7  1  0
  5  8  1  0
  6  7  2  0
  8  9  1  0
  9 11  1  0
  9 10  2  0
 10 12  1  0
 11 13  2  0
 12 14  2  0
 13 14  1  0
 14 15  1  0
 16 17  1  0
 17 19  1  0
 17 18  2  0
M  END
>  <vina_dock>  (40) 
-7.177

$$$$
O14757_PocketFlow_idx-in-all-generaetd-338
     RDKit          3D

 11 11  0  0  0  0  0  0  0  0999 V2000
    4.3270   -1.8230   43.2880 C   0  0  0  0  0  0  0  0  0  0  0  0
    5.0060   -2.0470   44.4260 C   0  0  0  0  0  0  0  0  0  0  0  0
    2.9820   -2.3520   43.0190 C   0  0  0  0  0  0  0  0  0  0  0  0
    0.9410   -2.2530   41.7030 C   0  0  0  0  0  0  0  0  0  0  0  0
    2.2330   -1.7970   41.9720 C   0  0  0  0  0  0  0  0  0  0  0  0
    0.3790   -3.2590   42.4860 C   0  0  0  0  0  0  0  0  0  0  0  0
    1.1070   -3.8070   43.5400 C   0  0  0  0  0  0  0  0  0  0  0  0
    2.4010   -3.3520   43.8080 C   0  0  0  0  0  0  0  0  0  0  0  0
    6.3300   -1.5160   44.6570 C   0  0  0  0  0  0  0  0  0  0  0  0
    7.2940   -2.0730   45.4070 C   0  0  0  0  0  0  0  0  0  0  0  0
    7.2550   -3.3520   46.1800 C   0  0  0  0  0  0  0  0  0  0  0  0
  1  3  1  0
  1  2  2  3
  2  9  1  0
  3  5  2  0
  3  8  1  0
  4  5  1  0
  4  6  2  0
  6  7  1  0
  7  8  2  0
  9 10  2  3
 10 11  1  0
M  END
>  <vina_dock>  (41) 
-6.278

$$$$
O14757_PocketFlow_idx-in-all-generaetd-805
     RDKit          3D

 32 35  0  0  0  0  0  0  0  0999 V2000
    5.9250   -3.2480   46.1070 C   0  0  0  0  0  0  0  0  0  0  0  0
    7.3230   -3.2780   46.0180 C   0  0  0  0  0  0  0  0  0  0  0  0
    8.0920   -3.7900   47.0670 C   0  0  0  0  0  0  0  0  0  0  0  0
    7.4760   -4.2790   48.2260 C   0  0  0  0  0  0  0  0  0  0  0  0
    5.3090   -3.7430   47.2600 C   0  0  0  0  0  0  0  0  0  0  0  0
    6.0770   -4.2560   48.3100 C   0  0  0  0  0  0  0  0  0  0  0  0
    5.1160   -2.6990   44.9980 C   0  0  0  0  0  0  0  0  0  0  0  0
    4.8510   -1.3800   45.0020 C   0  0  0  0  0  0  0  0  0  0  0  0
    4.6720   -3.7090   43.9570 C   0  0  0  0  0  0  0  0  0  0  0  0
    3.3750   -4.4310   44.2350 C   0  0  0  0  0  0  0  0  0  0  0  0
   -0.2640   -7.7320   45.5800 C   0  0  0  0  0  0  0  0  0  0  0  0
   -0.2580   -6.4720   44.9610 C   0  0  0  0  0  0  0  0  0  0  0  0
    0.9570   -8.3090   45.9490 C   0  0  0  0  0  0  0  0  0  0  0  0
    0.9420   -5.7870   44.7160 C   0  0  0  0  0  0  0  0  0  0  0  0
    2.1600   -7.6390   45.7110 C   0  0  0  0  0  0  0  0  0  0  0  0
    2.1690   -6.3780   45.0970 C   0  0  0  0  0  0  0  0  0  0  0  0
    0.9500   -4.5280   44.0990 C   0  0  0  0  0  0  0  0  0  0  0  0
    3.3720   -5.6930   44.8510 C   0  0  0  0  0  0  0  0  0  0  0  0
    2.1540   -3.8690   43.8640 C   0  0  0  0  0  0  0  0  0  0  0  0
    2.1220   -2.6680   43.2680 F   0  0  0  0  0  0  0  0  0  0  0  0
   -1.5640   -8.4660   45.8160 C   0  0  1  0  0  0  0  0  0  0  0  0
   -1.3700   -9.7760   46.1280 F   0  0  0  0  0  0  0  0  0  0  0  0
   -2.2970   -7.8930   46.9300 N   0  0  0  0  0  0  0  0  0  0  0  0
    8.2970   -4.8420   49.3620 C   0  0  0  0  0  0  0  0  0  0  0  0
    7.4570   -5.6450   50.2520 N   0  0  0  0  0  0  0  0  0  0  0  0
    7.6410   -7.0810   50.0360 C   0  0  0  0  0  0  0  0  0  0  0  0
    6.4120   -7.7770   49.5010 C   0  0  0  0  0  0  0  0  0  0  0  0
    5.4070   -8.2220   50.3720 C   0  0  0  0  0  0  0  0  0  0  0  0
    6.2650   -8.0060   48.1260 C   0  0  0  0  0  0  0  0  0  0  0  0
    4.2770   -8.8760   49.8750 C   0  0  0  0  0  0  0  0  0  0  0  0
    5.1350   -8.6580   47.6290 C   0  0  0  0  0  0  0  0  0  0  0  0
    4.1420   -9.0930   48.5050 C   0  0  0  0  0  0  0  0  0  0  0  0
  1  7  1  0
  1  2  2  0
  1  5  1  0
  2  3  1  0
  3  4  2  0
  4  6  1  0
  4 24  1  0
  5  6  2  0
  7  9  1  0
  7  8  2  0
  9 10  1  0
 10 19  2  0
 10 18  1  0
 11 12  2  0
 11 21  1  0
 11 13  1  0
 12 14  1  0
 13 15  2  0
 14 17  2  0
 14 16  1  0
 15 16  1  0
 16 18  2  0
 17 19  1  0
 19 20  1  0
 21 22  1  0
 21 23  1  1
 24 25  1  0
 25 26  1  0
 26 27  1  0
 27 29  1  0
 27 28  2  0
 28 30  1  0
 29 31  2  0
 30 32  2  0
 31 32  1  0
M  END
>  <vina_dock>  (42) 
-8.293

$$$$
O14757_PocketFlow_idx-in-all-generaetd-822
     RDKit          3D

  6  6  0  0  0  0  0  0  0  0999 V2000
    3.4800   -2.2520   43.1400 C   0  0  0  0  0  0  0  0  0  0  0  0
    4.0700   -3.0980   44.0780 C   0  0  0  0  0  0  0  0  0  0  0  0
    4.0860   -1.0360   42.8180 C   0  0  0  0  0  0  0  0  0  0  0  0
    5.2660   -2.7300   44.6960 C   0  0  0  0  0  0  0  0  0  0  0  0
    5.8710   -1.5140   44.3740 C   0  0  0  0  0  0  0  0  0  0  0  0
    5.2820   -0.6680   43.4360 C   0  0  0  0  0  0  0  0  0  0  0  0
  1  3  2  0
  1  2  1  0
  2  4  2  0
  3  6  1  0
  4  5  1  0
  5  6  2  0
M  END
>  <vina_dock>  (43) 
-3.988

$$$$
O14757_PocketFlow_idx-in-all-generaetd-323
     RDKit          3D

 35 38  0  0  0  0  0  0  0  0999 V2000
    0.7570   -4.9710   44.1150 O   0  0  0  0  0  0  0  0  0  0  0  0
    2.0020   -4.5610   44.5180 C   0  0  0  0  0  0  0  0  0  0  0  0
    2.5070   -3.4130   43.8720 C   0  0  0  0  0  0  0  0  0  0  0  0
    3.7870   -2.9380   44.2190 C   0  0  0  0  0  0  0  0  0  0  0  0
    4.5720   -3.5710   45.1940 C   0  0  0  0  0  0  0  0  0  0  0  0
    2.7760   -5.1950   45.4920 C   0  0  0  0  0  0  0  0  0  0  0  0
    4.0420   -4.7030   45.8260 C   0  0  0  0  0  0  0  0  0  0  0  0
    1.7300   -2.6870   42.8560 C   0  0  0  0  0  0  0  0  0  0  0  0
    0.3970   -3.0420   42.5850 C   0  0  0  0  0  0  0  0  0  0  0  0
   -0.3510   -2.3750   41.6100 C   0  0  0  0  0  0  0  0  0  0  0  0
    0.2170   -1.2710   40.9700 C   0  0  0  0  0  0  0  0  0  0  0  0
    2.2930   -1.6100   42.1580 C   0  0  0  0  0  0  0  0  0  0  0  0
    1.5380   -0.9000   41.2260 C   0  0  0  0  0  0  0  0  0  0  0  0
   -1.7110   -2.6620   41.4430 N   0  0  0  0  0  0  0  0  0  0  0  0
    5.9080   -3.0640   45.5400 C   0  0  0  0  0  0  0  0  0  0  0  0
    6.4310   -1.9190   44.9190 C   0  0  0  0  0  0  0  0  0  0  0  0
    6.6980   -3.7110   46.5020 C   0  0  0  0  0  0  0  0  0  0  0  0
    7.7020   -1.4380   45.2480 C   0  0  0  0  0  0  0  0  0  0  0  0
    7.9680   -3.2310   46.8360 C   0  0  0  0  0  0  0  0  0  0  0  0
    8.4830   -2.0890   46.2120 C   0  0  0  0  0  0  0  0  0  0  0  0
    9.8620   -1.5760   46.5610 C   0  0  0  0  0  0  0  0  0  0  0  0
   10.3380   -1.9870   47.9340 C   0  0  0  0  0  0  0  0  0  0  0  0
   11.3320   -2.9660   48.0790 C   0  0  0  0  0  0  0  0  0  0  0  0
    9.7980   -1.3950   49.0840 C   0  0  0  0  0  0  0  0  0  0  0  0
   11.7740   -3.3440   49.3490 C   0  0  0  0  0  0  0  0  0  0  0  0
   10.2410   -1.7750   50.3530 C   0  0  0  0  0  0  0  0  0  0  0  0
   11.2290   -2.7490   50.4840 C   0  0  0  0  0  0  0  0  0  0  0  0
    0.4810   -6.3700   43.9760 C   0  0  0  0  0  0  0  0  0  0  0  0
   -0.7060   -6.7580   44.8710 C   0  0  2  0  0  0  0  0  0  0  0  0
   -0.2820   -7.5950   46.1120 C   0  0  1  0  0  0  0  0  0  0  0  0
    1.0640   -8.2640   45.9370 C   0  0  0  0  0  0  0  0  0  0  0  0
    1.6770   -9.1060   46.7870 C   0  0  0  0  0  0  0  0  0  0  0  0
    3.0000   -9.7480   46.5210 C   0  0  0  0  0  0  0  0  0  0  0  0
   -0.3340   -6.7490   47.3180 N   0  0  0  0  0  0  0  0  0  0  0  0
   -1.6410   -7.5270   44.0810 O   0  0  0  0  0  0  0  0  0  0  0  0
  1 28  1  0
  1  2  1  0
  2  3  2  0
  2  6  1  0
  3  8  1  0
  3  4  1  0
  4  5  2  0
  5 15  1  0
  5  7  1  0
  6  7  2  0
  8 12  1  0
  8  9  2  0
  9 10  1  0
 10 11  2  0
 10 14  1  0
 11 13  1  0
 12 13  2  0
 15 16  2  0
 15 17  1  0
 16 18  1  0
 17 19  2  0
 18 20  2  0
 19 20  1  0
 20 21  1  0
 21 22  1  0
 22 23  2  0
 22 24  1  0
 23 25  1  0
 24 26  2  0
 25 27  2  0
 26 27  1  0
 28 29  1  0
 29 35  1  6
 29 30  1  0
 30 31  1  0
 30 34  1  1
 31 32  2  3
 32 33  1  0
M  END
>  <vina_dock>  (44) 
-9.39

$$$$
O14757_PocketFlow_idx-in-all-generaetd-791
     RDKit          3D

  6  6  0  0  0  0  0  0  0  0999 V2000
    5.8360   -1.4870   44.3180 C   0  0  0  0  0  0  0  0  0  0  0  0
    5.2250   -0.6520   43.3820 C   0  0  0  0  0  0  0  0  0  0  0  0
    5.2430   -2.7020   44.6610 C   0  0  0  0  0  0  0  0  0  0  0  0
    4.0400   -3.0820   44.0650 C   0  0  0  0  0  0  0  0  0  0  0  0
    3.4290   -2.2480   43.1290 C   0  0  0  0  0  0  0  0  0  0  0  0
    4.0220   -1.0330   42.7870 C   0  0  0  0  0  0  0  0  0  0  0  0
  1  2  2  0
  1  3  1  0
  2  6  1  0
  3  4  2  0
  4  5  1  0
  5  6  2  0
M  END
>  <vina_dock>  (45) 
-3.977

$$$$
O14757_PocketFlow_idx-in-all-generaetd-304
     RDKit          3D

 17 17  0  0  0  0  0  0  0  0999 V2000
    0.6850   -4.7270   44.2840 C   0  0  0  0  0  0  0  0  0  0  0  0
    0.7340   -3.4240   43.4830 C   0  0  0  0  0  0  0  0  0  0  0  0
    0.1920   -3.6230   42.0940 C   0  0  0  0  0  0  0  0  0  0  0  0
    0.5820   -2.9960   40.9720 C   0  0  0  0  0  0  0  0  0  0  0  0
    1.6120   -1.9090   40.8500 C   0  0  0  0  0  0  0  0  0  0  0  0
    1.0500   -0.5620   41.3020 C   0  0  0  0  0  0  0  0  0  0  0  0
    2.1260    0.3040   41.9400 C   0  0  0  0  0  0  0  0  0  0  0  0
    0.9450   -4.5020   45.7720 C   0  0  0  0  0  0  0  0  0  0  0  0
    2.3120   -4.8470   46.1130 N   0  0  0  0  0  0  0  0  0  0  0  0
    3.1430   -5.6130   45.3340 C   0  0  0  0  0  0  0  0  0  0  0  0
    4.2000   -5.2200   44.6120 C   0  0  0  0  0  0  0  0  0  0  0  0
    4.6610   -3.8350   44.4920 C   0  0  0  0  0  0  0  0  0  0  0  0
    4.1200   -3.0060   43.5040 C   0  0  0  0  0  0  0  0  0  0  0  0
    5.6230   -3.3180   45.3700 C   0  0  0  0  0  0  0  0  0  0  0  0
    4.5440   -1.6800   43.3860 C   0  0  0  0  0  0  0  0  0  0  0  0
    6.0460   -1.9940   45.2520 C   0  0  0  0  0  0  0  0  0  0  0  0
    5.5070   -1.1750   44.2590 C   0  0  0  0  0  0  0  0  0  0  0  0
  1  2  1  0
  1  8  1  0
  2  3  1  0
  3  4  2  3
  4  5  1  0
  5  6  1  0
  6  7  1  0
  8  9  1  0
  9 10  1  0
 10 11  2  3
 11 12  1  0
 12 13  2  0
 12 14  1  0
 13 15  1  0
 14 16  2  0
 15 17  2  0
 16 17  1  0
M  END
>  <vina_dock>  (46) 
-6.322

$$$$
O14757_PocketFlow_idx-in-all-generaetd-932
     RDKit          3D

 30 33  0  0  0  0  0  0  0  0999 V2000
    9.1880   -2.8290   48.8200 C   0  0  2  0  0  0  0  0  0  0  0  0
    8.8210   -4.3050   48.8800 C   0  0  0  0  0  0  0  0  0  0  0  0
    7.5570   -4.6470   48.1170 C   0  0  0  0  0  0  0  0  0  0  0  0
    7.0500   -3.6960   47.0620 C   0  0  0  0  0  0  0  0  0  0  0  0
    5.7730   -3.8560   46.4260 C   0  0  0  0  0  0  0  0  0  0  0  0
    5.4180   -2.9700   45.3660 C   0  0  0  0  0  0  0  0  0  0  0  0
    4.1650   -3.1280   44.7240 C   0  0  0  0  0  0  0  0  0  0  0  0
    3.2460   -4.1250   45.0810 C   0  0  0  0  0  0  0  0  0  0  0  0
    3.5810   -4.9750   46.1270 C   0  0  0  0  0  0  0  0  0  0  0  0
    4.8100   -4.8380   46.7800 C   0  0  0  0  0  0  0  0  0  0  0  0
    6.3160   -1.9500   44.9690 C   0  0  0  0  0  0  0  0  0  0  0  0
    6.0040   -0.9960   43.8440 C   0  0  0  0  0  0  0  0  0  0  0  0
    7.5310   -1.8080   45.6400 C   0  0  0  0  0  0  0  0  0  0  0  0
    7.9070   -2.6440   46.6890 C   0  0  0  0  0  0  0  0  0  0  0  0
    9.2380   -2.4040   47.3530 C   0  0  0  0  0  0  0  0  0  0  0  0
    8.3740   -0.8340   45.2630 F   0  0  0  0  0  0  0  0  0  0  0  0
    7.0230   -5.7330   48.3330 O   0  0  0  0  0  0  0  0  0  0  0  0
   10.5280   -2.5940   49.5290 C   0  0  0  0  0  0  0  0  0  0  0  0
   10.8180   -1.1270   49.7230 C   0  0  0  0  0  0  0  0  0  0  0  0
   10.1430   -0.3840   50.4220 O   0  0  0  0  0  0  0  0  0  0  0  0
   11.9340   -0.7670   49.0340 O   0  0  0  0  0  0  0  0  0  0  0  0
   12.7880   -1.8620   48.7020 C   0  0  0  0  0  0  0  0  0  0  0  0
    1.9040   -4.2720   44.3720 C   0  0  1  0  0  0  0  0  0  0  0  0
    0.7780   -4.3400   45.4160 C   0  0  0  0  0  0  0  0  0  0  0  0
    1.7050   -3.2410   43.2610 C   0  0  0  0  0  0  0  0  0  0  0  0
    2.6730   -2.2840   42.9190 C   0  0  0  0  0  0  0  0  0  0  0  0
    0.4990   -3.2540   42.5350 C   0  0  0  0  0  0  0  0  0  0  0  0
    2.4400   -1.3700   41.8880 C   0  0  0  0  0  0  0  0  0  0  0  0
    0.2700   -2.3410   41.5040 C   0  0  0  0  0  0  0  0  0  0  0  0
    1.2400   -1.3970   41.1820 C   0  0  0  0  0  0  0  0  0  0  0  0
  1 15  1  0
  1  2  1  0
  1 18  1  6
  2  3  1  0
  3  4  1  0
  3 17  2  0
  4  5  2  0
  4 14  1  0
  5  6  1  0
  5 10  1  0
  6  7  1  0
  6 11  2  0
  7  8  2  0
  8 23  1  0
  8  9  1  0
  9 10  2  0
 11 12  1  0
 11 13  1  0
 13 16  1  0
 13 14  2  0
 14 15  1  0
 18 19  1  0
 19 21  1  0
 19 20  2  0
 21 22  1  0
 23 25  1  0
 23 24  1  1
 25 27  1  0
 25 26  2  0
 26 28  1  0
 27 29  2  0
 28 30  2  0
 29 30  1  0
M  END
>  <vina_dock>  (47) 
-9.399

$$$$
O14757_PocketFlow_idx-in-all-generaetd-564
     RDKit          3D

 16 18  0  0  0  0  0  0  0  0999 V2000
    0.0890   -6.0000   44.4780 C   0  0  0  0  0  0  0  0  0  0  0  0
    0.8760   -4.6840   44.4220 C   0  0  1  0  0  0  0  0  0  0  0  0
    5.0850   -3.3080   45.2210 C   0  0  0  0  0  0  0  0  0  0  0  0
    4.1220   -2.8660   44.2930 C   0  0  0  0  0  0  0  0  0  0  0  0
    6.2870   -2.6200   45.3890 C   0  0  0  0  0  0  0  0  0  0  0  0
    2.8990   -3.5150   44.0900 C   0  0  0  0  0  0  0  0  0  0  0  0
    4.3920   -1.7100   43.5180 C   0  0  0  0  0  0  0  0  0  0  0  0
    6.5480   -1.4820   44.6320 C   0  0  0  0  0  0  0  0  0  0  0  0
    2.3830   -4.7700   44.7410 C   0  0  0  0  0  0  0  0  0  0  0  0
    1.9770   -3.0540   43.1390 C   0  0  0  0  0  0  0  0  0  0  0  0
    5.6070   -1.0320   43.7030 C   0  0  0  0  0  0  0  0  0  0  0  0
    3.4450   -1.2620   42.5710 C   0  0  0  0  0  0  0  0  0  0  0  0
    0.7750   -3.9450   43.0700 C   0  0  0  0  0  0  0  0  0  0  0  0
    2.2380   -1.9360   42.3710 C   0  0  0  0  0  0  0  0  0  0  0  0
   -0.2780   -6.5170   45.8650 C   0  0  0  0  0  0  0  0  0  0  0  0
   -1.1810   -5.6210   46.4940 O   0  0  0  0  0  0  0  0  0  0  0  0
  2  1  1  6
  1 15  1  0
  2 13  1  0
  2  9  1  0
  3  4  2  0
  3  5  1  0
  4  7  1  0
  4  6  1  0
  5  8  2  0
  6 10  2  0
  6  9  1  0
  7 12  1  0
  7 11  2  0
  8 11  1  0
 10 14  1  0
 10 13  1  0
 12 14  2  0
 15 16  1  0
M  END
>  <vina_dock>  (48) 
-8.346

$$$$
O14757_PocketFlow_idx-in-all-generaetd-798
     RDKit          3D

 29 31  0  0  0  0  0  0  0  0999 V2000
    3.8270   -5.7550   45.8510 C   0  0  0  0  0  0  0  0  0  0  0  0
    2.9190   -5.3550   44.9450 C   0  0  0  0  0  0  0  0  0  0  0  0
    4.4950   -4.9100   46.8130 C   0  0  0  0  0  0  0  0  0  0  0  0
    5.7580   -4.4810   46.6500 C   0  0  0  0  0  0  0  0  0  0  0  0
    6.4740   -3.5990   47.6450 C   0  0  2  0  0  0  0  0  0  0  0  0
   10.1830   -1.8550   46.5000 C   0  0  1  0  0  0  0  0  0  0  0  0
   10.0760   -3.3630   46.2370 C   0  0  0  0  0  0  0  0  0  0  0  0
    8.8530   -1.1390   46.2090 C   0  0  0  0  0  0  0  0  0  0  0  0
    8.8450   -4.0540   46.8940 C   0  0  1  0  0  0  0  0  0  0  0  0
    7.6550   -2.0850   46.1420 C   0  0  0  0  0  0  0  0  0  0  0  0
    9.2770   -4.9200   48.0920 C   0  0  0  0  0  0  0  0  0  0  0  0
    7.7790   -3.0870   47.2000 N   0  0  0  0  0  0  0  0  0  0  0  0
    8.2800   -6.0240   48.4010 C   0  0  2  0  0  0  0  0  0  0  0  0
    7.0720   -5.6200   49.2280 C   0  0  0  0  0  0  0  0  0  0  0  0
    8.9330   -7.0020   49.1040 F   0  0  0  0  0  0  0  0  0  0  0  0
    6.5450   -4.2010   49.0610 C   0  0  0  0  0  0  0  0  0  0  0  0
   10.7340   -1.5540   47.8970 C   0  0  0  0  0  0  0  0  0  0  0  0
   11.9290   -1.5650   48.1730 O   0  0  0  0  0  0  0  0  0  0  0  0
    9.7700   -1.1740   48.8100 N   0  0  0  0  0  0  0  0  0  0  0  0
   10.1360   -0.7520   50.1390 C   0  0  0  0  0  0  0  0  0  0  0  0
    2.4120   -3.9580   44.7000 C   0  0  0  0  0  0  0  0  0  0  0  0
    3.1070   -3.2590   43.5110 C   0  0  2  0  0  0  0  0  0  0  0  0
    4.2860   -2.3820   43.9540 C   0  0  0  0  0  0  0  0  0  0  0  0
    2.1120   -2.4460   42.6960 C   0  0  0  0  0  0  0  0  0  0  0  0
    0.8380   -2.9690   42.4270 C   0  0  0  0  0  0  0  0  0  0  0  0
    2.4340   -1.1740   42.1960 C   0  0  0  0  0  0  0  0  0  0  0  0
   -0.0910   -2.2390   41.6820 C   0  0  0  0  0  0  0  0  0  0  0  0
    1.5040   -0.4460   41.4510 C   0  0  0  0  0  0  0  0  0  0  0  0
    0.2420   -0.9770   41.1940 C   0  0  0  0  0  0  0  0  0  0  0  0
  1  2  2  3
  1  3  1  0
  2 21  1  0
  3  4  2  3
  4  5  1  0
  5 12  1  0
  5 16  1  1
  6  8  1  0
  6  7  1  0
  6 17  1  1
  9  7  1  1
  8 10  1  0
  9 12  1  0
  9 11  1  0
 10 12  1  0
 11 13  1  0
 13 15  1  1
 13 14  1  0
 14 16  1  0
 17 18  2  0
 17 19  1  0
 19 20  1  0
 21 22  1  0
 22 24  1  0
 22 23  1  1
 24 26  1  0
 24 25  2  0
 25 27  1  0
 26 28  2  0
 27 29  2  0
 28 29  1  0
M  END
>  <vina_dock>  (49) 
-7.856

$$$$
O14757_PocketFlow_idx-in-all-generaetd-466
     RDKit          3D

 20 23  0  0  0  0  0  0  0  0999 V2000
    1.7850   -1.1370   41.6300 C   0  0  0  0  0  0  0  0  0  0  0  0
    0.6760   -1.8060   41.1160 C   0  0  0  0  0  0  0  0  0  0  0  0
    2.5690   -1.7340   42.6260 C   0  0  0  0  0  0  0  0  0  0  0  0
    2.2460   -3.0030   43.1220 C   0  0  0  0  0  0  0  0  0  0  0  0
    3.0500   -3.6420   44.2270 C   0  0  1  0  0  0  0  0  0  0  0  0
    4.3870   -3.0030   44.5100 C   0  0  0  0  0  0  0  0  0  0  0  0
    4.7090   -1.7350   44.0130 C   0  0  0  0  0  0  0  0  0  0  0  0
    3.7660   -1.0180   43.1250 C   0  0  0  0  0  0  0  0  0  0  0  0
    0.3470   -3.0720   41.5940 C   0  0  0  0  0  0  0  0  0  0  0  0
    1.1240   -3.6670   42.5900 C   0  0  0  0  0  0  0  0  0  0  0  0
    2.0740   -3.6250   45.7340 Cl  0  0  0  0  0  0  0  0  0  0  0  0
    5.3310   -3.6670   45.3160 C   0  0  0  0  0  0  0  0  0  0  0  0
    6.5710   -3.0820   45.6300 C   0  0  0  0  0  0  0  0  0  0  0  0
    7.5100   -3.7450   46.4370 C   0  0  0  0  0  0  0  0  0  0  0  0
    8.7350   -3.1500   46.7400 C   0  0  0  0  0  0  0  0  0  0  0  0
    9.0360   -1.8850   46.2430 C   0  0  0  0  0  0  0  0  0  0  0  0
    8.1130   -1.2140   45.4410 C   0  0  0  0  0  0  0  0  0  0  0  0
    6.8760   -1.7990   45.1260 C   0  0  0  0  0  0  0  0  0  0  0  0
    5.9390   -1.1380   44.3210 C   0  0  0  0  0  0  0  0  0  0  0  0
    3.9910    0.1360   42.7780 O   0  0  0  0  0  0  0  0  0  0  0  0
  1  2  2  0
  1  3  1  0
  2  9  1  0
  3  4  2  0
  3  8  1  0
  4 10  1  0
  4  5  1  0
  5  6  1  0
  5 11  1  1
  6  7  2  0
  6 12  1  0
  7  8  1  0
  7 19  1  0
  8 20  2  0
  9 10  2  0
 12 13  2  0
 13 18  1  0
 13 14  1  0
 14 15  2  0
 15 16  1  0
 16 17  2  0
 17 18  1  0
 18 19  2  0
M  END
>  <vina_dock>  (50) 
-9.519

$$$$
O14757_PocketFlow_idx-in-all-generaetd-339
     RDKit          3D

 35 37  0  0  0  0  0  0  0  0999 V2000
    2.2980   -4.7830   45.9640 C   0  0  0  0  0  0  0  0  0  0  0  0
    3.0710   -4.8080   44.6430 C   0  0  0  0  0  0  0  0  0  0  0  0
    3.9530   -3.5840   44.4710 C   0  0  0  0  0  0  0  0  0  0  0  0
    3.5890   -2.4520   43.7000 C   0  0  0  0  0  0  0  0  0  0  0  0
    4.5260   -1.3950   43.6000 C   0  0  0  0  0  0  0  0  0  0  0  0
    5.7500   -1.4350   44.2900 C   0  0  0  0  0  0  0  0  0  0  0  0
    5.1940   -3.6000   45.1450 C   0  0  0  0  0  0  0  0  0  0  0  0
    6.1020   -2.5370   45.0740 C   0  0  0  0  0  0  0  0  0  0  0  0
    2.2220   -2.3490   43.0430 C   0  0  0  0  0  0  0  0  0  0  0  0
    2.3030   -2.2480   41.5100 C   0  0  0  0  0  0  0  0  0  0  0  0
    1.6090   -1.0420   41.0420 N   0  0  0  0  0  0  0  0  0  0  0  0
    0.2520   -0.9840   41.5710 C   0  0  0  0  0  0  0  0  0  0  0  0
    4.3080   -0.1640   42.8070 C   0  0  0  0  0  0  0  0  0  0  0  0
    3.4700    0.6880   43.0310 O   0  0  0  0  0  0  0  0  0  0  0  0
    5.2200   -0.0190   41.8330 O   0  0  0  0  0  0  0  0  0  0  0  0
    7.3830   -2.5800   45.7960 C   0  0  0  0  0  0  0  0  0  0  0  0
    8.2090   -1.4440   45.8690 C   0  0  0  0  0  0  0  0  0  0  0  0
    7.8140   -3.7580   46.4330 C   0  0  0  0  0  0  0  0  0  0  0  0
    9.4260   -1.4830   46.5550 C   0  0  0  0  0  0  0  0  0  0  0  0
    9.0300   -3.7980   47.1200 C   0  0  0  0  0  0  0  0  0  0  0  0
    9.8240   -2.6610   47.1740 C   0  0  0  0  0  0  0  0  0  0  0  0
   10.9900   -2.6990   47.8330 F   0  0  0  0  0  0  0  0  0  0  0  0
    0.7880   -4.7750   45.7180 C   0  0  0  0  0  0  0  0  0  0  0  0
    0.3930   -5.3250   44.3440 C   0  0  0  0  0  0  0  0  0  0  0  0
    0.3630   -6.8540   44.2260 C   0  0  0  0  0  0  0  0  0  0  0  0
   -0.9540   -7.5060   44.5980 C   0  0  0  0  0  0  0  0  0  0  0  0
   -1.2260   -8.0390   45.8780 C   0  0  0  0  0  0  0  0  0  0  0  0
   -1.9490   -7.5900   43.6040 C   0  0  0  0  0  0  0  0  0  0  0  0
   -2.4840   -8.6290   46.1180 C   0  0  0  0  0  0  0  0  0  0  0  0
   -3.1880   -8.1750   43.8630 C   0  0  0  0  0  0  0  0  0  0  0  0
   -3.4570   -8.6950   45.1220 C   0  0  0  0  0  0  0  0  0  0  0  0
   -0.2360   -8.0150   47.0270 C   0  0  0  0  0  0  0  0  0  0  0  0
    0.8950   -9.0120   46.9730 C   0  0  0  0  0  0  0  0  0  0  0  0
    2.1770   -8.7840   46.6370 C   0  0  0  0  0  0  0  0  0  0  0  0
    3.2330   -9.8410   46.6050 C   0  0  0  0  0  0  0  0  0  0  0  0
  1  2  1  0
  1 23  1  0
  2  3  1  0
  3  4  2  0
  3  7  1  0
  4  9  1  0
  4  5  1  0
  5 13  1  0
  5  6  2  0
  6  8  1  0
  7  8  2  0
  8 16  1  0
  9 10  1  0
 10 11  1  0
 11 12  1  0
 13 15  1  0
 13 14  2  0
 16 17  2  0
 16 18  1  0
 17 19  1  0
 18 20  2  0
 19 21  2  0
 20 21  1  0
 21 22  1  0
 23 24  1  0
 24 25  1  0
 25 26  1  0
 26 28  1  0
 26 27  2  0
 27 29  1  0
 27 32  1  0
 28 30  2  0
 29 31  2  0
 30 31  1  0
 32 33  1  0
 33 34  2  3
 34 35  1  0
M  END
>  <vina_dock>  (51) 
-8.081

$$$$
O14757_PocketFlow_idx-in-all-generaetd-685
     RDKit          3D

  5  4  0  0  0  0  0  0  0  0999 V2000
    4.6700   -0.9490   45.0410 F   0  0  0  0  0  0  0  0  0  0  0  0
    5.4280   -1.1490   43.9500 C   0  0  0  0  0  0  0  0  0  0  0  0
    6.7140   -1.2860   44.3150 F   0  0  0  0  0  0  0  0  0  0  0  0
    5.0200   -2.2650   43.3210 F   0  0  0  0  0  0  0  0  0  0  0  0
    5.3070   -0.0980   43.1220 F   0  0  0  0  0  0  0  0  0  0  0  0
  1  2  1  0
  2  5  1  0
  2  4  1  0
  2  3  1  0
M  END
>  <vina_dock>  (52) 
-3.01

$$$$
O14757_PocketFlow_idx-in-all-generaetd-127
     RDKit          3D

 32 37  0  0  0  0  0  0  0  0999 V2000
    2.2080   -2.5710   43.1570 C   0  0  0  0  0  0  0  0  0  0  0  0
    3.2630   -1.7050   42.8610 C   0  0  0  0  0  0  0  0  0  0  0  0
    2.3880   -3.4930   44.1950 C   0  0  0  0  0  0  0  0  0  0  0  0
    3.5890   -3.5560   44.9290 C   0  0  0  0  0  0  0  0  0  0  0  0
    3.7120   -4.4900   45.9610 C   0  0  0  0  0  0  0  0  0  0  0  0
    4.9130   -4.5470   46.6320 C   0  0  0  0  0  0  0  0  0  0  0  0
    6.0120   -3.7320   46.3530 C   0  0  0  0  0  0  0  0  0  0  0  0
    5.8780   -2.7350   45.4120 C   0  0  0  0  0  0  0  0  0  0  0  0
    4.6670   -2.6650   44.6400 C   0  0  0  0  0  0  0  0  0  0  0  0
    4.4620   -1.7510   43.5820 C   0  0  0  0  0  0  0  0  0  0  0  0
    5.2320   -5.3840   47.6830 N   0  0  0  0  0  0  0  0  0  0  0  0
    6.7860   -1.6750   45.3240 N   0  0  0  0  0  0  0  0  0  0  0  0
    7.9280   -1.4510   46.0260 C   0  0  0  0  0  0  0  0  0  0  0  0
    8.8200   -2.5520   46.4410 C   0  0  0  0  0  0  0  0  0  0  0  0
   10.1850   -2.2280   46.2450 C   0  0  0  0  0  0  0  0  0  0  0  0
   11.1970   -3.1210   46.5610 C   0  0  0  0  0  0  0  0  0  0  0  0
   10.8470   -4.3530   47.0910 C   0  0  0  0  0  0  0  0  0  0  0  0
    9.5000   -4.6860   47.3560 C   0  0  0  0  0  0  0  0  0  0  0  0
    8.4360   -3.7870   47.0020 C   0  0  0  0  0  0  0  0  0  0  0  0
    7.0700   -4.1440   47.1990 N   0  0  0  0  0  0  0  0  0  0  0  0
    8.2970   -0.2850   46.1730 O   0  0  0  0  0  0  0  0  0  0  0  0
    6.5520   -5.1450   48.0680 C   0  0  0  0  0  0  0  0  0  0  0  0
    7.0870   -5.7320   48.9970 O   0  0  0  0  0  0  0  0  0  0  0  0
    0.9730   -2.4820   42.3730 C   0  0  0  0  0  0  0  0  0  0  0  0
    0.2850   -3.5400   41.8300 N   0  0  0  0  0  0  0  0  0  0  0  0
    0.3190   -1.3780   42.0600 N   0  0  0  0  0  0  0  0  0  0  0  0
   -0.7940   -3.0160   41.1880 C   0  0  0  0  0  0  0  0  0  0  0  0
   -0.7890   -1.7130   41.3170 N   0  0  0  0  0  0  0  0  0  0  0  0
    9.3030   -6.0410   47.7220 N   0  0  0  0  0  0  0  0  0  0  0  0
   12.6040   -2.7390   46.2960 C   0  0  0  0  0  0  0  0  0  0  0  0
   13.5790   -3.4410   46.4840 O   0  0  0  0  0  0  0  0  0  0  0  0
   12.7230   -1.4940   45.8030 O   0  0  0  0  0  0  0  0  0  0  0  0
  1 24  1  0
  1  2  2  0
  1  3  1  0
  2 10  1  0
  3  4  2  0
  4  9  1  0
  4  5  1  0
  5  6  2  0
  6  7  1  0
  6 11  1  0
  7  8  2  0
  7 20  1  0
  8  9  1  0
  8 12  1  0
  9 10  2  0
 11 22  1  0
 12 13  1  0
 13 21  2  0
 13 14  1  0
 14 15  1  0
 14 19  2  0
 15 16  2  0
 16 30  1  0
 16 17  1  0
 17 18  2  0
 18 19  1  0
 18 29  1  0
 19 20  1  0
 20 22  1  0
 22 23  2  0
 24 25  1  0
 24 26  2  0
 25 27  1  0
 26 28  1  0
 27 28  2  0
 30 32  1  0
 30 31  2  0
M  END
>  <vina_dock>  (53) 
-9.719

$$$$
O14757_PocketFlow_idx-in-all-generaetd-388
     RDKit          3D

 30 33  0  0  0  0  0  0  0  0999 V2000
    4.9040   -4.8730   47.1700 C   0  0  0  0  0  0  0  0  0  0  0  0
    6.0060   -4.9030   48.0240 C   0  0  0  0  0  0  0  0  0  0  0  0
    4.8000   -3.9430   46.1070 C   0  0  0  0  0  0  0  0  0  0  0  0
    5.8430   -2.9920   45.9300 C   0  0  0  0  0  0  0  0  0  0  0  0
    5.7440   -2.0050   44.8960 C   0  0  0  0  0  0  0  0  0  0  0  0
    4.6570   -2.0240   44.0000 C   0  0  0  0  0  0  0  0  0  0  0  0
    3.6550   -2.9950   44.1770 C   0  0  0  0  0  0  0  0  0  0  0  0
    3.6980   -3.9400   45.2130 C   0  0  0  0  0  0  0  0  0  0  0  0
    7.0400   -4.0050   47.8330 C   0  0  0  0  0  0  0  0  0  0  0  0
    6.9580   -3.0680   46.8020 C   0  0  0  0  0  0  0  0  0  0  0  0
    2.5880   -4.9050   45.3040 C   0  0  0  0  0  0  0  0  0  0  0  0
    2.7560   -6.2350   44.8960 C   0  0  0  0  0  0  0  0  0  0  0  0
    1.3320   -4.5080   45.7820 C   0  0  0  0  0  0  0  0  0  0  0  0
    1.6970   -7.1450   44.9700 C   0  0  0  0  0  0  0  0  0  0  0  0
    0.2730   -5.4210   45.8540 C   0  0  0  0  0  0  0  0  0  0  0  0
    0.4370   -6.7550   45.4500 C   0  0  0  0  0  0  0  0  0  0  0  0
   -0.6810   -7.7120   45.5210 C   0  0  0  0  0  0  0  0  0  0  0  0
   -1.7580   -7.6370   44.6210 C   0  0  0  0  0  0  0  0  0  0  0  0
   -0.7050   -8.7270   46.4910 C   0  0  0  0  0  0  0  0  0  0  0  0
   -2.8190   -8.5440   44.6890 C   0  0  0  0  0  0  0  0  0  0  0  0
   -1.7650   -9.6350   46.5600 C   0  0  0  0  0  0  0  0  0  0  0  0
   -2.8220   -9.5420   45.6590 C   0  0  0  0  0  0  0  0  0  0  0  0
    6.8210   -1.1160   44.6700 N   0  0  0  0  0  0  0  0  0  0  0  0
    4.4910   -1.0350   42.8530 C   0  0  2  0  0  0  0  0  0  0  0  0
    4.4110    0.2710   43.2590 F   0  0  0  0  0  0  0  0  0  0  0  0
    3.2530   -1.3180   42.0390 C   0  0  0  0  0  0  0  0  0  0  0  0
    2.1190   -0.6010   42.1000 C   0  0  0  0  0  0  0  0  0  0  0  0
    0.9600   -0.9110   41.2960 C   0  0  0  0  0  0  0  0  0  0  0  0
    0.2040   -2.0160   41.3780 C   0  0  0  0  0  0  0  0  0  0  0  0
    0.3530   -3.1850   42.2970 C   0  0  0  0  0  0  0  0  0  0  0  0
  1  3  2  0
  1  2  1  0
  2  9  2  0
  3  8  1  0
  3  4  1  0
  4  5  1  0
  4 10  2  0
  5  6  2  0
  5 23  1  0
  6 24  1  0
  6  7  1  0
  7  8  2  0
  8 11  1  0
  9 10  1  0
 11 12  2  0
 11 13  1  0
 12 14  1  0
 13 15  2  0
 14 16  2  0
 15 16  1  0
 16 17  1  0
 17 18  2  0
 17 19  1  0
 18 20  1  0
 19 21  2  0
 20 22  2  0
 21 22  1  0
 24 26  1  0
 24 25  1  1
 26 27  2  3
 27 28  1  0
 28 29  2  3
 29 30  1  0
M  END
>  <vina_dock>  (54) 
-10.713

$$$$
O14757_PocketFlow_idx-in-all-generaetd-436
     RDKit          3D

 11 11  0  0  0  0  0  0  0  0999 V2000
    0.3760   -3.0860   42.3650 C   0  0  1  0  0  0  0  0  0  0  0  0
    0.1960   -3.4220   40.8890 C   0  0  0  0  0  0  0  0  0  0  0  0
    0.0760   -4.2510   43.1290 O   0  0  0  0  0  0  0  0  0  0  0  0
    1.7360   -2.6130   42.7940 C   0  0  0  0  0  0  0  0  0  0  0  0
    2.5900   -3.2390   43.6220 C   0  0  0  0  0  0  0  0  0  0  0  0
    3.9070   -2.7050   44.0000 C   0  0  0  0  0  0  0  0  0  0  0  0
    4.7210   -3.3270   44.9560 C   0  0  0  0  0  0  0  0  0  0  0  0
    4.3400   -1.5030   43.4280 C   0  0  0  0  0  0  0  0  0  0  0  0
    5.9530   -2.7730   45.3110 C   0  0  0  0  0  0  0  0  0  0  0  0
    5.5730   -0.9480   43.7820 C   0  0  0  0  0  0  0  0  0  0  0  0
    6.3800   -1.5840   44.7230 C   0  0  0  0  0  0  0  0  0  0  0  0
  1  2  1  6
  1  4  1  0
  1  3  1  0
  4  5  2  3
  5  6  1  0
  6  8  2  0
  6  7  1  0
  7  9  2  0
  8 10  1  0
  9 11  1  0
 10 11  2  0
M  END
>  <vina_dock>  (55) 
-6.109

$$$$
O14757_PocketFlow_idx-in-all-generaetd-457
     RDKit          3D

 10  9  0  0  0  0  0  0  0  0999 V2000
    2.4630   -3.3710   43.5340 C   0  0  0  0  0  0  0  0  0  0  0  0
    3.2290   -3.3610   44.6360 C   0  0  0  0  0  0  0  0  0  0  0  0
    0.9610   -3.4530   43.4680 C   0  0  0  0  0  0  0  0  0  0  0  0
    0.2990   -2.9760   42.1710 C   0  0  0  0  0  0  0  0  0  0  0  0
    1.3020   -2.2450   41.2900 C   0  0  0  0  0  0  0  0  0  0  0  0
    1.2110   -0.4900   41.5680 Cl  0  0  0  0  0  0  0  0  0  0  0  0
    4.6730   -3.2800   44.5800 C   0  0  0  0  0  0  0  0  0  0  0  0
    5.4210   -2.1900   44.3420 C   0  0  0  0  0  0  0  0  0  0  0  0
    4.9570   -0.8440   44.0880 C   0  0  0  0  0  0  0  0  0  0  0  0
    4.8040   -0.3530   42.8520 C   0  0  0  0  0  0  0  0  0  0  0  0
  1  3  1  0
  1  2  2  3
  2  7  1  0
  3  4  1  0
  4  5  1  0
  5  6  1  0
  7  8  2  3
  8  9  1  0
  9 10  2  0
M  END
>  <vina_dock>  (56) 
-5.061

$$$$
O14757_PocketFlow_idx-in-all-generaetd-141
     RDKit          3D

 16 17  0  0  0  0  0  0  0  0999 V2000
    4.3210   -2.5430   44.1020 C   0  0  0  0  0  0  0  0  0  0  0  0
    4.7170   -3.5160   45.0200 C   0  0  0  0  0  0  0  0  0  0  0  0
    5.2260   -1.4970   43.8890 C   0  0  0  0  0  0  0  0  0  0  0  0
    5.8880   -3.5110   45.7030 N   0  0  0  0  0  0  0  0  0  0  0  0
    6.7380   -2.4850   45.4710 C   0  0  0  0  0  0  0  0  0  0  0  0
    6.4400   -1.4630   44.5750 C   0  0  0  0  0  0  0  0  0  0  0  0
    3.0310   -2.6110   43.4020 C   0  0  0  0  0  0  0  0  0  0  0  0
   -0.9510   -2.8170   41.2410 Cl  0  0  0  0  0  0  0  0  0  0  0  0
    0.5590   -2.7390   42.0600 C   0  0  0  0  0  0  0  0  0  0  0  0
    0.8040   -3.5790   43.1420 C   0  0  0  0  0  0  0  0  0  0  0  0
    1.5290   -1.8360   41.6380 C   0  0  0  0  0  0  0  0  0  0  0  0
    2.0330   -3.5150   43.8080 C   0  0  0  0  0  0  0  0  0  0  0  0
    2.7570   -1.7730   42.3070 C   0  0  0  0  0  0  0  0  0  0  0  0
    8.0310   -2.4750   46.2460 C   0  0  0  0  0  0  0  0  0  0  0  0
    8.8280   -1.1780   46.0830 C   0  0  0  0  0  0  0  0  0  0  0  0
   10.2960   -1.3250   46.4620 C   0  0  0  0  0  0  0  0  0  0  0  0
  1  7  1  0
  1  3  1  0
  1  2  2  0
  2  4  1  0
  3  6  2  0
  4  5  2  0
  5  6  1  0
  5 14  1  0
  7 13  2  0
  7 12  1  0
  8  9  1  0
  9 11  2  0
  9 10  1  0
 10 12  2  0
 11 13  1  0
 14 15  1  0
 15 16  1  0
M  END
>  <vina_dock>  (57) 
-7.466

$$$$
O14757_PocketFlow_idx-in-all-generaetd-467
     RDKit          3D

  5  4  0  0  0  0  0  0  0  0999 V2000
    4.1100   -2.9310   43.9460 C   0  0  0  0  0  0  0  0  0  0  0  0
    2.6890   -3.4710   43.8650 C   0  0  0  0  0  0  0  0  0  0  0  0
    2.0760   -2.9230   42.7810 F   0  0  0  0  0  0  0  0  0  0  0  0
    4.4380   -1.7270   43.1050 C   0  0  0  0  0  0  0  0  0  0  0  0
    5.1250   -0.6370   43.4720 C   0  0  0  0  0  0  0  0  0  0  0  0
  1  4  1  0
  1  2  1  0
  2  3  1  0
  4  5  2  0
M  END
>  <vina_dock>  (58) 
-3.002

$$$$
O14757_PocketFlow_idx-in-all-generaetd-800
     RDKit          3D

 22 24  0  0  0  0  0  0  0  0999 V2000
    1.5880   -3.6170   44.6930 C   0  0  0  0  0  0  0  0  0  0  0  0
    2.5830   -3.6740   43.5250 C   0  0  0  0  0  0  0  0  0  0  0  0
    3.5730   -2.5420   43.5120 C   0  0  0  0  0  0  0  0  0  0  0  0
    4.7590   -2.6040   44.2510 C   0  0  0  0  0  0  0  0  0  0  0  0
    3.3340   -1.3830   42.7740 C   0  0  0  0  0  0  0  0  0  0  0  0
    5.6370   -1.5310   44.2140 C   0  0  0  0  0  0  0  0  0  0  0  0
    4.1780   -0.3240   42.7210 N   0  0  0  0  0  0  0  0  0  0  0  0
    6.7790   -1.5680   44.9120 F   0  0  0  0  0  0  0  0  0  0  0  0
    5.3160   -0.4260   43.4460 C   0  0  0  0  0  0  0  0  0  0  0  0
    1.8980   -4.5820   45.8620 C   0  0  2  0  0  0  0  0  0  0  0  0
    2.7180   -5.7990   45.3950 C   0  0  0  0  0  0  0  0  0  0  0  0
    0.7940   -4.9210   46.7570 N   0  0  0  0  0  0  0  0  0  0  0  0
    2.0380   -6.8460   44.5120 C   0  0  0  0  0  0  0  0  0  0  0  0
   -0.5190   -5.1890   46.1900 C   0  0  0  0  0  0  0  0  0  0  0  0
    1.0760   -7.8770   45.1550 C   0  0  1  0  0  0  0  0  0  0  0  0
   -1.0180   -6.6500   46.2040 C   0  0  1  0  0  0  0  0  0  0  0  0
    1.5710   -8.4240   46.5070 C   0  0  0  0  0  0  0  0  0  0  0  0
   -0.4240   -7.5290   45.0910 C   0  0  1  0  0  0  0  0  0  0  0  0
   -1.0530   -7.2640   47.5890 C   0  0  0  0  0  0  0  0  0  0  0  0
    0.5450   -9.2350   47.2960 C   0  0  0  0  0  0  0  0  0  0  0  0
   -0.4460   -8.3770   48.0300 C   0  0  0  0  0  0  0  0  0  0  0  0
   -0.7360   -6.9770   43.8040 O   0  0  0  0  0  0  0  0  0  0  0  0
  1  2  1  0
 10  1  1  6
  2  3  1  0
  3  5  1  0
  3  4  2  0
  4  6  1  0
  5  7  2  0
  6  9  2  0
  6  8  1  0
  7  9  1  0
 10 11  1  0
 10 12  1  0
 11 13  1  0
 12 14  1  0
 15 13  1  1
 16 14  1  1
 15 18  1  0
 15 17  1  0
 16 18  1  0
 16 19  1  0
 17 20  1  0
 18 22  1  6
 19 21  2  0
 20 21  1  0
M  END
>  <vina_dock>  (59) 
-7.282

$$$$
O14757_PocketFlow_idx-in-all-generaetd-131
     RDKit          3D

 18 19  0  0  0  0  0  0  0  0999 V2000
   -1.8530   -8.0780   44.9870 C   0  0  0  0  0  0  0  0  0  0  0  0
   -1.4370   -8.9140   46.0310 C   0  0  0  0  0  0  0  0  0  0  0  0
   -0.1410   -8.8210   46.5330 C   0  0  0  0  0  0  0  0  0  0  0  0
    0.7510   -7.8890   46.0000 C   0  0  0  0  0  0  0  0  0  0  0  0
    0.3590   -7.0450   44.9550 C   0  0  0  0  0  0  0  0  0  0  0  0
   -0.9520   -7.1350   44.4680 C   0  0  0  0  0  0  0  0  0  0  0  0
   -3.2640   -8.1460   44.4680 C   0  0  0  0  0  0  0  0  0  0  0  0
   -3.2980   -7.8730   43.0740 O   0  0  0  0  0  0  0  0  0  0  0  0
    1.2570   -6.0270   44.3940 C   0  0  0  0  0  0  0  0  0  0  0  0
    1.2230   -4.7310   44.7440 C   0  0  0  0  0  0  0  0  0  0  0  0
    2.1420   -3.7500   44.1460 C   0  0  0  0  0  0  0  0  0  0  0  0
    1.7540   -3.0210   42.9980 C   0  0  0  0  0  0  0  0  0  0  0  0
    3.4140   -3.5180   44.7050 C   0  0  0  0  0  0  0  0  0  0  0  0
    0.4090   -3.2180   42.3480 C   0  0  0  0  0  0  0  0  0  0  0  0
    2.6350   -2.0710   42.4540 C   0  0  0  0  0  0  0  0  0  0  0  0
    4.0350   -4.4600   46.2390 Br  0  0  0  0  0  0  0  0  0  0  0  0
    4.2790   -2.5740   44.1440 C   0  0  0  0  0  0  0  0  0  0  0  0
    3.8880   -1.8500   43.0230 C   0  0  0  0  0  0  0  0  0  0  0  0
  1  7  1  0
  1  6  2  0
  1  2  1  0
  2  3  2  0
  3  4  1  0
  4  5  2  0
  5  9  1  0
  5  6  1  0
  7  8  1  0
  9 10  2  3
 10 11  1  0
 11 12  2  0
 11 13  1  0
 12 14  1  0
 12 15  1  0
 13 17  2  0
 13 16  1  0
 15 18  2  0
 17 18  1  0
M  END
>  <vina_dock>  (60) 
-8.114

$$$$
O14757_PocketFlow_idx-in-all-generaetd-23
     RDKit          3D

 14 15  0  0  0  0  0  0  0  0999 V2000
    2.7390   -7.1220   44.3410 O   0  0  0  0  0  0  0  0  0  0  0  0
    2.1850   -6.1900   44.9130 C   0  0  0  0  0  0  0  0  0  0  0  0
    0.9930   -6.3600   45.5600 N   0  0  0  0  0  0  0  0  0  0  0  0
    0.3830   -5.3000   46.2910 C   0  0  0  0  0  0  0  0  0  0  0  0
    0.3080   -4.1880   45.3850 N   0  0  0  0  0  0  0  0  0  0  0  0
    1.6160   -3.7550   44.8620 C   0  0  1  0  0  0  0  0  0  0  0  0
    2.7530   -4.7940   45.0470 C   0  0  2  0  0  0  0  0  0  0  0  0
    3.9900   -4.5750   44.1800 C   0  0  0  0  0  0  0  0  0  0  0  0
    1.4330   -3.2620   43.4330 C   0  0  0  0  0  0  0  0  0  0  0  0
    0.4020   -3.7790   42.6320 C   0  0  0  0  0  0  0  0  0  0  0  0
    2.2760   -2.2800   42.8870 C   0  0  0  0  0  0  0  0  0  0  0  0
    0.2180   -3.3230   41.3250 C   0  0  0  0  0  0  0  0  0  0  0  0
    2.0910   -1.8260   41.5800 C   0  0  0  0  0  0  0  0  0  0  0  0
    1.0600   -2.3470   40.8000 C   0  0  0  0  0  0  0  0  0  0  0  0
  1  2  2  0
  2  7  1  0
  2  3  1  0
  3  4  1  0
  4  5  1  0
  5  6  1  0
  6  9  1  6
  6  7  1  0
  7  8  1  6
  9 10  2  0
  9 11  1  0
 10 12  1  0
 11 13  2  0
 12 14  2  0
 13 14  1  0
M  END
>  <vina_dock>  (61) 
-6.581

$$$$
O14757_PocketFlow_idx-in-all-generaetd-532
     RDKit          3D

 35 38  0  0  0  0  0  0  0  0999 V2000
    3.8130   -4.3300   46.4470 O   0  0  0  0  0  0  0  0  0  0  0  0
    4.9840   -4.7540   46.9790 C   0  0  0  0  0  0  0  0  0  0  0  0
    5.1530   -5.7840   47.6090 O   0  0  0  0  0  0  0  0  0  0  0  0
    6.0680   -3.7740   46.7020 C   0  0  0  0  0  0  0  0  0  0  0  0
   10.4560   -1.2050   46.7230 C   0  0  0  0  0  0  0  0  0  0  0  0
    9.2510   -1.0740   46.0300 C   0  0  0  0  0  0  0  0  0  0  0  0
   10.5990   -2.2450   47.6450 C   0  0  0  0  0  0  0  0  0  0  0  0
    8.1870   -1.9690   46.2480 C   0  0  0  0  0  0  0  0  0  0  0  0
    9.5530   -3.1420   47.8720 C   0  0  0  0  0  0  0  0  0  0  0  0
    6.9740   -1.8440   45.5540 C   0  0  0  0  0  0  0  0  0  0  0  0
    8.3390   -3.0160   47.1820 C   0  0  0  0  0  0  0  0  0  0  0  0
    5.9220   -2.7370   45.7760 C   0  0  0  0  0  0  0  0  0  0  0  0
    7.2770   -3.9100   47.3990 C   0  0  0  0  0  0  0  0  0  0  0  0
   11.5550   -0.3430   46.5500 N   0  0  0  0  0  0  0  0  0  0  0  0
   12.8570   -0.5590   46.9120 C   0  0  0  0  0  0  0  0  0  0  0  0
   13.6580   -1.3750   46.4900 O   0  0  0  0  0  0  0  0  0  0  0  0
   13.5040    0.6060   48.2910 Br  0  0  0  0  0  0  0  0  0  0  0  0
    3.4070   -5.0580   45.2770 C   0  0  0  0  0  0  0  0  0  0  0  0
    2.6380   -4.1560   44.3240 C   0  0  0  0  0  0  0  0  0  0  0  0
    3.2720   -3.0480   43.7310 C   0  0  0  0  0  0  0  0  0  0  0  0
    1.2650   -4.3790   44.0670 C   0  0  0  0  0  0  0  0  0  0  0  0
    2.5850   -2.2010   42.8590 C   0  0  0  0  0  0  0  0  0  0  0  0
    0.5860   -3.5150   43.1860 C   0  0  0  0  0  0  0  0  0  0  0  0
    1.2410   -2.4440   42.5700 C   0  0  0  0  0  0  0  0  0  0  0  0
    0.5140   -5.4780   44.6930 C   0  0  0  0  0  0  0  0  0  0  0  0
    0.0210   -6.5400   43.9190 C   0  0  0  0  0  0  0  0  0  0  0  0
    0.2640   -5.4820   46.0730 C   0  0  0  0  0  0  0  0  0  0  0  0
   -0.6970   -7.5810   44.5120 C   0  0  0  0  0  0  0  0  0  0  0  0
   -0.4530   -6.5230   46.6660 C   0  0  0  0  0  0  0  0  0  0  0  0
   -0.9320   -7.5730   45.8840 C   0  0  0  0  0  0  0  0  0  0  0  0
    0.4660   -1.5710   41.6480 C   0  0  0  0  0  0  0  0  0  0  0  0
    1.0460   -0.7650   40.9300 O   0  0  0  0  0  0  0  0  0  0  0  0
   -0.9060   -1.7100   41.6920 N   0  0  0  0  0  0  0  0  0  0  0  0
   -1.7740   -0.8480   40.9150 C   0  0  0  0  0  0  0  0  0  0  0  0
   -3.0650   -1.5490   40.5310 C   0  0  0  0  0  0  0  0  0  0  0  0
  1 18  1  0
  1  2  1  0
  2  4  1  0
  2  3  2  0
  4 12  2  0
  4 13  1  0
  5  6  2  0
  5 14  1  0
  5  7  1  0
  6  8  1  0
  7  9  2  0
  8 10  2  0
  8 11  1  0
  9 11  1  0
 10 12  1  0
 11 13  2  0
 14 15  1  0
 15 16  2  0
 15 17  1  0
 18 19  1  0
 19 20  2  0
 19 21  1  0
 20 22  1  0
 21 23  2  0
 21 25  1  0
 22 24  2  0
 23 24  1  0
 24 31  1  0
 25 26  2  0
 25 27  1  0
 26 28  1  0
 27 29  2  0
 28 30  2  0
 29 30  1  0
 31 32  2  0
 31 33  1  0
 33 34  1  0
 34 35  1  0
M  END
>  <vina_dock>  (62) 
-9.135

$$$$
O14757_PocketFlow_idx-in-all-generaetd-350
     RDKit          3D

 32 36  0  0  0  0  0  0  0  0999 V2000
    4.4310   -2.6610   43.3360 C   0  0  0  0  0  0  0  0  0  0  0  0
    4.9860   -1.4710   44.1490 C   0  0  2  0  0  0  0  0  0  0  0  0
    5.0900   -0.2050   43.2880 C   0  0  0  0  0  0  0  0  0  0  0  0
    6.3640   -1.8620   44.7380 C   0  0  0  0  0  0  0  0  0  0  0  0
    6.2860   -2.7960   45.9330 C   0  0  0  0  0  0  0  0  0  0  0  0
    9.8750   -3.6510   46.7710 C   0  0  0  0  0  0  0  0  0  0  0  0
    8.7690   -3.0770   46.1360 C   0  0  0  0  0  0  0  0  0  0  0  0
    9.6880   -4.5150   47.8420 C   0  0  0  0  0  0  0  0  0  0  0  0
    7.4440   -3.3530   46.5490 C   0  0  0  0  0  0  0  0  0  0  0  0
    8.3960   -4.8030   48.2780 C   0  0  0  0  0  0  0  0  0  0  0  0
    7.2740   -4.2340   47.6490 C   0  0  0  0  0  0  0  0  0  0  0  0
    5.0100   -3.1180   46.4280 C   0  0  0  0  0  0  0  0  0  0  0  0
    5.9860   -4.5370   48.1120 C   0  0  0  0  0  0  0  0  0  0  0  0
    4.8600   -3.9820   47.5080 C   0  0  0  0  0  0  0  0  0  0  0  0
    2.9020   -2.6590   43.2160 C   0  0  0  0  0  0  0  0  0  0  0  0
    2.2880   -3.7870   44.0070 C   0  0  0  0  0  0  0  0  0  0  0  0
    0.9840   -3.6840   44.4900 C   0  0  0  0  0  0  0  0  0  0  0  0
    3.0030   -4.9670   44.2470 C   0  0  0  0  0  0  0  0  0  0  0  0
    0.4110   -4.7390   45.2070 C   0  0  0  0  0  0  0  0  0  0  0  0
    2.4380   -6.0340   44.9680 C   0  0  0  0  0  0  0  0  0  0  0  0
    1.1150   -5.9360   45.4670 C   0  0  0  0  0  0  0  0  0  0  0  0
    3.1870   -7.2010   45.1930 C   0  0  0  0  0  0  0  0  0  0  0  0
    0.5710   -7.0350   46.1950 C   0  0  0  0  0  0  0  0  0  0  0  0
    2.6490   -8.2710   45.9010 C   0  0  0  0  0  0  0  0  0  0  0  0
    1.3520   -8.1890   46.3980 C   0  0  0  0  0  0  0  0  0  0  0  0
   -0.8330   -7.0190   46.7770 C   0  0  0  0  0  0  0  0  0  0  0  0
   -1.8680   -7.8090   46.0000 C   0  0  0  0  0  0  0  0  0  0  0  0
   -2.6120   -8.8350   46.6040 C   0  0  0  0  0  0  0  0  0  0  0  0
   -2.0630   -7.5490   44.6340 C   0  0  0  0  0  0  0  0  0  0  0  0
   -3.5530   -9.5600   45.8680 C   0  0  0  0  0  0  0  0  0  0  0  0
   -3.0040   -8.2740   43.8990 C   0  0  0  0  0  0  0  0  0  0  0  0
   -3.7520   -9.2750   44.5170 C   0  0  0  0  0  0  0  0  0  0  0  0
  1 15  1  0
  1  2  1  0
  2  3  1  6
  2  4  1  0
  4  5  1  0
  5 12  1  0
  5  9  2  0
  6  7  2  0
  6  8  1  0
  7  9  1  0
  8 10  2  0
  9 11  1  0
 10 11  1  0
 11 13  2  0
 12 14  2  0
 13 14  1  0
 15 16  1  0
 16 18  1  0
 16 17  2  0
 17 19  1  0
 18 20  2  0
 19 21  2  0
 20 22  1  0
 20 21  1  0
 21 23  1  0
 22 24  2  0
 23 25  2  0
 23 26  1  0
 24 25  1  0
 26 27  1  0
 27 29  1  0
 27 28  2  0
 28 30  1  0
 29 31  2  0
 30 32  2  0
 31 32  1  0
M  END
>  <vina_dock>  (63) 
-9.292

$$$$
O14757_PocketFlow_idx-in-all-generaetd-545
     RDKit          3D

 28 29  0  0  0  0  0  0  0  0999 V2000
   -1.6160   -7.4380   45.2520 C   0  0  0  0  0  0  0  0  0  0  0  0
   -1.1580   -6.6370   46.3080 C   0  0  0  0  0  0  0  0  0  0  0  0
   -0.8720   -7.4570   44.0630 C   0  0  0  0  0  0  0  0  0  0  0  0
    0.0200   -5.8940   46.1840 C   0  0  0  0  0  0  0  0  0  0  0  0
    0.3030   -6.7100   43.9360 C   0  0  0  0  0  0  0  0  0  0  0  0
    0.7610   -5.9200   44.9970 C   0  0  0  0  0  0  0  0  0  0  0  0
   -2.9080   -8.2410   45.3300 C   0  0  1  0  0  0  0  0  0  0  0  0
   -3.7270   -8.2070   44.0320 C   0  0  0  0  0  0  0  0  0  0  0  0
   -2.6170   -9.6740   45.7230 C   0  0  0  0  0  0  0  0  0  0  0  0
   -2.4290  -10.1860   46.9500 C   0  0  0  0  0  0  0  0  0  0  0  0
   -2.4360   -9.4320   48.2160 C   0  0  0  0  0  0  0  0  0  0  0  0
   -3.3800   -8.9580   48.8140 O   0  0  0  0  0  0  0  0  0  0  0  0
   -1.1780   -9.3210   48.6810 O   0  0  0  0  0  0  0  0  0  0  0  0
    2.0330   -5.1170   44.8640 C   0  0  0  0  0  0  0  0  0  0  0  0
    1.9000   -3.9160   43.9500 C   0  0  0  0  0  0  0  0  0  0  0  0
    0.7150   -3.7550   43.2100 C   0  0  0  0  0  0  0  0  0  0  0  0
    2.9350   -2.9820   43.7510 C   0  0  0  0  0  0  0  0  0  0  0  0
    0.5730   -2.7040   42.3000 C   0  0  0  0  0  0  0  0  0  0  0  0
    2.8040   -1.9370   42.8270 C   0  0  0  0  0  0  0  0  0  0  0  0
    1.6190   -1.8030   42.1100 C   0  0  0  0  0  0  0  0  0  0  0  0
    1.4400   -0.5130   40.9860 Cl  0  0  0  0  0  0  0  0  0  0  0  0
    4.2090   -3.0390   44.5000 C   0  0  0  0  0  0  0  0  0  0  0  0
    4.0590   -2.9860   45.8750 N   0  0  0  0  0  0  0  0  0  0  0  0
    5.2680   -3.0920   43.8900 O   0  0  0  0  0  0  0  0  0  0  0  0
    5.1250   -3.0930   46.7380 C   0  0  0  0  0  0  0  0  0  0  0  0
    5.5300   -4.2300   47.3150 C   0  0  0  0  0  0  0  0  0  0  0  0
    4.8800   -5.4280   47.1960 O   0  0  0  0  0  0  0  0  0  0  0  0
    6.6550   -4.2410   48.0930 O   0  0  0  0  0  0  0  0  0  0  0  0
  1  3  2  0
  1  7  1  0
  1  2  1  0
  2  4  2  0
  3  5  1  0
  4  6  1  0
  5  6  2  0
  6 14  1  0
  7  8  1  6
  7  9  1  0
  9 10  2  3
 10 11  1  0
 11 13  1  0
 11 12  2  0
 14 15  1  0
 15 16  2  0
 15 17  1  0
 16 18  1  0
 17 19  2  0
 17 22  1  0
 18 20  2  0
 19 20  1  0
 20 21  1  0
 22 24  2  0
 22 23  1  0
 23 25  1  0
 25 26  2  3
 26 27  1  0
 26 28  1  0
M  END
>  <vina_dock>  (64) 
-8.177

$$$$
O14757_PocketFlow_idx-in-all-generaetd-680
     RDKit          3D

 25 25  0  0  0  0  0  0  0  0999 V2000
    3.0060   -3.8730   45.3750 C   0  0  0  0  0  0  0  0  0  0  0  0
    4.3280   -3.9770   44.5970 C   0  0  0  0  0  0  0  0  0  0  0  0
    4.4940   -2.8810   43.5340 C   0  0  0  0  0  0  0  0  0  0  0  0
    5.4450   -1.7370   43.9310 C   0  0  1  0  0  0  0  0  0  0  0  0
    4.7270   -0.4110   43.7750 C   0  0  0  0  0  0  0  0  0  0  0  0
    4.8380    0.2980   42.7780 O   0  0  0  0  0  0  0  0  0  0  0  0
    6.0020   -1.8920   45.3550 C   0  0  0  0  0  0  0  0  0  0  0  0
    7.5040   -1.9890   45.3840 C   0  0  0  0  0  0  0  0  0  0  0  0
    8.2910   -1.1790   46.1050 C   0  0  0  0  0  0  0  0  0  0  0  0
    1.9890   -5.0130   45.1280 C   0  0  2  0  0  0  0  0  0  0  0  0
    2.7290   -6.3600   45.0100 C   0  0  0  0  0  0  0  0  0  0  0  0
    1.7600   -7.3930   44.8240 O   0  0  0  0  0  0  0  0  0  0  0  0
    1.0030   -7.6530   46.0080 C   0  0  0  0  0  0  0  0  0  0  0  0
   -0.4110   -8.0610   45.6660 C   0  0  0  0  0  0  0  0  0  0  0  0
   -1.0420   -7.4870   44.5510 C   0  0  0  0  0  0  0  0  0  0  0  0
   -1.1030   -9.0400   46.3970 C   0  0  0  0  0  0  0  0  0  0  0  0
   -2.3300   -7.8810   44.1800 C   0  0  0  0  0  0  0  0  0  0  0  0
   -2.3890   -9.4330   46.0260 C   0  0  0  0  0  0  0  0  0  0  0  0
   -3.0020   -8.8550   44.9170 C   0  0  0  0  0  0  0  0  0  0  0  0
    1.1630   -4.7540   43.8880 C   0  0  0  0  0  0  0  0  0  0  0  0
    0.8850   -3.5220   43.4310 C   0  0  0  0  0  0  0  0  0  0  0  0
    0.1240   -3.2840   42.2270 C   0  0  0  0  0  0  0  0  0  0  0  0
    0.5010   -2.5120   41.1950 C   0  0  0  0  0  0  0  0  0  0  0  0
    1.7580   -1.6960   41.0590 C   0  0  0  0  0  0  0  0  0  0  0  0
    1.5470   -0.2670   41.5330 C   0  0  0  0  0  0  0  0  0  0  0  0
  1  2  1  0
 10  1  1  6
  2  3  1  0
  4  3  1  1
  4  5  1  0
  4  7  1  0
  5  6  2  0
  7  8  1  0
  8  9  2  0
 10 20  1  0
 10 11  1  0
 11 12  1  0
 12 13  1  0
 13 14  1  0
 14 15  2  0
 14 16  1  0
 15 17  1  0
 16 18  2  0
 17 19  2  0
 18 19  1  0
 20 21  2  3
 21 22  1  0
 22 23  2  3
 23 24  1  0
 24 25  1  0
M  END
>  <vina_dock>  (65) 
-7.673

$$$$
O14757_PocketFlow_idx-in-all-generaetd-136
     RDKit          3D

 25 27  0  0  0  0  0  0  0  0999 V2000
    1.5010   -6.6930   44.4680 C   0  0  0  0  0  0  0  0  0  0  0  0
    2.3700   -5.7080   45.2240 C   0  0  0  0  0  0  0  0  0  0  0  0
    0.2480   -2.5850   41.5420 C   0  0  0  0  0  0  0  0  0  0  0  0
    1.0430   -1.6900   40.8310 C   0  0  0  0  0  0  0  0  0  0  0  0
    0.7510   -3.1460   42.7300 C   0  0  0  0  0  0  0  0  0  0  0  0
    2.3150   -1.3640   41.3000 C   0  0  0  0  0  0  0  0  0  0  0  0
    2.0340   -2.8280   43.2420 C   0  0  0  0  0  0  0  0  0  0  0  0
    2.8170   -1.9180   42.4870 C   0  0  0  0  0  0  0  0  0  0  0  0
    2.5780   -3.3620   44.4530 C   0  0  0  0  0  0  0  0  0  0  0  0
    4.0990   -1.5620   42.9190 C   0  0  0  0  0  0  0  0  0  0  0  0
    1.8050   -4.3120   45.3400 C   0  0  0  0  0  0  0  0  0  0  0  0
    3.8900   -3.0150   44.8420 C   0  0  0  0  0  0  0  0  0  0  0  0
    4.6320   -2.1030   44.0840 C   0  0  0  0  0  0  0  0  0  0  0  0
    4.5480   -3.5360   46.0770 C   0  0  0  0  0  0  0  0  0  0  0  0
    3.5730   -5.9800   45.7640 C   0  0  0  0  0  0  0  0  0  0  0  0
    4.4280   -4.9990   46.5170 C   0  0  0  0  0  0  0  0  0  0  0  0
    5.2460   -2.7540   46.7290 O   0  0  0  0  0  0  0  0  0  0  0  0
   -1.1370   -2.9390   41.0560 C   0  0  0  0  0  0  0  0  0  0  0  0
   -2.1300   -1.8070   41.2550 C   0  0  0  0  0  0  0  0  0  0  0  0
   -3.0060   -1.7680   40.2160 F   0  0  0  0  0  0  0  0  0  0  0  0
   -1.4670   -0.6190   41.2390 F   0  0  0  0  0  0  0  0  0  0  0  0
    0.0030   -6.3960   44.4090 C   0  0  0  0  0  0  0  0  0  0  0  0
   -0.6980   -6.9180   45.6330 C   0  0  0  0  0  0  0  0  0  0  0  0
   -0.8540   -8.0830   45.9560 O   0  0  0  0  0  0  0  0  0  0  0  0
   -1.1870   -5.9210   46.3970 O   0  0  0  0  0  0  0  0  0  0  0  0
  1 22  1  0
  1  2  1  0
  2 11  1  0
  2 15  2  0
  3  4  1  0
  3 18  1  0
  3  5  2  0
  4  6  2  0
  5  7  1  0
  6  8  1  0
  7  8  1  0
  7  9  2  0
  8 10  2  0
  9 12  1  0
  9 11  1  0
 10 13  1  0
 12 13  2  0
 12 14  1  0
 14 16  1  0
 14 17  2  0
 15 16  1  0
 18 19  1  0
 19 20  1  0
 19 21  1  0
 22 23  1  0
 23 24  2  0
 23 25  1  0
M  END
>  <vina_dock>  (66) 
-9.308

$$$$
O14757_PocketFlow_idx-in-all-generaetd-317
     RDKit          3D

 29 31  0  0  0  0  0  0  0  0999 V2000
    0.9060   -4.3440   44.7900 C   0  0  0  0  0  0  0  0  0  0  0  0
    1.9910   -4.1170   43.8620 O   0  0  0  0  0  0  0  0  0  0  0  0
    1.8980   -3.0140   43.0790 C   0  0  0  0  0  0  0  0  0  0  0  0
    0.9710   -2.7100   42.3460 O   0  0  0  0  0  0  0  0  0  0  0  0
    3.1240   -2.1800   43.2210 C   0  0  0  0  0  0  0  0  0  0  0  0
    5.2810   -1.8550   44.3360 C   0  0  0  0  0  0  0  0  0  0  0  0
    5.4650   -0.6920   43.5690 C   0  0  0  0  0  0  0  0  0  0  0  0
    4.0970   -2.5890   44.1470 C   0  0  0  0  0  0  0  0  0  0  0  0
    4.5020   -0.2740   42.6480 C   0  0  0  0  0  0  0  0  0  0  0  0
    3.3330   -1.0150   42.4730 C   0  0  0  0  0  0  0  0  0  0  0  0
    6.2960   -2.2910   45.3090 C   0  0  0  0  0  0  0  0  0  0  0  0
    8.4980   -2.0420   46.3330 C   0  0  0  0  0  0  0  0  0  0  0  0
    7.5330   -1.6290   45.4090 C   0  0  0  0  0  0  0  0  0  0  0  0
    8.2300   -3.1180   47.1660 C   0  0  0  0  0  0  0  0  0  0  0  0
    9.1520   -3.5150   48.0520 F   0  0  0  0  0  0  0  0  0  0  0  0
    7.0170   -3.7910   47.0940 C   0  0  0  0  0  0  0  0  0  0  0  0
    6.0540   -3.3790   46.1680 C   0  0  0  0  0  0  0  0  0  0  0  0
    1.2800   -5.5190   45.7030 C   0  0  2  0  0  0  0  0  0  0  0  0
    1.3390   -6.8840   44.9870 C   0  0  0  0  0  0  0  0  0  0  0  0
    0.7300   -8.0620   45.7320 C   0  0  0  0  0  0  0  0  0  0  0  0
    1.6010   -8.9040   46.4540 C   0  0  0  0  0  0  0  0  0  0  0  0
   -0.6610   -8.3470   45.7230 C   0  0  0  0  0  0  0  0  0  0  0  0
    1.1230   -9.9880   47.1830 C   0  0  0  0  0  0  0  0  0  0  0  0
   -1.1170   -9.4460   46.4810 C   0  0  0  0  0  0  0  0  0  0  0  0
   -0.2370  -10.2570   47.2020 C   0  0  0  0  0  0  0  0  0  0  0  0
   -1.6420   -7.5010   44.9250 C   0  0  1  0  0  0  0  0  0  0  0  0
   -2.8180   -8.2290   44.2710 C   0  0  0  0  0  0  0  0  0  0  0  0
   -2.1650   -6.4900   45.7880 O   0  0  0  0  0  0  0  0  0  0  0  0
    0.3860   -5.5730   46.8250 O   0  0  0  0  0  0  0  0  0  0  0  0
  1  2  1  0
  1 18  1  0
  2  3  1  0
  3  4  2  0
  3  5  1  0
  5 10  1  0
  5  8  2  0
  6  7  2  0
  6  8  1  0
  6 11  1  0
  7  9  1  0
  9 10  2  0
 11 13  1  0
 11 17  2  0
 12 13  2  0
 12 14  1  0
 14 16  2  0
 14 15  1  0
 16 17  1  0
 18 19  1  0
 18 29  1  1
 19 20  1  0
 20 22  1  0
 20 21  2  0
 21 23  1  0
 22 26  1  0
 22 24  2  0
 23 25  2  0
 24 25  1  0
 26 27  1  1
 26 28  1  0
M  END
>  <vina_dock>  (67) 
-9.019

$$$$
O14757_PocketFlow_idx-in-all-generaetd-34
     RDKit          3D

 35 38  0  0  0  0  0  0  0  0999 V2000
    1.4680   -4.5640   44.2410 C   0  0  0  0  0  0  0  0  0  0  0  0
    1.0410   -3.5420   43.3850 C   0  0  0  0  0  0  0  0  0  0  0  0
    1.9330   -2.5690   42.9270 C   0  0  0  0  0  0  0  0  0  0  0  0
    3.2770   -2.5800   43.3250 C   0  0  0  0  0  0  0  0  0  0  0  0
    3.7260   -3.6010   44.1860 C   0  0  0  0  0  0  0  0  0  0  0  0
    2.8170   -4.5830   44.6270 C   0  0  0  0  0  0  0  0  0  0  0  0
    5.1700   -3.6750   44.6310 C   0  0  0  0  0  0  0  0  0  0  0  0
    5.6360   -2.4190   45.3300 C   0  0  0  0  0  0  0  0  0  0  0  0
    5.6670   -1.2180   44.7330 C   0  0  0  0  0  0  0  0  0  0  0  0
    5.2040   -0.9560   43.3900 C   0  0  0  0  0  0  0  0  0  0  0  0
    4.1590   -1.5330   42.7740 C   0  0  0  0  0  0  0  0  0  0  0  0
    0.5290   -5.5890   44.7170 C   0  0  0  0  0  0  0  0  0  0  0  0
   -1.3180   -7.5310   45.6320 C   0  0  0  0  0  0  0  0  0  0  0  0
   -0.7460   -6.6160   46.5240 C   0  0  0  0  0  0  0  0  0  0  0  0
   -0.9610   -7.4690   44.2790 C   0  0  0  0  0  0  0  0  0  0  0  0
    0.1640   -5.6570   46.0710 C   0  0  0  0  0  0  0  0  0  0  0  0
   -0.0440   -6.5120   43.8300 C   0  0  0  0  0  0  0  0  0  0  0  0
   -2.3360   -8.5380   46.1110 C   0  0  0  0  0  0  0  0  0  0  0  0
   -1.8760   -9.2740   47.3310 C   0  0  0  0  0  0  0  0  0  0  0  0
   -2.3760   -9.1050   48.5580 C   0  0  0  0  0  0  0  0  0  0  0  0
   -3.3670   -8.2050   48.7440 F   0  0  0  0  0  0  0  0  0  0  0  0
   -1.8840   -9.8390   49.6130 O   0  0  0  0  0  0  0  0  0  0  0  0
   -0.4690   -9.9680   49.5310 C   0  0  0  0  0  0  0  0  0  0  0  0
    6.1440   -2.5640   46.6090 O   0  0  0  0  0  0  0  0  0  0  0  0
    6.7780   -3.8300   46.8090 C   0  0  1  0  0  0  0  0  0  0  0  0
    8.2500   -3.6990   46.4140 C   0  0  0  0  0  0  0  0  0  0  0  0
    6.7550   -4.2830   48.2620 C   0  0  0  0  0  0  0  0  0  0  0  0
    8.9880   -2.7530   47.1940 O   0  0  0  0  0  0  0  0  0  0  0  0
    7.9270   -3.8670   49.1360 C   0  0  1  0  0  0  0  0  0  0  0  0
    5.8380   -4.9630   48.7340 O   0  0  0  0  0  0  0  0  0  0  0  0
    8.5500   -2.5960   48.5570 C   0  0  1  0  0  0  0  0  0  0  0  0
    7.4600   -3.6520   50.4690 O   0  0  0  0  0  0  0  0  0  0  0  0
    9.7510   -2.1270   49.3960 C   0  0  0  0  0  0  0  0  0  0  0  0
   10.3650   -3.2510   50.0430 O   0  0  0  0  0  0  0  0  0  0  0  0
   11.6330   -3.5570   49.4770 C   0  0  0  0  0  0  0  0  0  0  0  0
  1  2  2  0
  1  6  1  0
  1 12  1  0
  2  3  1  0
  3  4  2  0
  4 11  1  0
  4  5  1  0
  5  6  2  0
  5  7  1  0
  7  8  1  0
  8  9  2  0
  8 24  1  0
  9 10  1  0
 10 11  2  0
 12 17  2  0
 12 16  1  0
 13 15  2  0
 13 18  1  0
 13 14  1  0
 14 16  2  0
 15 17  1  0
 18 19  1  0
 19 20  2  3
 20 21  1  0
 20 22  1  0
 22 23  1  0
 25 24  1  1
 25 26  1  0
 25 27  1  0
 26 28  1  0
 27 30  2  0
 27 29  1  0
 28 31  1  0
 29 31  1  0
 29 32  1  1
 31 33  1  1
 33 34  1  0
 34 35  1  0
M  END
>  <vina_dock>  (68) 
-9.216

$$$$
O14757_PocketFlow_idx-in-all-generaetd-556
     RDKit          3D

 11 11  0  0  0  0  0  0  0  0999 V2000
    4.2380   -2.5000   43.8830 C   0  0  0  0  0  0  0  0  0  0  0  0
    5.1500   -1.5150   43.8720 C   0  0  0  0  0  0  0  0  0  0  0  0
    2.9720   -2.4630   43.1370 C   0  0  0  0  0  0  0  0  0  0  0  0
    1.4980   -1.5020   41.4590 C   0  0  0  0  0  0  0  0  0  0  0  0
    0.4990   -2.4080   41.8060 C   0  0  0  0  0  0  0  0  0  0  0  0
    2.7270   -1.5260   42.1250 C   0  0  0  0  0  0  0  0  0  0  0  0
    0.7250   -3.3340   42.8210 C   0  0  0  0  0  0  0  0  0  0  0  0
    1.9530   -3.3580   43.4860 C   0  0  0  0  0  0  0  0  0  0  0  0
    6.4460   -1.5660   44.6280 C   0  0  0  0  0  0  0  0  0  0  0  0
    6.4600   -2.7140   45.5950 C   0  0  0  0  0  0  0  0  0  0  0  0
    7.5720   -3.2810   46.0810 C   0  0  0  0  0  0  0  0  0  0  0  0
  1  3  1  0
  1  2  2  3
  2  9  1  0
  3  6  2  0
  3  8  1  0
  4  5  2  0
  4  6  1  0
  5  7  1  0
  7  8  2  0
  9 10  1  0
 10 11  2  0
M  END
>  <vina_dock>  (69) 
-5.916

$$$$
O14757_PocketFlow_idx-in-all-generaetd-855
     RDKit          3D

 18 19  0  0  0  0  0  0  0  0999 V2000
    1.1340   -2.7680   42.4280 C   0  0  0  0  0  0  0  0  0  0  0  0
    1.3940   -3.6130   43.5110 C   0  0  0  0  0  0  0  0  0  0  0  0
    2.6200   -3.5370   44.1830 C   0  0  0  0  0  0  0  0  0  0  0  0
    3.6080   -2.6210   43.7890 C   0  0  0  0  0  0  0  0  0  0  0  0
    3.3300   -1.7790   42.6980 C   0  0  0  0  0  0  0  0  0  0  0  0
    2.1060   -1.8480   42.0220 C   0  0  0  0  0  0  0  0  0  0  0  0
   -0.1780   -2.8800   41.7460 C   0  0  0  0  0  0  0  0  0  0  0  0
   -1.0010   -1.9920   41.6320 O   0  0  0  0  0  0  0  0  0  0  0  0
   -0.4000   -4.1060   41.2390 O   0  0  0  0  0  0  0  0  0  0  0  0
    4.8960   -2.5430   44.4970 C   0  0  0  0  0  0  0  0  0  0  0  0
    5.2520   -3.4990   45.4600 C   0  0  0  0  0  0  0  0  0  0  0  0
    5.8070   -1.5080   44.2320 C   0  0  0  0  0  0  0  0  0  0  0  0
    6.4780   -3.4260   46.1330 C   0  0  0  0  0  0  0  0  0  0  0  0
    7.0330   -1.4350   44.9040 C   0  0  0  0  0  0  0  0  0  0  0  0
    7.3870   -2.4000   45.8520 C   0  0  0  0  0  0  0  0  0  0  0  0
    8.6700   -2.2690   46.5570 C   0  0  0  0  0  0  0  0  0  0  0  0
    9.6940   -1.5150   46.1280 C   0  0  0  0  0  0  0  0  0  0  0  0
   10.9890   -1.3850   46.8620 C   0  0  0  0  0  0  0  0  0  0  0  0
  1  7  1  0
  1  6  2  0
  1  2  1  0
  2  3  2  0
  3  4  1  0
  4  5  2  0
  4 10  1  0
  5  6  1  0
  7  9  1  0
  7  8  2  0
 10 12  1  0
 10 11  2  0
 11 13  1  0
 12 14  2  0
 13 15  2  0
 14 15  1  0
 15 16  1  0
 16 17  2  3
 17 18  1  0
M  END
>  <vina_dock>  (70) 
-8.331

$$$$
O14757_PocketFlow_idx-in-all-generaetd-201
     RDKit          3D

 10 11  0  0  0  0  0  0  0  0999 V2000
    0.0540   -2.7210   42.2740 N   0  0  0  0  0  0  0  0  0  0  0  0
    0.8560   -3.4060   43.1110 C   0  0  0  0  0  0  0  0  0  0  0  0
    2.1900   -3.0960   43.3360 C   0  0  0  0  0  0  0  0  0  0  0  0
    3.0210   -3.8210   44.2140 C   0  0  0  0  0  0  0  0  0  0  0  0
    4.3500   -3.4410   44.3820 C   0  0  0  0  0  0  0  0  0  0  0  0
    4.8450   -2.3490   43.6790 C   0  0  0  0  0  0  0  0  0  0  0  0
    4.0070   -1.6390   42.8100 C   0  0  0  0  0  0  0  0  0  0  0  0
    2.6770   -1.9940   42.6230 C   0  0  0  0  0  0  0  0  0  0  0  0
    1.9080   -1.2890   41.7820 N   0  0  0  0  0  0  0  0  0  0  0  0
    0.6320   -1.6870   41.6490 C   0  0  0  0  0  0  0  0  0  0  0  0
  1 10  2  0
  1  2  1  0
  2  3  2  0
  3  8  1  0
  3  4  1  0
  4  5  2  0
  5  6  1  0
  6  7  2  0
  7  8  1  0
  8  9  2  0
  9 10  1  0
M  END
>  <vina_dock>  (71) 
-5.65

$$$$
O14757_PocketFlow_idx-in-all-generaetd-43
     RDKit          3D

 11 10  0  0  0  0  0  0  0  0999 V2000
    4.6230   -4.0670   44.9380 C   0  0  0  0  0  0  0  0  0  0  0  0
    3.3400   -4.1830   44.1540 C   0  0  0  0  0  0  0  0  0  0  0  0
    2.3100   -3.3210   44.1460 C   0  0  0  0  0  0  0  0  0  0  0  0
    1.1200   -3.5390   43.3520 C   0  0  0  0  0  0  0  0  0  0  0  0
    0.8000   -2.9570   42.1840 C   0  0  0  0  0  0  0  0  0  0  0  0
    1.5710   -1.9810   41.4490 C   0  0  0  0  0  0  0  0  0  0  0  0
    1.2460   -0.6820   41.4080 C   0  0  0  0  0  0  0  0  0  0  0  0
    4.9700   -2.7180   45.5770 C   0  0  0  0  0  0  0  0  0  0  0  0
    5.9900   -1.9170   44.7620 C   0  0  0  0  0  0  0  0  0  0  0  0
    5.3190   -1.1010   43.7380 C   0  0  0  0  0  0  0  0  0  0  0  0
    4.7680   -0.4370   42.9040 C   0  0  0  0  0  0  0  0  0  0  0  0
  1  2  1  0
  1  8  1  0
  2  3  2  3
  3  4  1  0
  4  5  2  3
  5  6  1  0
  6  7  2  0
  8  9  1  0
  9 10  1  0
 10 11  3  0
M  END
>  <vina_dock>  (72) 
-5.379

$$$$
O14757_PocketFlow_idx-in-all-generaetd-599
     RDKit          3D

  6  6  0  0  0  0  0  0  0  0999 V2000
    3.5010   -2.2610   43.1340 C   0  0  0  0  0  0  0  0  0  0  0  0
    4.0960   -3.1040   44.0730 C   0  0  0  0  0  0  0  0  0  0  0  0
    5.2900   -2.7290   44.6890 C   0  0  0  0  0  0  0  0  0  0  0  0
    5.8900   -1.5120   44.3660 C   0  0  0  0  0  0  0  0  0  0  0  0
    4.1010   -1.0430   42.8110 C   0  0  0  0  0  0  0  0  0  0  0  0
    5.2950   -0.6690   43.4260 C   0  0  0  0  0  0  0  0  0  0  0  0
  1  5  2  0
  1  2  1  0
  2  3  2  0
  3  4  1  0
  4  6  2  0
  5  6  1  0
M  END
>  <vina_dock>  (73) 
-3.992

$$$$
O14757_PocketFlow_idx-in-all-generaetd-368
     RDKit          3D

 15 16  0  0  0  0  0  0  0  0999 V2000
    5.2700   -0.6930   43.4640 C   0  0  0  0  0  0  0  0  0  0  0  0
    5.6740   -1.5320   44.4960 C   0  0  0  0  0  0  0  0  0  0  0  0
    4.9190   -2.6620   44.8070 C   0  0  0  0  0  0  0  0  0  0  0  0
    3.7480   -2.9800   44.0930 C   0  0  0  0  0  0  0  0  0  0  0  0
    3.3450   -2.1310   43.0370 C   0  0  0  0  0  0  0  0  0  0  0  0
    4.1140   -0.9880   42.7430 C   0  0  0  0  0  0  0  0  0  0  0  0
    2.0930   -2.3800   42.2190 C   0  0  0  0  0  0  0  0  0  0  0  0
    1.6310   -1.1510   41.4870 C   0  0  0  0  0  0  0  0  0  0  0  0
    0.4070   -0.6160   41.5960 C   0  0  0  0  0  0  0  0  0  0  0  0
    2.9960   -4.1820   44.4780 C   0  0  0  0  0  0  0  0  0  0  0  0
    1.6700   -4.0830   44.9260 C   0  0  0  0  0  0  0  0  0  0  0  0
    3.5930   -5.4500   44.4200 C   0  0  0  0  0  0  0  0  0  0  0  0
    0.9560   -5.2250   45.2950 C   0  0  0  0  0  0  0  0  0  0  0  0
    2.8800   -6.5910   44.7910 C   0  0  0  0  0  0  0  0  0  0  0  0
    1.5610   -6.4790   45.2260 C   0  0  0  0  0  0  0  0  0  0  0  0
  1  6  2  0
  1  2  1  0
  2  3  2  0
  3  4  1  0
  4  5  2  0
  4 10  1  0
  5  7  1  0
  5  6  1  0
  7  8  1  0
  8  9  2  0
 10 12  1  0
 10 11  2  0
 11 13  1  0
 12 14  2  0
 13 15  2  0
 14 15  1  0
M  END
>  <vina_dock>  (74) 
-7.573

$$$$
O14757_PocketFlow_idx-in-all-generaetd-903
     RDKit          3D

 10 11  0  0  0  0  0  0  0  0999 V2000
    4.4310   -2.8840   44.5720 C   0  0  0  0  0  0  0  0  0  0  0  0
    3.4090   -2.6160   43.6800 C   0  0  0  0  0  0  0  0  0  0  0  0
    2.1060   -3.3400   43.4590 C   0  0  0  0  0  0  0  0  0  0  0  0
    1.5080   -2.5430   42.2890 C   0  0  0  0  0  0  0  0  0  0  0  0
    5.5360   -2.0300   44.5710 C   0  0  0  0  0  0  0  0  0  0  0  0
    5.5950   -0.9300   43.6960 C   0  0  0  0  0  0  0  0  0  0  0  0
    4.5530   -0.6680   42.8010 C   0  0  0  0  0  0  0  0  0  0  0  0
    3.4770   -1.5320   42.7880 C   0  0  0  0  0  0  0  0  0  0  0  0
    0.4320   -2.9230   41.5920 C   0  0  0  0  0  0  0  0  0  0  0  0
    2.2990   -1.4340   42.0430 N   0  0  0  0  0  0  0  0  0  0  0  0
  1  2  2  0
  1  5  1  0
  2  8  1  0
  2  3  1  0
  3  4  2  0
  4  9  1  0
  4 10  1  0
  5  6  2  0
  6  7  1  0
  7  8  2  0
  8 10  1  0
M  END
>  <vina_dock>  (75) 
-5.971

$$$$
O14757_PocketFlow_idx-in-all-generaetd-250
     RDKit          3D

  8  8  0  0  0  0  0  0  0  0999 V2000
    4.4370   -2.2120   43.5940 C   0  0  0  0  0  0  0  0  0  0  0  0
    3.7220   -1.4750   42.6570 C   0  0  0  0  0  0  0  0  0  0  0  0
    2.4160   -1.8500   42.3580 C   0  0  0  0  0  0  0  0  0  0  0  0
    3.8700   -3.3120   44.2300 C   0  0  0  0  0  0  0  0  0  0  0  0
    1.8310   -2.9520   42.9880 C   0  0  0  0  0  0  0  0  0  0  0  0
    2.5610   -3.6860   43.9270 C   0  0  0  0  0  0  0  0  0  0  0  0
    1.5130   -0.9510   41.2030 Cl  0  0  0  0  0  0  0  0  0  0  0  0
    5.6940   -1.8590   43.8890 F   0  0  0  0  0  0  0  0  0  0  0  0
  1  2  2  0
  1  8  1  0
  1  4  1  0
  2  3  1  0
  3  7  1  0
  3  5  2  0
  4  6  2  0
  5  6  1  0
M  END
>  <vina_dock>  (76) 
-4.78

$$$$
O14757_PocketFlow_idx-in-all-generaetd-943
     RDKit          3D

 15 17  0  0  0  0  0  0  0  0999 V2000
    4.5700   -4.3660   46.2140 C   0  0  0  0  0  0  0  0  0  0  0  0
    5.5810   -3.3850   45.6830 C   0  0  0  0  0  0  0  0  0  0  0  0
    6.8520   -3.4080   46.1220 C   0  0  0  0  0  0  0  0  0  0  0  0
    3.9270   -5.0810   45.0390 C   0  0  0  0  0  0  0  0  0  0  0  0
    3.1690   -4.1020   44.1280 C   0  0  2  0  0  0  0  0  0  0  0  0
    3.9250   -2.8030   43.8680 C   0  0  0  0  0  0  0  0  0  0  0  0
    5.0910   -2.4780   44.6120 C   0  0  0  0  0  0  0  0  0  0  0  0
    3.4290   -1.8890   42.9070 C   0  0  0  0  0  0  0  0  0  0  0  0
    2.2170   -2.0930   42.0950 C   0  0  0  0  0  0  0  0  0  0  0  0
    4.1310   -0.6970   42.6670 C   0  0  0  0  0  0  0  0  0  0  0  0
    5.2780   -0.3820   43.3860 C   0  0  0  0  0  0  0  0  0  0  0  0
    5.7450   -1.2610   44.3590 C   0  0  0  0  0  0  0  0  0  0  0  0
    1.0970   -2.7680   42.3940 C   0  0  0  0  0  0  0  0  0  0  0  0
    0.7330   -3.5640   43.6110 C   0  0  0  0  0  0  0  0  0  0  0  0
    1.7840   -3.7570   44.7040 C   0  0  0  0  0  0  0  0  0  0  0  0
  1  4  1  0
  1  2  1  0
  2  7  1  0
  2  3  2  0
  5  4  1  1
  5  6  1  0
  5 15  1  0
  6  8  1  0
  6  7  2  0
  7 12  1  0
  8  9  1  0
  8 10  2  0
  9 13  2  0
 10 11  1  0
 11 12  2  0
 13 14  1  0
 14 15  1  0
M  END
>  <vina_dock>  (77) 
-8.716

$$$$
O14757_PocketFlow_idx-in-all-generaetd-837
     RDKit          3D

  9  9  0  0  0  0  0  0  0  0999 V2000
    5.1390   -2.2380   43.8410 C   0  0  0  0  0  0  0  0  0  0  0  0
    5.5640   -1.5210   44.8890 C   0  0  0  0  0  0  0  0  0  0  0  0
    3.7490   -2.3500   43.3840 C   0  0  0  0  0  0  0  0  0  0  0  0
    3.2410   -1.5210   42.3750 C   0  0  0  0  0  0  0  0  0  0  0  0
    2.9230   -3.3390   43.9300 C   0  0  0  0  0  0  0  0  0  0  0  0
    1.9220   -1.6640   41.9390 C   0  0  0  0  0  0  0  0  0  0  0  0
    1.6040   -3.4810   43.4940 C   0  0  0  0  0  0  0  0  0  0  0  0
    1.1030   -2.6420   42.5000 C   0  0  0  0  0  0  0  0  0  0  0  0
    4.8320   -0.7650   45.7690 N   0  0  0  0  0  0  0  0  0  0  0  0
  1  3  1  0
  1  2  2  3
  2  9  1  0
  3  4  2  0
  3  5  1  0
  4  6  1  0
  5  7  2  0
  6  8  2  0
  7  8  1  0
M  END
>  <vina_dock>  (78) 
-5.149

$$$$
O14757_PocketFlow_idx-in-all-generaetd-759
     RDKit          3D

 23 26  0  0  0  0  0  0  0  0999 V2000
    0.2160   -2.2300   41.7730 C   0  0  0  0  0  0  0  0  0  0  0  0
    0.7160   -3.0370   42.8010 C   0  0  0  0  0  0  0  0  0  0  0  0
    1.0340   -1.2430   41.2220 C   0  0  0  0  0  0  0  0  0  0  0  0
    2.0290   -2.8560   43.2740 C   0  0  0  0  0  0  0  0  0  0  0  0
    2.5570   -3.6460   44.2990 C   0  0  0  0  0  0  0  0  0  0  0  0
    3.8690   -3.4350   44.7420 C   0  0  0  0  0  0  0  0  0  0  0  0
    4.4370   -4.2060   45.7670 C   0  0  0  0  0  0  0  0  0  0  0  0
    2.3390   -1.0720   41.6990 C   0  0  0  0  0  0  0  0  0  0  0  0
    2.8560   -1.8610   42.7190 C   0  0  0  0  0  0  0  0  0  0  0  0
    5.7460   -3.9670   46.1830 C   0  0  0  0  0  0  0  0  0  0  0  0
    6.5120   -2.9590   45.5860 C   0  0  0  0  0  0  0  0  0  0  0  0
    5.9180   -2.2020   44.5590 C   0  0  0  0  0  0  0  0  0  0  0  0
    4.6160   -2.4170   44.1250 C   0  0  0  0  0  0  0  0  0  0  0  0
    4.1140   -1.6520   43.1380 N   0  0  0  0  0  0  0  0  0  0  0  0
   -1.1720   -2.4590   41.3090 C   0  0  0  0  0  0  0  0  0  0  0  0
   -2.0920   -1.6670   41.3980 O   0  0  0  0  0  0  0  0  0  0  0  0
   -1.3430   -3.6710   40.7530 O   0  0  0  0  0  0  0  0  0  0  0  0
    7.8950   -2.6960   46.0190 C   0  0  0  0  0  0  0  0  0  0  0  0
    8.4390   -1.4020   45.9570 C   0  0  0  0  0  0  0  0  0  0  0  0
    8.7110   -3.7310   46.5060 C   0  0  0  0  0  0  0  0  0  0  0  0
    9.7530   -1.1520   46.3660 C   0  0  0  0  0  0  0  0  0  0  0  0
   10.0240   -3.4830   46.9150 C   0  0  0  0  0  0  0  0  0  0  0  0
   10.5440   -2.1930   46.8450 C   0  0  0  0  0  0  0  0  0  0  0  0
  1  3  2  0
  1 15  1  0
  1  2  1  0
  2  4  2  0
  3  8  1  0
  4  9  1  0
  4  5  1  0
  5  6  2  0
  6 13  1  0
  6  7  1  0
  7 10  2  0
  8  9  2  0
  9 14  1  0
 10 11  1  0
 11 12  2  0
 11 18  1  0
 12 13  1  0
 13 14  2  0
 15 17  1  0
 15 16  2  0
 18 19  2  0
 18 20  1  0
 19 21  1  0
 20 22  2  0
 21 23  2  0
 22 23  1  0
M  END
>  <vina_dock>  (79) 
-9.554

$$$$
O14757_PocketFlow_idx-in-all-generaetd-700
     RDKit          3D

 20 21  0  0  0  0  0  0  0  0999 V2000
    0.0270   -7.8670   46.2350 C   0  0  0  0  0  0  0  0  0  0  0  0
   -1.4470   -7.5890   45.9310 C   0  0  0  0  0  0  0  0  0  0  0  0
   -1.8290   -7.8700   44.4750 C   0  0  0  0  0  0  0  0  0  0  0  0
   -3.2510   -8.4090   44.3140 C   0  0  0  0  0  0  0  0  0  0  0  0
   -3.4920   -9.6140   45.2100 C   0  0  0  0  0  0  0  0  0  0  0  0
    0.9220   -6.7860   45.6800 C   0  0  0  0  0  0  0  0  0  0  0  0
    2.1850   -7.1010   45.1690 C   0  0  0  0  0  0  0  0  0  0  0  0
    0.4880   -5.4560   45.6400 C   0  0  0  0  0  0  0  0  0  0  0  0
    3.0060   -6.1010   44.6390 C   0  0  0  0  0  0  0  0  0  0  0  0
    1.3110   -4.4560   45.1100 C   0  0  0  0  0  0  0  0  0  0  0  0
    2.5780   -4.7670   44.6020 C   0  0  0  0  0  0  0  0  0  0  0  0
    3.4520   -3.7120   44.0490 C   0  0  0  0  0  0  0  0  0  0  0  0
    2.9190   -2.6590   43.4000 C   0  0  0  0  0  0  0  0  0  0  0  0
    4.9390   -3.8250   44.2730 C   0  0  0  0  0  0  0  0  0  0  0  0
    3.7300   -1.5330   42.7860 C   0  0  2  0  0  0  0  0  0  0  0  0
    5.4840   -2.7470   45.2170 C   0  0  0  0  0  0  0  0  0  0  0  0
    4.5730   -0.7940   43.8090 C   0  0  0  0  0  0  0  0  0  0  0  0
    5.2950   -1.3070   44.8210 C   0  0  0  0  0  0  0  0  0  0  0  0
    2.7790   -0.5800   42.0210 C   0  0  0  0  0  0  0  0  0  0  0  0
    1.5450   -1.2750   41.4540 C   0  0  0  0  0  0  0  0  0  0  0  0
  1  6  1  0
  1  2  1  0
  2  3  1  0
  3  4  1  0
  4  5  1  0
  6  7  2  0
  6  8  1  0
  7  9  1  0
  8 10  2  0
  9 11  2  0
 10 11  1  0
 11 12  1  0
 12 13  2  0
 12 14  1  0
 13 15  1  0
 14 16  1  0
 15 19  1  1
 15 17  1  0
 16 18  1  0
 17 18  2  0
 19 20  1  0
M  END
>  <vina_dock>  (80) 
-7.676

$$$$
O14757_PocketFlow_idx-in-all-generaetd-821
     RDKit          3D

 24 25  0  0  0  0  0  0  0  0999 V2000
    4.1500   -3.6320   45.4950 C   0  0  0  0  0  0  0  0  0  0  0  0
    3.9580   -4.8390   44.9360 C   0  0  0  0  0  0  0  0  0  0  0  0
    4.5540   -2.3310   44.8040 C   0  0  2  0  0  0  0  0  0  0  0  0
    4.4610   -2.3760   43.2630 C   0  0  0  0  0  0  0  0  0  0  0  0
    3.1600   -1.8730   42.6900 C   0  0  0  0  0  0  0  0  0  0  0  0
    2.0500   -2.7220   42.5750 C   0  0  0  0  0  0  0  0  0  0  0  0
    3.0320   -0.5470   42.2670 C   0  0  0  0  0  0  0  0  0  0  0  0
    0.8480   -2.2450   42.0460 C   0  0  0  0  0  0  0  0  0  0  0  0
    4.0740    0.2900   42.3760 F   0  0  0  0  0  0  0  0  0  0  0  0
    1.8370   -0.0650   41.7390 C   0  0  0  0  0  0  0  0  0  0  0  0
    0.7410   -0.9180   41.6280 C   0  0  0  0  0  0  0  0  0  0  0  0
    5.9550   -1.9090   45.2720 C   0  0  0  0  0  0  0  0  0  0  0  0
    6.7750   -2.9860   45.3590 F   0  0  0  0  0  0  0  0  0  0  0  0
    6.5280   -1.0960   44.3410 F   0  0  0  0  0  0  0  0  0  0  0  0
    3.5640   -6.1210   45.6330 C   0  0  0  0  0  0  0  0  0  0  0  0
    2.3680   -6.9230   45.0990 C   0  0  0  0  0  0  0  0  0  0  0  0
    1.4260   -6.0910   44.2650 C   0  0  0  0  0  0  0  0  0  0  0  0
    0.0830   -6.1210   44.2830 C   0  0  0  0  0  0  0  0  0  0  0  0
   -0.7260   -6.9630   45.1640 C   0  0  0  0  0  0  0  0  0  0  0  0
   -1.6260   -7.8810   44.6150 C   0  0  0  0  0  0  0  0  0  0  0  0
   -0.6130   -6.8580   46.5550 C   0  0  0  0  0  0  0  0  0  0  0  0
   -2.4040   -8.6880   45.4480 C   0  0  0  0  0  0  0  0  0  0  0  0
   -1.3890   -7.6660   47.3870 C   0  0  0  0  0  0  0  0  0  0  0  0
   -2.2840   -8.5810   46.8330 C   0  0  0  0  0  0  0  0  0  0  0  0
  1  3  1  0
  1  2  2  3
  2 15  1  0
  3  4  1  6
  3 12  1  0
  4  5  1  0
  5  7  1  0
  5  6  2  0
  6  8  1  0
  7 10  2  0
  7  9  1  0
  8 11  2  0
 10 11  1  0
 12 14  1  0
 12 13  1  0
 15 16  1  0
 16 17  1  0
 17 18  2  3
 18 19  1  0
 19 20  2  0
 19 21  1  0
 20 22  1  0
 21 23  2  0
 22 24  2  0
 23 24  1  0
M  END
>  <vina_dock>  (81) 
-8.228

$$$$
O14757_PocketFlow_idx-in-all-generaetd-997
     RDKit          3D

 32 33  0  0  0  0  0  0  0  0999 V2000
    4.2950   -3.7080   44.9640 O   0  0  0  0  0  0  0  0  0  0  0  0
    3.1040   -3.5170   44.3040 C   0  0  0  0  0  0  0  0  0  0  0  0
    2.0160   -4.3340   44.6430 C   0  0  0  0  0  0  0  0  0  0  0  0
    0.8020   -4.1300   43.9760 C   0  0  0  0  0  0  0  0  0  0  0  0
    0.6870   -3.1680   42.9710 C   0  0  0  0  0  0  0  0  0  0  0  0
    3.0020   -2.5810   43.2520 C   0  0  0  0  0  0  0  0  0  0  0  0
    1.7800   -2.3840   42.5840 C   0  0  0  0  0  0  0  0  0  0  0  0
    4.4230   -1.7080   42.7610 Cl  0  0  0  0  0  0  0  0  0  0  0  0
    2.1060   -5.4160   45.6970 C   0  0  0  0  0  0  0  0  0  0  0  0
    2.1310   -6.8230   45.1360 C   0  0  0  0  0  0  0  0  0  0  0  0
    2.6940   -7.1760   44.1070 O   0  0  0  0  0  0  0  0  0  0  0  0
    1.3810   -7.6380   45.9900 O   0  0  0  0  0  0  0  0  0  0  0  0
    0.0410   -7.9030   45.6650 C   0  0  0  0  0  0  0  0  0  0  0  0
   -0.6400   -8.7780   46.5110 C   0  0  0  0  0  0  0  0  0  0  0  0
   -0.5700   -7.3850   44.5260 C   0  0  0  0  0  0  0  0  0  0  0  0
   -1.9650   -9.1090   46.2350 C   0  0  0  0  0  0  0  0  0  0  0  0
   -1.8980   -7.7190   44.2550 C   0  0  0  0  0  0  0  0  0  0  0  0
   -2.5940   -8.5780   45.1080 C   0  0  0  0  0  0  0  0  0  0  0  0
   -0.5580   -3.0800   42.4090 O   0  0  0  0  0  0  0  0  0  0  0  0
    1.6740   -1.3720   41.4820 C   0  0  0  0  0  0  0  0  0  0  0  0
    0.4290   -0.8030   41.4140 F   0  0  0  0  0  0  0  0  0  0  0  0
    1.8910   -1.8950   40.2450 F   0  0  0  0  0  0  0  0  0  0  0  0
    2.5300   -0.3240   41.6210 F   0  0  0  0  0  0  0  0  0  0  0  0
    4.4180   -2.7990   46.0770 C   0  0  0  0  0  0  0  0  0  0  0  0
    5.7640   -3.0450   46.7740 C   0  0  1  0  0  0  0  0  0  0  0  0
    5.6020   -4.1770   47.7750 C   0  0  0  0  0  0  0  0  0  0  0  0
    5.8830   -4.1330   48.9630 O   0  0  0  0  0  0  0  0  0  0  0  0
    5.1310   -5.3130   47.2260 O   0  0  0  0  0  0  0  0  0  0  0  0
    6.8110   -3.4170   45.8280 N   0  0  0  0  0  0  0  0  0  0  0  0
    8.1170   -3.3360   46.1460 C   0  0  0  0  0  0  0  0  0  0  0  0
    8.7740   -2.3260   46.3170 O   0  0  0  0  0  0  0  0  0  0  0  0
    8.6480   -4.5600   46.2290 O   0  0  0  0  0  0  0  0  0  0  0  0
  1  2  1  0
  1 24  1  0
  2  6  2  0
  2  3  1  0
  3  4  2  0
  3  9  1  0
  4  5  1  0
  5 19  1  0
  5  7  2  0
  6  7  1  0
  6  8  1  0
  7 20  1  0
  9 10  1  0
 10 11  2  0
 10 12  1  0
 12 13  1  0
 13 15  1  0
 13 14  2  0
 14 16  1  0
 15 17  2  0
 16 18  2  0
 17 18  1  0
 20 22  1  0
 20 21  1  0
 20 23  1  0
 25 24  1  6
 25 29  1  0
 25 26  1  0
 26 28  1  0
 26 27  2  0
 29 30  1  0
 30 32  1  0
 30 31  2  0
M  END
>  <vina_dock>  (82) 
-8.662

$$$$
O14757_PocketFlow_idx-in-all-generaetd-152
     RDKit          3D

 35 38  0  0  0  0  0  0  0  0999 V2000
    1.7400   -5.7510   45.2990 C   0  0  0  0  0  0  0  0  0  0  0  0
    1.7420   -4.6080   44.3100 C   0  0  0  0  0  0  0  0  0  0  0  0
    5.0550   -0.5700   44.2960 C   0  0  0  0  0  0  0  0  0  0  0  0
    4.2010   -0.9160   43.3150 C   0  0  0  0  0  0  0  0  0  0  0  0
    3.4150    0.0840   42.6110 C   0  0  0  0  0  0  0  0  0  0  0  0
    4.1150   -2.2280   42.8620 O   0  0  0  0  0  0  0  0  0  0  0  0
    2.4120   -0.1330   41.7450 C   0  0  0  0  0  0  0  0  0  0  0  0
    2.9220   -2.8610   43.1130 C   0  0  0  0  0  0  0  0  0  0  0  0
    1.8050   -1.4490   41.3410 C   0  0  0  0  0  0  0  0  0  0  0  0
    2.9210   -3.9020   44.0440 C   0  0  0  0  0  0  0  0  0  0  0  0
    1.7670   -2.5100   42.4100 C   0  0  0  0  0  0  0  0  0  0  0  0
    0.5870   -3.2180   42.6800 C   0  0  0  0  0  0  0  0  0  0  0  0
    0.5740   -4.2500   43.6250 C   0  0  0  0  0  0  0  0  0  0  0  0
    5.9020   -1.5110   45.0420 C   0  0  0  0  0  0  0  0  0  0  0  0
    6.0640   -3.3300   46.6470 C   0  0  0  0  0  0  0  0  0  0  0  0
    5.2910   -2.4250   45.9080 C   0  0  0  0  0  0  0  0  0  0  0  0
    7.4580   -3.3170   46.5220 C   0  0  0  0  0  0  0  0  0  0  0  0
    8.0730   -2.4020   45.6670 C   0  0  0  0  0  0  0  0  0  0  0  0
    7.2990   -1.4980   44.9370 C   0  0  0  0  0  0  0  0  0  0  0  0
    5.4520   -4.3150   47.5720 C   0  0  0  0  0  0  0  0  0  0  0  0
    5.6950   -4.4330   48.7600 O   0  0  0  0  0  0  0  0  0  0  0  0
    4.5480   -5.1070   46.9650 O   0  0  0  0  0  0  0  0  0  0  0  0
    0.7200   -5.5820   46.4340 C   0  0  0  0  0  0  0  0  0  0  0  0
   -0.6650   -6.1900   46.1440 C   0  0  0  0  0  0  0  0  0  0  0  0
   -0.6940   -7.5650   45.4290 C   0  0  2  0  0  0  0  0  0  0  0  0
   -1.4860   -7.5210   44.1160 C   0  0  0  0  0  0  0  0  0  0  0  0
   -1.1220   -8.7600   46.2900 C   0  0  0  0  0  0  0  0  0  0  0  0
   -2.3290   -9.3600   46.2600 C   0  0  0  0  0  0  0  0  0  0  0  0
   -2.8220  -10.4950   47.1110 C   0  0  0  0  0  0  0  0  0  0  0  0
   -0.1160   -9.1860   47.2890 C   0  0  0  0  0  0  0  0  0  0  0  0
    1.0680   -9.8070   46.8690 C   0  0  0  0  0  0  0  0  0  0  0  0
   -0.3170   -8.9490   48.6550 C   0  0  0  0  0  0  0  0  0  0  0  0
    2.0370  -10.1870   47.8000 C   0  0  0  0  0  0  0  0  0  0  0  0
    0.6540   -9.3200   49.5850 C   0  0  0  0  0  0  0  0  0  0  0  0
    1.8300   -9.9410   49.1580 C   0  0  0  0  0  0  0  0  0  0  0  0
  1  2  1  0
  1 23  1  0
  2 13  1  0
  2 10  2  0
  3  4  1  0
  3 14  1  0
  4  5  2  0
  4  6  1  0
  5  7  1  0
  6  8  1  0
  7  9  2  0
  8 11  2  0
  8 10  1  0
  9 11  1  0
 11 12  1  0
 12 13  2  0
 14 19  2  0
 14 16  1  0
 15 16  2  0
 15 17  1  0
 15 20  1  0
 17 18  2  0
 18 19  1  0
 20 22  1  0
 20 21  2  0
 23 24  1  0
 24 25  1  0
 25 26  1  6
 25 27  1  0
 27 28  2  3
 27 30  1  0
 28 29  1  0
 30 31  2  0
 30 32  1  0
 31 33  1  0
 32 34  2  0
 33 35  2  0
 34 35  1  0
M  END
>  <vina_dock>  (83) 
-9.696

$$$$
O14757_PocketFlow_idx-in-all-generaetd-516
     RDKit          3D

 12 13  0  0  0  0  0  0  0  0999 V2000
    1.1360   -3.0680   42.7330 C   0  0  0  0  0  0  0  0  0  0  0  0
    2.1860   -3.4120   43.5810 C   0  0  0  0  0  0  0  0  0  0  0  0
    1.2210   -1.9530   41.9100 C   0  0  0  0  0  0  0  0  0  0  0  0
    3.3500   -2.6270   43.6120 C   0  0  0  0  0  0  0  0  0  0  0  0
    4.4240   -2.9480   44.4560 C   0  0  0  0  0  0  0  0  0  0  0  0
    5.5650   -2.1530   44.4670 C   0  0  0  0  0  0  0  0  0  0  0  0
    5.6680   -1.0350   43.6510 C   0  0  0  0  0  0  0  0  0  0  0  0
    4.6090   -0.7010   42.8060 C   0  0  0  0  0  0  0  0  0  0  0  0
    3.4460   -1.4860   42.7750 C   0  0  0  0  0  0  0  0  0  0  0  0
    2.3720   -1.1640   41.9300 C   0  0  0  0  0  0  0  0  0  0  0  0
    6.5810   -2.4730   45.2780 F   0  0  0  0  0  0  0  0  0  0  0  0
   -0.0080   -3.8090   42.6790 O   0  0  0  0  0  0  0  0  0  0  0  0
  1  3  2  0
  1 12  1  0
  1  2  1  0
  2  4  2  0
  3 10  1  0
  4  9  1  0
  4  5  1  0
  5  6  2  0
  6  7  1  0
  6 11  1  0
  7  8  2  0
  8  9  1  0
  9 10  2  0
M  END
>  <vina_dock>  (84) 
-7.069

$$$$
O14757_PocketFlow_idx-in-all-generaetd-988
     RDKit          3D

  7  7  0  0  0  0  0  0  0  0999 V2000
    4.4520   -0.6010   43.1280 C   0  0  0  0  0  0  0  0  0  0  0  0
    3.5920   -1.6950   43.0560 C   0  0  0  0  0  0  0  0  0  0  0  0
    3.9210   -2.8700   43.7320 C   0  0  0  0  0  0  0  0  0  0  0  0
    5.1030   -2.9460   44.4710 C   0  0  0  0  0  0  0  0  0  0  0  0
    5.9570   -1.8450   44.5360 C   0  0  0  0  0  0  0  0  0  0  0  0
    5.6300   -0.6680   43.8630 C   0  0  0  0  0  0  0  0  0  0  0  0
    4.1700    0.5680   42.4840 O   0  0  0  0  0  0  0  0  0  0  0  0
  1  7  1  0
  1  2  2  0
  1  6  1  0
  2  3  1  0
  3  4  2  0
  4  5  1  0
  5  6  2  0
M  END
>  <vina_dock>  (85) 
-4.448

$$$$
O14757_PocketFlow_idx-in-all-generaetd-862
     RDKit          3D

  9  9  0  0  0  0  0  0  0  0999 V2000
    4.9080   -0.6590   43.9380 N   0  0  0  0  0  0  0  0  0  0  0  0
    4.6020   -1.8120   43.0500 C   0  0  1  0  0  0  0  0  0  0  0  0
    4.6640   -3.0970   43.8890 C   0  0  0  0  0  0  0  0  0  0  0  0
    4.6780   -2.5740   45.2790 C   0  0  0  0  0  0  0  0  0  0  0  0
    4.5260   -3.2110   46.4420 C   0  0  0  0  0  0  0  0  0  0  0  0
    4.8950   -1.1300   45.1420 C   0  0  0  0  0  0  0  0  0  0  0  0
    3.2580   -1.5650   42.5010 C   0  0  0  0  0  0  0  0  0  0  0  0
    2.1610   -1.3620   42.0530 C   0  0  0  0  0  0  0  0  0  0  0  0
    0.8230   -1.1070   41.5200 C   0  0  0  0  0  0  0  0  0  0  0  0
  1  2  1  0
  1  6  1  0
  2  7  1  1
  2  3  1  0
  3  4  1  0
  4  6  2  0
  4  5  1  0
  7  8  3  0
  8  9  1  0
M  END
>  <vina_dock>  (86) 
-4.601

$$$$
O14757_PocketFlow_idx-in-all-generaetd-498
     RDKit          3D

 35 39  0  0  0  0  0  0  0  0999 V2000
    2.4250   -1.5700   42.7480 C   0  0  0  0  0  0  0  0  0  0  0  0
    3.2180   -2.5230   43.2530 C   0  0  2  0  0  0  0  0  0  0  0  0
    2.9450   -3.8560   43.8720 C   0  0  1  0  0  0  0  0  0  0  0  0
    3.4570   -3.7920   45.3280 C   0  0  0  0  0  0  0  0  0  0  0  0
    4.8640   -3.2270   45.5050 C   0  0  0  0  0  0  0  0  0  0  0  0
    5.4160   -2.3960   44.5020 C   0  0  0  0  0  0  0  0  0  0  0  0
    4.6610   -2.0600   43.2320 C   0  0  2  0  0  0  0  0  0  0  0  0
    3.1340   -0.4510   42.3670 N   0  0  0  0  0  0  0  0  0  0  0  0
    4.4980   -0.5500   42.8890 C   0  0  1  0  0  0  0  0  0  0  0  0
    6.7190   -1.9060   44.6580 C   0  0  0  0  0  0  0  0  0  0  0  0
    7.4680   -2.2080   45.7940 C   0  0  0  0  0  0  0  0  0  0  0  0
    6.9350   -3.0060   46.8240 C   0  0  0  0  0  0  0  0  0  0  0  0
    5.6010   -3.4860   46.6970 C   0  0  0  0  0  0  0  0  0  0  0  0
    4.5480    0.2290   43.9980 F   0  0  0  0  0  0  0  0  0  0  0  0
    4.9790   -4.3130   47.8010 C   0  0  0  0  0  0  0  0  0  0  0  0
    9.0680   -1.5480   45.8660 Cl  0  0  0  0  0  0  0  0  0  0  0  0
    1.4740   -4.3300   43.8560 C   0  0  0  0  0  0  0  0  0  0  0  0
    1.2390   -5.6830   44.4920 C   0  0  0  0  0  0  0  0  0  0  0  0
   -0.0480   -6.2410   44.5170 C   0  0  0  0  0  0  0  0  0  0  0  0
    2.2890   -6.3870   45.0960 C   0  0  0  0  0  0  0  0  0  0  0  0
   -0.2860   -7.4960   45.1030 C   0  0  0  0  0  0  0  0  0  0  0  0
    2.0650   -7.6280   45.6900 C   0  0  0  0  0  0  0  0  0  0  0  0
    0.7850   -8.1810   45.6930 C   0  0  0  0  0  0  0  0  0  0  0  0
   -1.6730   -8.0850   45.1300 C   0  0  0  0  0  0  0  0  0  0  0  0
   -1.6950   -9.3350   45.6690 F   0  0  0  0  0  0  0  0  0  0  0  0
   -2.5600   -7.3510   45.8580 F   0  0  0  0  0  0  0  0  0  0  0  0
   -2.2240   -8.2060   43.8890 F   0  0  0  0  0  0  0  0  0  0  0  0
    7.7730   -3.3240   48.0510 C   0  0  0  0  0  0  0  0  0  0  0  0
    8.3330   -4.7510   48.0110 C   0  0  0  0  0  0  0  0  0  0  0  0
    9.7570   -4.7720   47.5130 C   0  0  0  0  0  0  0  0  0  0  0  0
   10.7690   -4.1210   48.2310 C   0  0  0  0  0  0  0  0  0  0  0  0
   10.0800   -5.4140   46.3110 C   0  0  0  0  0  0  0  0  0  0  0  0
   12.0820   -4.1230   47.7600 C   0  0  0  0  0  0  0  0  0  0  0  0
   11.3930   -5.4140   45.8400 C   0  0  0  0  0  0  0  0  0  0  0  0
   12.3940   -4.7700   46.5660 C   0  0  0  0  0  0  0  0  0  0  0  0
  1  8  1  0
  2  1  1  1
  2  7  1  0
  2  3  1  0
  3 17  1  1
  3  4  1  0
  4  5  1  0
  5  6  2  0
  5 13  1  0
  7  6  1  1
  6 10  1  0
  7  9  1  0
  8  9  1  0
  9 14  1  1
 10 11  2  0
 11 16  1  0
 11 12  1  0
 12 13  2  0
 12 28  1  0
 13 15  1  0
 17 18  1  0
 18 19  2  0
 18 20  1  0
 19 21  1  0
 20 22  2  0
 21 24  1  0
 21 23  2  0
 22 23  1  0
 24 27  1  0
 24 25  1  0
 24 26  1  0
 28 29  1  0
 29 30  1  0
 30 32  1  0
 30 31  2  0
 31 33  1  0
 32 34  2  0
 33 35  2  0
 34 35  1  0
M  END
>  <vina_dock>  (87) 
-9.721

$$$$
O14757_PocketFlow_idx-in-all-generaetd-453
     RDKit          3D

 32 37  0  0  0  0  0  0  0  0999 V2000
    0.3730   -5.5360   45.7140 C   0  0  0  0  0  0  0  0  0  0  0  0
    0.4740   -6.9960   45.3010 C   0  0  0  0  0  0  0  0  0  0  0  0
    1.5350   -7.5280   44.9810 O   0  0  0  0  0  0  0  0  0  0  0  0
   -0.7730   -7.8220   45.3020 C   0  0  0  0  0  0  0  0  0  0  0  0
   -1.7250   -7.5930   44.2980 C   0  0  0  0  0  0  0  0  0  0  0  0
   -1.0190   -8.8130   46.2620 C   0  0  0  0  0  0  0  0  0  0  0  0
   -2.9050   -8.3370   44.2560 C   0  0  0  0  0  0  0  0  0  0  0  0
   -2.2030   -9.5560   46.2170 C   0  0  0  0  0  0  0  0  0  0  0  0
   -3.1440   -9.3180   45.2170 C   0  0  0  0  0  0  0  0  0  0  0  0
    1.1210   -4.5820   44.8190 C   0  0  0  0  0  0  0  0  0  0  0  0
    2.4050   -4.1260   45.1450 C   0  0  0  0  0  0  0  0  0  0  0  0
    0.5590   -4.1160   43.6340 C   0  0  0  0  0  0  0  0  0  0  0  0
    3.0870   -3.2440   44.2970 C   0  0  0  0  0  0  0  0  0  0  0  0
    1.1830   -3.2810   42.7770 N   0  0  0  0  0  0  0  0  0  0  0  0
    2.4230   -2.8660   43.1300 C   0  0  0  0  0  0  0  0  0  0  0  0
    4.4290   -2.7430   44.6190 C   0  0  0  0  0  0  0  0  0  0  0  0
    5.1900   -3.3220   45.6520 C   0  0  0  0  0  0  0  0  0  0  0  0
    4.9930   -1.6800   43.9090 C   0  0  0  0  0  0  0  0  0  0  0  0
    6.4890   -2.8690   46.0010 C   0  0  0  0  0  0  0  0  0  0  0  0
    6.2710   -1.2160   44.2180 C   0  0  0  0  0  0  0  0  0  0  0  0
    7.2770   -3.4290   47.0510 C   0  0  0  0  0  0  0  0  0  0  0  0
    7.0240   -1.8010   45.2490 C   0  0  0  0  0  0  0  0  0  0  0  0
    6.7430   -4.5690   47.9030 C   0  0  0  0  0  0  0  0  0  0  0  0
    8.6000   -2.9670   47.2940 C   0  0  0  0  0  0  0  0  0  0  0  0
    8.3140   -1.3270   45.5240 C   0  0  0  0  0  0  0  0  0  0  0  0
    7.4360   -4.6620   49.2610 C   0  0  0  0  0  0  0  0  0  0  0  0
    9.1090   -1.9000   46.5220 C   0  0  0  0  0  0  0  0  0  0  0  0
    9.4340   -3.5420   48.2840 C   0  0  0  0  0  0  0  0  0  0  0  0
    8.9480   -4.7130   49.0990 C   0  0  0  0  0  0  0  0  0  0  0  0
   10.4120   -1.4280   46.7520 C   0  0  0  0  0  0  0  0  0  0  0  0
   10.7390   -3.0680   48.4820 C   0  0  0  0  0  0  0  0  0  0  0  0
   11.2220   -2.0080   47.7240 C   0  0  0  0  0  0  0  0  0  0  0  0
  1 10  1  0
  1  2  1  0
  2  3  2  0
  2  4  1  0
  4  5  2  0
  4  6  1  0
  5  7  1  0
  6  8  2  0
  7  9  2  0
  8  9  1  0
 10 12  1  0
 10 11  2  0
 11 13  1  0
 12 14  2  0
 13 15  2  0
 13 16  1  0
 14 15  1  0
 16 18  1  0
 16 17  2  0
 17 19  1  0
 18 20  2  0
 19 22  2  0
 19 21  1  0
 20 22  1  0
 21 24  2  0
 21 23  1  0
 22 25  1  0
 23 26  1  0
 24 27  1  0
 24 28  1  0
 25 27  2  0
 26 29  1  0
 27 30  1  0
 28 31  2  0
 28 29  1  0
 30 32  2  0
 31 32  1  0
M  END
>  <vina_dock>  (88) 
-11.108

$$$$
O14757_PocketFlow_idx-in-all-generaetd-749
     RDKit          3D

 12 12  0  0  0  0  0  0  0  0999 V2000
    2.0380   -3.3490   43.2010 C   0  0  2  0  0  0  0  0  0  0  0  0
    1.1250   -2.4840   42.3220 C   0  0  0  0  0  0  0  0  0  0  0  0
    1.3430   -3.7970   44.5060 C   0  0  0  0  0  0  0  0  0  0  0  0
    0.7960   -5.1990   44.4330 C   0  0  0  0  0  0  0  0  0  0  0  0
    1.4660   -6.3510   44.5940 C   0  0  0  0  0  0  0  0  0  0  0  0
    2.9130   -6.5270   44.9260 C   0  0  0  0  0  0  0  0  0  0  0  0
    3.3430   -2.6250   43.5050 C   0  0  0  0  0  0  0  0  0  0  0  0
    3.7000   -1.4900   42.7630 C   0  0  0  0  0  0  0  0  0  0  0  0
    4.2130   -3.0670   44.5140 C   0  0  0  0  0  0  0  0  0  0  0  0
    4.8930   -0.8140   43.0220 C   0  0  0  0  0  0  0  0  0  0  0  0
    5.4070   -2.3900   44.7730 C   0  0  0  0  0  0  0  0  0  0  0  0
    5.7470   -1.2640   44.0270 C   0  0  0  0  0  0  0  0  0  0  0  0
  1  2  1  1
  1  7  1  0
  1  3  1  0
  3  4  1  0
  4  5  2  3
  5  6  1  0
  7  8  2  0
  7  9  1  0
  8 10  1  0
  9 11  2  0
 10 12  2  0
 11 12  1  0
M  END
>  <vina_dock>  (89) 
-6.145

$$$$
O14757_PocketFlow_idx-in-all-generaetd-854
     RDKit          3D

 18 19  0  0  0  0  0  0  0  0999 V2000
    1.1310   -6.3370   45.1820 N   0  0  0  0  0  0  0  0  0  0  0  0
    1.7760   -5.1530   45.0150 C   0  0  0  0  0  0  0  0  0  0  0  0
    1.8630   -7.3650   45.5990 C   0  0  0  0  0  0  0  0  0  0  0  0
    3.1750   -7.3180   45.8140 N   0  0  0  0  0  0  0  0  0  0  0  0
    3.7790   -6.1270   45.6220 C   0  0  0  0  0  0  0  0  0  0  0  0
    3.1380   -4.9700   45.2170 C   0  0  0  0  0  0  0  0  0  0  0  0
    0.8650   -4.0280   44.6100 C   0  0  0  0  0  0  0  0  0  0  0  0
    0.1790   -3.3150   45.4510 N   0  0  0  0  0  0  0  0  0  0  0  0
    0.7830   -3.7790   43.1370 C   0  0  0  0  0  0  0  0  0  0  0  0
    1.1700   -2.6060   42.6120 C   0  0  0  0  0  0  0  0  0  0  0  0
    1.1150   -2.2870   41.1550 C   0  0  0  0  0  0  0  0  0  0  0  0
    1.2280   -8.5710   45.7830 N   0  0  0  0  0  0  0  0  0  0  0  0
    3.8950   -3.7320   45.0060 C   0  0  0  0  0  0  0  0  0  0  0  0
    4.2150   -2.8940   46.0890 C   0  0  0  0  0  0  0  0  0  0  0  0
    4.3370   -3.3570   43.7270 C   0  0  0  0  0  0  0  0  0  0  0  0
    4.9450   -1.7180   45.8970 C   0  0  0  0  0  0  0  0  0  0  0  0
    5.0650   -2.1790   43.5350 C   0  0  0  0  0  0  0  0  0  0  0  0
    5.3690   -1.3610   44.6190 C   0  0  0  0  0  0  0  0  0  0  0  0
  1  2  2  0
  1  3  1  0
  2  7  1  0
  2  6  1  0
  3 12  1  0
  3  4  2  0
  4  5  1  0
  5  6  2  0
  6 13  1  0
  7  9  1  0
  7  8  2  3
  9 10  2  3
 10 11  1  0
 13 15  1  0
 13 14  2  0
 14 16  1  0
 15 17  2  0
 16 18  2  0
 17 18  1  0
M  END
>  <vina_dock>  (90) 
-7.046

$$$$
O14757_PocketFlow_idx-in-all-generaetd-580
     RDKit          3D

 17 18  0  0  0  0  0  0  0  0999 V2000
    1.3500   -4.6660   44.7140 C   0  0  0  0  0  0  0  0  0  0  0  0
    2.6480   -4.2750   45.0770 C   0  0  0  0  0  0  0  0  0  0  0  0
    3.3430   -3.2810   44.3670 C   0  0  0  0  0  0  0  0  0  0  0  0
    0.7340   -4.0410   43.6230 C   0  0  0  0  0  0  0  0  0  0  0  0
    1.4000   -3.0380   42.9070 C   0  0  0  0  0  0  0  0  0  0  0  0
    2.7030   -2.6710   43.2730 C   0  0  0  0  0  0  0  0  0  0  0  0
    0.6370   -5.7370   45.4930 C   0  0  0  0  0  0  0  0  0  0  0  0
    0.4160   -5.3100   46.8300 O   0  0  0  0  0  0  0  0  0  0  0  0
    4.7100   -2.8970   44.7500 C   0  0  0  0  0  0  0  0  0  0  0  0
    5.3310   -1.7770   44.1880 C   0  0  0  0  0  0  0  0  0  0  0  0
    5.4340   -3.6410   45.6900 C   0  0  0  0  0  0  0  0  0  0  0  0
    6.6200   -1.4520   44.5830 C   0  0  0  0  0  0  0  0  0  0  0  0
    6.7200   -3.2400   46.0190 C   0  0  0  0  0  0  0  0  0  0  0  0
    7.3270   -2.1590   45.4880 N   0  0  0  0  0  0  0  0  0  0  0  0
    0.6990   -2.4180   41.7520 C   0  0  0  0  0  0  0  0  0  0  0  0
   -0.6510   -2.6070   41.6490 N   0  0  0  0  0  0  0  0  0  0  0  0
    1.3070   -1.7870   40.8960 O   0  0  0  0  0  0  0  0  0  0  0  0
  1  4  2  0
  1  2  1  0
  1  7  1  0
  2  3  2  0
  3  6  1  0
  3  9  1  0
  4  5  1  0
  5 15  1  0
  5  6  2  0
  7  8  1  0
  9 10  2  0
  9 11  1  0
 10 12  1  0
 11 13  2  0
 12 14  2  0
 13 14  1  0
 15 17  2  0
 15 16  1  0
M  END
>  <vina_dock>  (91) 
-7.632

$$$$
O14757_PocketFlow_idx-in-all-generaetd-565
     RDKit          3D

 18 18  0  0  0  0  0  0  0  0999 V2000
    0.2500   -2.3860   41.3920 C   0  0  2  0  0  0  0  0  0  0  0  0
    0.3880   -3.7680   42.0690 C   0  0  0  0  0  0  0  0  0  0  0  0
    0.7870   -3.6850   43.5230 C   0  0  0  0  0  0  0  0  0  0  0  0
    0.8250   -4.7440   44.3480 C   0  0  0  0  0  0  0  0  0  0  0  0
    1.2330   -4.6820   45.7830 C   0  0  0  0  0  0  0  0  0  0  0  0
    0.3070   -5.4760   46.5760 N   0  0  0  0  0  0  0  0  0  0  0  0
    1.1300   -1.2870   41.9670 C   0  0  0  0  0  0  0  0  0  0  0  0
    2.4610   -1.1530   41.8450 C   0  0  0  0  0  0  0  0  0  0  0  0
    3.2530   -0.0230   42.4520 C   0  0  0  0  0  0  0  0  0  0  0  0
    4.6690   -0.4370   42.8770 C   0  0  0  0  0  0  0  0  0  0  0  0
    4.7000   -1.5570   43.8890 C   0  0  0  0  0  0  0  0  0  0  0  0
    4.8710   -1.2810   45.2520 C   0  0  0  0  0  0  0  0  0  0  0  0
    4.5470   -2.8890   43.4800 C   0  0  0  0  0  0  0  0  0  0  0  0
    4.8870   -2.3170   46.1880 C   0  0  0  0  0  0  0  0  0  0  0  0
    4.5630   -3.9240   44.4170 C   0  0  0  0  0  0  0  0  0  0  0  0
    4.7330   -3.6380   45.7710 C   0  0  0  0  0  0  0  0  0  0  0  0
   -1.1580   -1.9280   41.4300 C   0  0  0  0  0  0  0  0  0  0  0  0
   -2.2670   -1.5810   41.4560 N   0  0  0  0  0  0  0  0  0  0  0  0
  1 17  1  1
  1  7  1  0
  1  2  1  0
  2  3  1  0
  3  4  2  3
  4  5  1  0
  5  6  1  0
  7  8  2  3
  8  9  1  0
  9 10  1  0
 10 11  1  0
 11 13  2  0
 11 12  1  0
 12 14  2  0
 13 15  1  0
 14 16  1  0
 15 16  2  0
 17 18  3  0
M  END
>  <vina_dock>  (92) 
-6.666

$$$$
O14757_PocketFlow_idx-in-all-generaetd-425
     RDKit          3D

 35 38  0  0  0  0  0  0  0  0999 V2000
    5.8960   -1.6900   44.2600 C   0  0  0  0  0  0  0  0  0  0  0  0
    4.9170   -2.2510   43.3790 O   0  0  0  0  0  0  0  0  0  0  0  0
    3.9190   -1.4070   43.0240 C   0  0  0  0  0  0  0  0  0  0  0  0
    3.9980   -0.2160   42.7840 O   0  0  0  0  0  0  0  0  0  0  0  0
    2.6790   -2.1960   42.9440 C   0  0  0  0  0  0  0  0  0  0  0  0
    1.3890   -4.1110   43.7350 C   0  0  0  0  0  0  0  0  0  0  0  0
    0.3590   -3.7400   42.8570 C   0  0  0  0  0  0  0  0  0  0  0  0
    2.5540   -3.3270   43.7670 C   0  0  0  0  0  0  0  0  0  0  0  0
    0.4830   -2.6110   42.0400 C   0  0  0  0  0  0  0  0  0  0  0  0
    1.6440   -1.8340   42.0790 C   0  0  0  0  0  0  0  0  0  0  0  0
    1.7530   -0.3520   40.8980 Br  0  0  0  0  0  0  0  0  0  0  0  0
    1.2780   -5.3390   44.6230 C   0  0  1  0  0  0  0  0  0  0  0  0
    0.0580   -7.4710   45.1600 C   0  0  0  0  0  0  0  0  0  0  0  0
    0.1630   -6.3090   44.1880 C   0  0  0  0  0  0  0  0  0  0  0  0
   -1.0640   -8.1840   45.3530 C   0  0  0  0  0  0  0  0  0  0  0  0
    1.3290   -7.7850   45.9120 C   0  0  0  0  0  0  0  0  0  0  0  0
   -2.5260   -7.8860   44.4810 Cl  0  0  0  0  0  0  0  0  0  0  0  0
    2.5070   -7.5010   45.0950 N   0  0  0  0  0  0  0  0  0  0  0  0
    2.6280   -6.0840   44.7390 C   0  0  0  0  0  0  0  0  0  0  0  0
   -1.1080   -9.2090   46.2680 O   0  0  0  0  0  0  0  0  0  0  0  0
    6.0070   -2.5420   45.4990 C   0  0  0  0  0  0  0  0  0  0  0  0
    4.8570   -3.0090   46.1440 C   0  0  0  0  0  0  0  0  0  0  0  0
    7.2620   -2.9170   45.9940 C   0  0  0  0  0  0  0  0  0  0  0  0
    4.9620   -3.8300   47.2710 C   0  0  0  0  0  0  0  0  0  0  0  0
    7.3640   -3.7330   47.1230 C   0  0  0  0  0  0  0  0  0  0  0  0
    6.2160   -4.2160   47.7730 C   0  0  0  0  0  0  0  0  0  0  0  0
    6.3170   -5.0860   49.0120 C   0  0  2  0  0  0  0  0  0  0  0  0
    7.3030   -4.6510   49.9240 O   0  0  0  0  0  0  0  0  0  0  0  0
    6.5370   -6.4900   48.7350 N   0  0  0  0  0  0  0  0  0  0  0  0
    5.6250   -7.5240   48.8980 C   0  0  0  0  0  0  0  0  0  0  0  0
    5.0180   -8.2120   47.8410 C   0  0  0  0  0  0  0  0  0  0  0  0
    5.2050   -7.8450   50.1970 C   0  0  0  0  0  0  0  0  0  0  0  0
    4.0730   -9.2180   48.0720 C   0  0  0  0  0  0  0  0  0  0  0  0
    4.2590   -8.8470   50.4370 C   0  0  0  0  0  0  0  0  0  0  0  0
    3.6970   -9.5400   49.3710 C   0  0  0  0  0  0  0  0  0  0  0  0
  1  2  1  0
  1 21  1  0
  2  3  1  0
  3  4  2  0
  3  5  1  0
  5 10  1  0
  5  8  2  0
  6  7  2  0
  6  8  1  0
 12  6  1  6
  7  9  1  0
  9 10  2  0
 10 11  1  0
 12 14  1  0
 12 19  1  0
 13 14  1  0
 13 15  2  3
 13 16  1  0
 15 17  1  0
 15 20  1  0
 16 18  1  0
 18 19  1  0
 21 23  1  0
 21 22  2  0
 22 24  1  0
 23 25  2  0
 24 26  2  0
 25 26  1  0
 26 27  1  0
 27 29  1  0
 27 28  1  1
 29 30  1  0
 30 31  2  0
 30 32  1  0
 31 33  1  0
 32 34  2  0
 33 35  2  0
 34 35  1  0
M  END
>  <vina_dock>  (93) 
-9.462

$$$$
O14757_PocketFlow_idx-in-all-generaetd-407
     RDKit          3D

 35 40  0  0  0  0  0  0  0  0999 V2000
    6.4530   -2.3100   46.0690 C   0  0  0  0  0  0  0  0  0  0  0  0
    6.7420   -3.3350   47.0210 C   0  0  0  0  0  0  0  0  0  0  0  0
    8.0970   -3.6160   47.3530 C   0  0  0  0  0  0  0  0  0  0  0  0
    8.4020   -4.6260   48.3080 C   0  0  0  0  0  0  0  0  0  0  0  0
    7.3740   -5.3520   48.9120 C   0  0  0  0  0  0  0  0  0  0  0  0
    6.0490   -5.0890   48.5890 C   0  0  0  0  0  0  0  0  0  0  0  0
    5.7400   -4.0970   47.6590 C   0  0  0  0  0  0  0  0  0  0  0  0
    9.1120   -2.8720   46.7160 C   0  0  0  0  0  0  0  0  0  0  0  0
    8.8230   -1.8830   45.7810 C   0  0  0  0  0  0  0  0  0  0  0  0
    7.5020   -1.6040   45.4590 C   0  0  0  0  0  0  0  0  0  0  0  0
    5.0340   -1.9580   45.6490 C   0  0  0  0  0  0  0  0  0  0  0  0
    4.8090   -2.2070   44.1560 C   0  0  1  0  0  0  0  0  0  0  0  0
    3.7510   -3.2540   43.7560 C   0  0  2  0  0  0  0  0  0  0  0  0
    3.2390   -2.6070   42.5010 C   0  0  0  0  0  0  0  0  0  0  0  0
    3.5190   -1.3600   42.3540 N   0  0  0  0  0  0  0  0  0  0  0  0
    4.2960   -0.9810   43.4220 C   0  0  0  0  0  0  0  0  0  0  0  0
    4.5490    0.1750   43.7230 O   0  0  0  0  0  0  0  0  0  0  0  0
    2.6200   -3.5620   44.7480 C   0  0  1  0  0  0  0  0  0  0  0  0
    1.2130   -3.6920   44.1880 C   0  0  0  0  0  0  0  0  0  0  0  0
    0.6230   -4.5920   45.2230 C   0  0  0  0  0  0  0  0  0  0  0  0
    2.7950   -4.8890   45.4940 C   0  0  0  0  0  0  0  0  0  0  0  0
    1.4470   -5.2570   45.9670 N   0  0  0  0  0  0  0  0  0  0  0  0
    9.7370   -4.8290   48.5610 O   0  0  0  0  0  0  0  0  0  0  0  0
   10.3530   -6.0650   48.1910 C   0  0  2  0  0  0  0  0  0  0  0  0
   11.5550   -5.7440   47.3030 C   0  0  0  0  0  0  0  0  0  0  0  0
    9.3940   -6.9150   47.3590 C   0  0  0  0  0  0  0  0  0  0  0  0
   12.2840   -6.9170   46.9350 O   0  0  0  0  0  0  0  0  0  0  0  0
   10.1280   -8.0050   46.6320 C   0  0  0  0  0  0  0  0  0  0  0  0
   11.5190   -7.9490   46.4530 C   0  0  0  0  0  0  0  0  0  0  0  0
    9.4100   -9.0850   46.1010 C   0  0  0  0  0  0  0  0  0  0  0  0
   12.1970   -8.9860   45.7890 C   0  0  0  0  0  0  0  0  0  0  0  0
   10.0710  -10.1070   45.4260 C   0  0  0  0  0  0  0  0  0  0  0  0
   11.4560  -10.0590   45.2730 C   0  0  0  0  0  0  0  0  0  0  0  0
   13.6930   -8.9530   45.5890 C   0  0  0  0  0  0  0  0  0  0  0  0
   14.0760   -8.2930   44.2730 C   0  0  0  0  0  0  0  0  0  0  0  0
  1 10  2  0
  1 11  1  0
  1  2  1  0
  2  3  2  0
  2  7  1  0
  3  8  1  0
  3  4  1  0
  4 23  1  0
  4  5  2  0
  5  6  1  0
  6  7  2  0
  8  9  2  0
  9 10  1  0
 12 11  1  1
 12 16  1  0
 12 13  1  0
 13 14  1  6
 13 18  1  0
 14 15  1  0
 15 16  1  0
 16 17  2  0
 18 19  1  6
 18 21  1  0
 19 20  1  0
 20 22  1  0
 21 22  1  0
 24 23  1  6
 24 25  1  0
 24 26  1  0
 25 27  1  0
 26 28  1  0
 27 29  1  0
 28 30  1  0
 28 29  2  0
 29 31  1  0
 30 32  2  0
 31 33  2  0
 31 34  1  0
 32 33  1  0
 34 35  1  0
M  END
>  <vina_dock>  (94) 
-7.878

$$$$
O14757_PocketFlow_idx-in-all-generaetd-657
     RDKit          3D

 35 38  0  0  0  0  0  0  0  0999 V2000
   -0.0100   -6.1260   44.7310 C   0  0  0  0  0  0  0  0  0  0  0  0
   -0.7760   -7.1200   44.1100 C   0  0  0  0  0  0  0  0  0  0  0  0
   -1.5530   -7.9940   44.8740 C   0  0  0  0  0  0  0  0  0  0  0  0
   -1.5760   -7.8870   46.2710 C   0  0  0  0  0  0  0  0  0  0  0  0
   -0.8100   -6.8950   46.8940 C   0  0  0  0  0  0  0  0  0  0  0  0
   -0.0330   -6.0200   46.1290 C   0  0  0  0  0  0  0  0  0  0  0  0
    0.8520   -5.1980   43.9080 C   0  0  0  0  0  0  0  0  0  0  0  0
    1.3390   -3.9640   44.6820 C   0  0  0  0  0  0  0  0  0  0  0  0
    2.8310   -3.9520   44.9510 C   0  0  0  0  0  0  0  0  0  0  0  0
    3.2590   -4.8510   46.3870 Cl  0  0  0  0  0  0  0  0  0  0  0  0
    3.7670   -3.2710   44.2530 C   0  0  0  0  0  0  0  0  0  0  0  0
    3.4410   -2.5080   43.0590 C   0  0  0  0  0  0  0  0  0  0  0  0
    5.2550   -3.2890   44.5630 C   0  0  0  0  0  0  0  0  0  0  0  0
    3.9520   -1.3180   42.7070 C   0  0  0  0  0  0  0  0  0  0  0  0
    5.7360   -2.0250   45.2980 C   0  0  2  0  0  0  0  0  0  0  0  0
    4.8260   -0.4490   43.4620 C   0  0  0  0  0  0  0  0  0  0  0  0
    5.5620   -0.7180   44.5500 C   0  0  0  0  0  0  0  0  0  0  0  0
    7.1920   -2.2120   45.7250 C   0  0  0  0  0  0  0  0  0  0  0  0
    7.6790   -3.4630   46.1330 C   0  0  0  0  0  0  0  0  0  0  0  0
    8.0700   -1.1210   45.7280 C   0  0  0  0  0  0  0  0  0  0  0  0
    9.0110   -3.6150   46.5310 C   0  0  0  0  0  0  0  0  0  0  0  0
    9.4030   -1.2780   46.1260 C   0  0  0  0  0  0  0  0  0  0  0  0
    9.8960   -2.5260   46.5340 C   0  0  0  0  0  0  0  0  0  0  0  0
   11.2980   -2.6880   46.9530 C   0  0  0  0  0  0  0  0  0  0  0  0
   11.6260   -3.3740   48.1350 C   0  0  0  0  0  0  0  0  0  0  0  0
   12.3490   -2.1620   46.1840 C   0  0  0  0  0  0  0  0  0  0  0  0
   12.9560   -3.5270   48.5340 C   0  0  0  0  0  0  0  0  0  0  0  0
   13.6810   -2.3160   46.5820 C   0  0  0  0  0  0  0  0  0  0  0  0
   13.9830   -2.9980   47.7570 C   0  0  0  0  0  0  0  0  0  0  0  0
   -2.4210   -8.8460   47.0350 C   0  0  0  0  0  0  0  0  0  0  0  0
   -3.2310   -9.5920   46.5080 O   0  0  0  0  0  0  0  0  0  0  0  0
   -2.1590   -8.7560   48.3610 O   0  0  0  0  0  0  0  0  0  0  0  0
   -1.9300   -9.9940   49.0440 C   0  0  0  0  0  0  0  0  0  0  0  0
   -0.4570  -10.2650   49.0650 C   0  0  0  0  0  0  0  0  0  0  0  0
    0.4800   -9.3690   49.3960 C   0  0  0  0  0  0  0  0  0  0  0  0
  1  7  1  0
  1  2  2  0
  1  6  1  0
  2  3  1  0
  3  4  2  0
  4  5  1  0
  4 30  1  0
  5  6  2  0
  7  8  1  0
  8  9  1  0
  9 11  2  3
  9 10  1  0
 11 12  1  0
 11 13  1  0
 12 14  2  0
 13 15  1  0
 14 16  1  0
 15 17  1  0
 15 18  1  6
 16 17  2  0
 18 20  1  0
 18 19  2  0
 19 21  1  0
 20 22  2  0
 21 23  2  0
 22 23  1  0
 23 24  1  0
 24 26  1  0
 24 25  2  0
 25 27  1  0
 26 28  2  0
 27 29  2  0
 28 29  1  0
 30 31  2  0
 30 32  1  0
 32 33  1  0
 33 34  1  0
 34 35  2  0
M  END
>  <vina_dock>  (95) 
-8.811

$$$$
O14757_PocketFlow_idx-in-all-generaetd-630
     RDKit          3D

 15 16  0  0  0  0  0  0  0  0999 V2000
    4.1670   -1.4960   43.3100 C   0  0  0  0  0  0  0  0  0  0  0  0
    4.4860   -0.3440   42.6890 C   0  0  0  0  0  0  0  0  0  0  0  0
    5.1390   -2.0680   44.2750 C   0  0  0  0  0  0  0  0  0  0  0  0
    7.2980   -1.9790   45.3590 C   0  0  0  0  0  0  0  0  0  0  0  0
    8.4930   -1.3930   45.5070 F   0  0  0  0  0  0  0  0  0  0  0  0
    6.9870   -3.0960   46.1260 C   0  0  0  0  0  0  0  0  0  0  0  0
    6.3890   -1.4590   44.4420 C   0  0  0  0  0  0  0  0  0  0  0  0
    5.7440   -3.7050   45.9770 C   0  0  0  0  0  0  0  0  0  0  0  0
    4.8230   -3.1900   45.0580 C   0  0  0  0  0  0  0  0  0  0  0  0
    2.8590   -2.1210   42.9900 C   0  0  0  0  0  0  0  0  0  0  0  0
    2.1430   -1.6980   41.8620 C   0  0  0  0  0  0  0  0  0  0  0  0
    2.3320   -3.1590   43.7730 C   0  0  0  0  0  0  0  0  0  0  0  0
    0.9210   -2.2880   41.5320 C   0  0  0  0  0  0  0  0  0  0  0  0
    1.1090   -3.7480   43.4440 C   0  0  0  0  0  0  0  0  0  0  0  0
    0.4040   -3.3110   42.3240 C   0  0  0  0  0  0  0  0  0  0  0  0
  1  2  2  0
  1 10  1  0
  1  3  1  0
  3  7  1  0
  3  9  2  0
  4  7  2  0
  4  5  1  0
  4  6  1  0
  6  8  2  0
  8  9  1  0
 10 11  2  0
 10 12  1  0
 11 13  1  0
 12 14  2  0
 13 15  2  0
 14 15  1  0
M  END
>  <vina_dock>  (96) 
-7.819

$$$$
O14757_PocketFlow_idx-in-all-generaetd-938
     RDKit          3D

 35 38  0  0  0  0  0  0  0  0999 V2000
    0.7120   -3.6590   44.4710 C   0  0  0  0  0  0  0  0  0  0  0  0
    0.9650   -2.9960   43.1930 N   0  0  0  0  0  0  0  0  0  0  0  0
    2.1330   -2.6080   42.8640 C   0  0  0  0  0  0  0  0  0  0  0  0
    3.4210   -2.6240   43.5600 C   0  0  0  0  0  0  0  0  0  0  0  0
    5.8600   -2.5860   44.9790 C   0  0  0  0  0  0  0  0  0  0  0  0
    5.0230   -3.7170   45.0010 C   0  0  0  0  0  0  0  0  0  0  0  0
    5.4400   -1.4760   44.2240 C   0  0  0  0  0  0  0  0  0  0  0  0
    3.8090   -3.7370   44.3030 C   0  0  0  0  0  0  0  0  0  0  0  0
    4.2310   -1.4890   43.5220 C   0  0  0  0  0  0  0  0  0  0  0  0
    7.1250   -2.5520   45.7380 C   0  0  0  0  0  0  0  0  0  0  0  0
    9.5640   -2.4630   47.2390 C   0  0  0  0  0  0  0  0  0  0  0  0
    9.2310   -1.4560   46.3190 C   0  0  0  0  0  0  0  0  0  0  0  0
    8.6400   -3.5050   47.3910 C   0  0  0  0  0  0  0  0  0  0  0  0
    8.0450   -1.5030   45.5770 C   0  0  0  0  0  0  0  0  0  0  0  0
    8.8900   -4.5080   48.2500 F   0  0  0  0  0  0  0  0  0  0  0  0
    7.4460   -3.5530   46.6660 C   0  0  0  0  0  0  0  0  0  0  0  0
   10.8160   -2.4520   48.0100 C   0  0  0  0  0  0  0  0  0  0  0  0
   13.1990   -2.4640   49.5100 C   0  0  0  0  0  0  0  0  0  0  0  0
   13.1610   -3.0630   48.2520 C   0  0  0  0  0  0  0  0  0  0  0  0
   12.0560   -1.8540   50.0230 C   0  0  0  0  0  0  0  0  0  0  0  0
   11.9780   -3.0570   47.5080 C   0  0  0  0  0  0  0  0  0  0  0  0
   10.8740   -1.8470   49.2770 C   0  0  0  0  0  0  0  0  0  0  0  0
   10.0270   -0.3610   46.1000 O   0  0  0  0  0  0  0  0  0  0  0  0
    2.2700   -2.0470   41.6530 O   0  0  0  0  0  0  0  0  0  0  0  0
    0.6450   -5.1800   44.2830 C   0  0  0  0  0  0  0  0  0  0  0  0
    0.6780   -5.9430   45.4920 O   0  0  0  0  0  0  0  0  0  0  0  0
   -0.0910   -7.1580   45.4860 C   0  0  2  0  0  0  0  0  0  0  0  0
   -0.8910   -7.3090   44.1830 C   0  0  0  0  0  0  0  0  0  0  0  0
   -1.0440   -7.0660   46.6900 C   0  0  1  0  0  0  0  0  0  0  0  0
   -2.2910   -7.9020   44.3690 C   0  0  0  0  0  0  0  0  0  0  0  0
   -1.9130   -8.3250   46.8360 C   0  0  1  0  0  0  0  0  0  0  0  0
   -2.3220   -8.9450   45.4880 C   0  0  1  0  0  0  0  0  0  0  0  0
   -3.7010   -9.5960   45.5900 C   0  0  0  0  0  0  0  0  0  0  0  0
   -0.2890   -6.8750   47.9010 O   0  0  0  0  0  0  0  0  0  0  0  0
   -1.1940   -9.3180   47.5800 O   0  0  0  0  0  0  0  0  0  0  0  0
  1  2  1  0
  1 25  1  0
  2  3  2  3
  3 24  1  0
  3  4  1  0
  4  9  1  0
  4  8  2  0
  5  7  1  0
  5  6  2  0
  5 10  1  0
  6  8  1  0
  7  9  2  0
 10 14  2  0
 10 16  1  0
 11 12  2  0
 11 13  1  0
 11 17  1  0
 12 14  1  0
 12 23  1  0
 13 16  2  0
 13 15  1  0
 17 21  2  0
 17 22  1  0
 18 19  2  0
 18 20  1  0
 19 21  1  0
 20 22  2  0
 25 26  1  0
 27 26  1  6
 27 28  1  0
 27 29  1  0
 28 30  1  0
 29 31  1  0
 29 34  1  1
 30 32  1  0
 31 32  1  0
 31 35  1  1
 32 33  1  1
M  END
>  <vina_dock>  (97) 
-9.135

$$$$
O14757_PocketFlow_idx-in-all-generaetd-8
     RDKit          3D

 14 14  0  0  0  0  0  0  0  0999 V2000
    0.3670   -4.7940   44.4710 N   0  0  0  0  0  0  0  0  0  0  0  0
    0.5140   -6.1650   44.6020 C   0  0  0  0  0  0  0  0  0  0  0  0
    1.4430   -6.8620   44.2250 O   0  0  0  0  0  0  0  0  0  0  0  0
    1.2560   -3.8840   43.8720 C   0  0  0  0  0  0  0  0  0  0  0  0
    0.9410   -3.1110   42.7530 C   0  0  0  0  0  0  0  0  0  0  0  0
    2.5290   -3.7610   44.4470 C   0  0  0  0  0  0  0  0  0  0  0  0
    1.8900   -2.2360   42.2310 C   0  0  0  0  0  0  0  0  0  0  0  0
    3.4750   -2.8790   43.9150 C   0  0  0  0  0  0  0  0  0  0  0  0
    1.5820   -1.4960   41.1570 F   0  0  0  0  0  0  0  0  0  0  0  0
    3.1510   -2.1120   42.8000 C   0  0  0  0  0  0  0  0  0  0  0  0
   -0.7020   -6.7890   45.3280 C   0  0  0  0  0  0  0  0  0  0  0  0
   -0.9990   -6.4460   46.4630 O   0  0  0  0  0  0  0  0  0  0  0  0
   -1.3240   -7.7020   44.5590 O   0  0  0  0  0  0  0  0  0  0  0  0
   -2.6900   -7.9240   44.9050 C   0  0  0  0  0  0  0  0  0  0  0  0
  1  4  1  0
  1  2  1  0
  2  3  2  0
  2 11  1  0
  4  5  2  0
  4  6  1  0
  5  7  1  0
  6  8  2  0
  7  9  1  0
  7 10  2  0
  8 10  1  0
 11 13  1  0
 11 12  2  0
 13 14  1  0
M  END
>  <vina_dock>  (98) 
-6.133

$$$$
O14757_PocketFlow_idx-in-all-generaetd-395
     RDKit          3D

  7  6  0  0  0  0  0  0  0  0999 V2000
    3.6130   -3.0100   43.9110 C   0  0  0  0  0  0  0  0  0  0  0  0
    2.1720   -3.4230   43.8560 C   0  0  0  0  0  0  0  0  0  0  0  0
    1.3240   -3.0410   42.8960 C   0  0  0  0  0  0  0  0  0  0  0  0
    0.0000   -3.3720   42.8140 N   0  0  0  0  0  0  0  0  0  0  0  0
    3.9520   -1.7660   43.0820 C   0  0  0  0  0  0  0  0  0  0  0  0
    5.1950   -0.9960   43.5440 C   0  0  0  0  0  0  0  0  0  0  0  0
    6.0020   -1.7230   44.6090 C   0  0  0  0  0  0  0  0  0  0  0  0
  1  5  1  0
  1  2  1  0
  2  3  2  3
  3  4  1  0
  5  6  1  0
  6  7  1  0
M  END
>  <vina_dock>  (99) 
-4.113

$$$$
O14757_PocketFlow_idx-in-all-generaetd-651
     RDKit          3D

 35 37  0  0  0  0  0  0  0  0999 V2000
    3.6410   -4.3560   44.8240 C   0  0  0  0  0  0  0  0  0  0  0  0
    2.9610   -3.5140   43.9100 C   0  0  0  0  0  0  0  0  0  0  0  0
    1.6490   -3.7410   43.4330 C   0  0  0  0  0  0  0  0  0  0  0  0
    1.0410   -2.8730   42.5230 C   0  0  0  0  0  0  0  0  0  0  0  0
    1.7190   -1.7400   42.0670 C   0  0  0  0  0  0  0  0  0  0  0  0
    3.0140   -1.4940   42.5410 C   0  0  0  0  0  0  0  0  0  0  0  0
    3.6360   -2.3540   43.4620 C   0  0  0  0  0  0  0  0  0  0  0  0
    4.9150   -4.0380   45.3160 C   0  0  0  0  0  0  0  0  0  0  0  0
    5.5630   -2.8790   44.8880 C   0  0  0  0  0  0  0  0  0  0  0  0
    4.9210   -2.0580   43.9510 C   0  0  0  0  0  0  0  0  0  0  0  0
    3.0580   -5.6300   45.2970 C   0  0  0  0  0  0  0  0  0  0  0  0
    3.7760   -6.6190   45.3920 O   0  0  0  0  0  0  0  0  0  0  0  0
    1.5790   -5.6290   45.6290 C   0  0  0  0  0  0  0  0  0  0  0  0
    0.9350   -6.9730   45.2900 C   0  0  0  0  0  0  0  0  0  0  0  0
   -0.2860   -6.8320   44.3760 C   0  0  0  0  0  0  0  0  0  0  0  0
   -1.4110   -7.7790   44.7230 C   0  0  0  0  0  0  0  0  0  0  0  0
   -2.4150   -9.4000   46.2210 C   0  0  0  0  0  0  0  0  0  0  0  0
   -2.3450  -10.3350   47.6660 Cl  0  0  0  0  0  0  0  0  0  0  0  0
   -1.3610   -8.5450   45.8960 C   0  0  0  0  0  0  0  0  0  0  0  0
   -3.5270   -9.5030   45.3870 C   0  0  0  0  0  0  0  0  0  0  0  0
   -3.5860   -8.7420   44.2190 C   0  0  0  0  0  0  0  0  0  0  0  0
   -2.5330   -7.8870   43.8870 C   0  0  0  0  0  0  0  0  0  0  0  0
    6.9290   -2.5140   45.4240 C   0  0  0  0  0  0  0  0  0  0  0  0
    7.4750   -3.2820   46.9490 P   0  0  1  0  0  0  0  0  0  0  0  0
    8.4120   -2.5010   47.8110 O   0  0  0  0  0  0  0  0  0  0  0  0
    6.1670   -3.8130   47.7230 O   0  0  0  0  0  0  0  0  0  0  0  0
    6.3500   -4.5360   48.9430 C   0  0  0  0  0  0  0  0  0  0  0  0
    6.0430   -6.0230   48.8460 C   0  0  0  0  0  0  0  0  0  0  0  0
    5.2120   -6.2860   47.8160 F   0  0  0  0  0  0  0  0  0  0  0  0
    7.1730   -6.7390   48.6510 F   0  0  0  0  0  0  0  0  0  0  0  0
    5.4520   -6.4870   49.9680 F   0  0  0  0  0  0  0  0  0  0  0  0
    8.1360   -4.6760   46.4960 O   0  0  0  0  0  0  0  0  0  0  0  0
    1.0680   -0.8160   41.0710 C   0  0  0  0  0  0  0  0  0  0  0  0
   -0.1970   -0.4560   41.4340 F   0  0  0  0  0  0  0  0  0  0  0  0
    1.7480    0.3510   40.8950 F   0  0  0  0  0  0  0  0  0  0  0  0
  1  2  1  0
  1 11  1  0
  1  8  2  0
  2  3  2  0
  2  7  1  0
  3  4  1  0
  4  5  2  0
  5 33  1  0
  5  6  1  0
  6  7  2  0
  7 10  1  0
  8  9  1  0
  9 10  2  0
  9 23  1  0
 11 12  2  0
 11 13  1  0
 13 14  1  0
 14 15  1  0
 15 16  1  0
 16 22  1  0
 16 19  2  0
 17 20  2  0
 17 19  1  0
 17 18  1  0
 20 21  1  0
 21 22  2  0
 23 24  1  0
 24 32  1  6
 24 26  1  0
 24 25  2  0
 26 27  1  0
 27 28  1  0
 28 29  1  0
 28 30  1  0
 28 31  1  0
 33 35  1  0
 33 34  1  0
M  END
>  <vina_dock>  (100) 
-9.459

$$$$
O14757_PocketFlow_idx-in-all-generaetd-161
     RDKit          3D

 35 39  0  0  0  0  0  0  0  0999 V2000
    3.9340   -8.6960   47.1960 C   0  0  0  0  0  0  0  0  0  0  0  0
    3.0600   -8.0680   46.1680 C   0  0  0  0  0  0  0  0  0  0  0  0
    3.0010   -6.7860   45.7920 C   0  0  0  0  0  0  0  0  0  0  0  0
    5.2440   -8.0510   47.6220 C   0  0  0  0  0  0  0  0  0  0  0  0
    2.1110   -6.3200   44.6600 C   0  0  0  0  0  0  0  0  0  0  0  0
    2.7610   -4.9820   44.2720 C   0  0  1  0  0  0  0  0  0  0  0  0
    1.7880   -4.0190   43.6020 C   0  0  0  0  0  0  0  0  0  0  0  0
    6.3870   -9.0780   47.6460 C   0  0  0  0  0  0  0  0  0  0  0  0
    7.5240   -8.7320   48.6190 C   0  0  0  0  0  0  0  0  0  0  0  0
    2.2160   -2.6240   43.6430 N   0  0  0  0  0  0  0  0  0  0  0  0
    3.6100   -2.4190   43.2430 C   0  0  0  0  0  0  0  0  0  0  0  0
    4.6400   -2.6030   44.3440 C   0  0  0  0  0  0  0  0  0  0  0  0
    4.5350   -3.5370   45.4040 C   0  0  0  0  0  0  0  0  0  0  0  0
    5.5990   -3.6140   46.3300 C   0  0  0  0  0  0  0  0  0  0  0  0
    6.7670   -2.8490   46.2060 C   0  0  0  0  0  0  0  0  0  0  0  0
    6.8680   -1.9490   45.1480 C   0  0  0  0  0  0  0  0  0  0  0  0
    5.8190   -1.8300   44.2340 C   0  0  0  0  0  0  0  0  0  0  0  0
    3.3250   -4.4370   45.5930 C   0  0  2  0  0  0  0  0  0  0  0  0
    3.6760   -5.6920   46.2910 N   0  0  0  0  0  0  0  0  0  0  0  0
    7.9000   -3.0610   47.1760 C   0  0  0  0  0  0  0  0  0  0  0  0
    8.6920   -4.3260   46.8230 C   0  0  0  0  0  0  0  0  0  0  0  0
    9.5580   -4.7820   48.0030 C   0  0  0  0  0  0  0  0  0  0  0  0
   10.2840   -6.0960   47.7290 C   0  0  0  0  0  0  0  0  0  0  0  0
   11.5740   -6.1450   47.2910 C   0  0  0  0  0  0  0  0  0  0  0  0
    3.5610   -9.7720   47.6730 O   0  0  0  0  0  0  0  0  0  0  0  0
    8.2160   -7.4270   48.3250 C   0  0  0  0  0  0  0  0  0  0  0  0
    9.5230   -7.3280   48.0250 C   0  0  0  0  0  0  0  0  0  0  0  0
   12.3140   -4.8930   46.9150 C   0  0  0  0  0  0  0  0  0  0  0  0
   12.1440   -4.2920   45.8630 O   0  0  0  0  0  0  0  0  0  0  0  0
   12.3170   -7.4140   47.1150 C   0  0  0  0  0  0  0  0  0  0  0  0
   12.9660   -8.0040   48.2090 C   0  0  0  0  0  0  0  0  0  0  0  0
   12.3870   -8.0310   45.8570 C   0  0  0  0  0  0  0  0  0  0  0  0
   13.6770   -9.1930   48.0430 C   0  0  0  0  0  0  0  0  0  0  0  0
   13.0950   -9.2240   45.6950 C   0  0  0  0  0  0  0  0  0  0  0  0
   13.7370   -9.8060   46.7890 C   0  0  0  0  0  0  0  0  0  0  0  0
  1  2  1  0
  1  4  1  0
  1 25  2  0
  2  3  2  3
  3  5  1  0
  3 19  1  0
  4  8  1  0
  6  5  1  1
  6  7  1  0
  6 18  1  0
  7 10  1  0
  8  9  1  0
  9 26  1  0
 10 11  1  0
 11 12  1  0
 12 17  1  0
 12 13  2  0
 13 18  1  0
 13 14  1  0
 14 15  2  0
 15 16  1  0
 15 20  1  0
 16 17  2  0
 18 19  1  1
 20 21  1  0
 21 22  1  0
 22 23  1  0
 23 24  2  3
 23 27  1  0
 24 28  1  0
 24 30  1  0
 26 27  2  3
 28 29  2  0
 30 32  1  0
 30 31  2  0
 31 33  1  0
 32 34  2  0
 33 35  2  0
 34 35  1  0
M  END
>  <vina_dock>  (101) 
-8.394

$$$$
O14757_PocketFlow_idx-in-all-generaetd-693
     RDKit          3D

 15 16  0  0  0  0  0  0  0  0999 V2000
    1.1520   -2.6680   42.4200 C   0  0  0  0  0  0  0  0  0  0  0  0
    2.1390   -1.7590   42.0290 C   0  0  0  0  0  0  0  0  0  0  0  0
    3.3650   -1.7200   42.7020 C   0  0  0  0  0  0  0  0  0  0  0  0
    3.6300   -2.5860   43.7770 C   0  0  0  0  0  0  0  0  0  0  0  0
    2.6280   -3.4940   44.1570 C   0  0  0  0  0  0  0  0  0  0  0  0
    1.4010   -3.5360   43.4880 C   0  0  0  0  0  0  0  0  0  0  0  0
   -0.1630   -2.7480   41.7390 C   0  0  0  0  0  0  0  0  0  0  0  0
   -0.9590   -1.8350   41.6150 O   0  0  0  0  0  0  0  0  0  0  0  0
   -0.4220   -3.9710   41.2430 O   0  0  0  0  0  0  0  0  0  0  0  0
    4.9220   -2.5430   44.4840 C   0  0  0  0  0  0  0  0  0  0  0  0
    5.8500   -1.5170   44.2340 C   0  0  0  0  0  0  0  0  0  0  0  0
    5.2640   -3.5250   45.4280 C   0  0  0  0  0  0  0  0  0  0  0  0
    7.0760   -1.4760   44.9040 C   0  0  0  0  0  0  0  0  0  0  0  0
    6.4900   -3.4860   46.0970 C   0  0  0  0  0  0  0  0  0  0  0  0
    7.3950   -2.4600   45.8360 C   0  0  0  0  0  0  0  0  0  0  0  0
  1  7  1  0
  1  2  2  0
  1  6  1  0
  2  3  1  0
  3  4  2  0
  4  5  1  0
  4 10  1  0
  5  6  2  0
  7  9  1  0
  7  8  2  0
 10 11  2  0
 10 12  1  0
 11 13  1  0
 12 14  2  0
 13 15  2  0
 14 15  1  0
M  END
>  <vina_dock>  (102) 
-7.861

$$$$
O14757_PocketFlow_idx-in-all-generaetd-989
     RDKit          3D

 35 38  0  0  0  0  0  0  0  0999 V2000
    2.4010   -3.4090   43.8410 C   0  0  0  0  0  0  0  0  0  0  0  0
    3.7130   -2.7060   44.0020 C   0  0  0  0  0  0  0  0  0  0  0  0
    5.7960   -2.1530   44.7010 N   0  0  0  0  0  0  0  0  0  0  0  0
    4.7330   -3.0180   44.8820 C   0  0  0  0  0  0  0  0  0  0  0  0
    5.4280   -1.2570   43.7160 C   0  0  0  0  0  0  0  0  0  0  0  0
    4.1620   -1.5750   43.2720 C   0  0  0  0  0  0  0  0  0  0  0  0
    7.0310   -2.2250   45.4200 C   0  0  0  0  0  0  0  0  0  0  0  0
    9.4220   -2.4490   46.7960 C   0  0  0  0  0  0  0  0  0  0  0  0
    8.4980   -3.4810   46.7070 C   0  0  0  0  0  0  0  0  0  0  0  0
    9.1040   -1.2560   46.1430 C   0  0  0  0  0  0  0  0  0  0  0  0
    7.3240   -3.3960   46.0450 N   0  0  0  0  0  0  0  0  0  0  0  0
    7.8960   -1.1340   45.4520 C   0  0  0  0  0  0  0  0  0  0  0  0
   10.7310   -2.6490   47.5140 C   0  0  0  0  0  0  0  0  0  0  0  0
   11.8580   -1.7700   47.0390 C   0  0  0  0  0  0  0  0  0  0  0  0
   13.5490   -1.1900   45.4290 C   0  0  0  0  0  0  0  0  0  0  0  0
   12.5020   -2.0090   45.8200 C   0  0  0  0  0  0  0  0  0  0  0  0
   13.9320   -0.1510   46.2640 C   0  0  0  0  0  0  0  0  0  0  0  0
   13.3350    0.1140   47.4470 N   0  0  0  0  0  0  0  0  0  0  0  0
   12.3140   -0.6980   47.8070 C   0  0  0  0  0  0  0  0  0  0  0  0
   14.1600   -1.4500   44.2400 O   0  0  0  0  0  0  0  0  0  0  0  0
    2.0260   -4.0880   45.0390 O   0  0  0  0  0  0  0  0  0  0  0  0
    0.9010   -4.9370   44.8470 C   0  0  2  0  0  0  0  0  0  0  0  0
    0.2900   -5.1920   46.2210 C   0  0  0  0  0  0  0  0  0  0  0  0
    1.2860   -6.1750   44.2770 O   0  0  0  0  0  0  0  0  0  0  0  0
   -0.4490   -6.5250   46.3000 C   0  0  2  0  0  0  0  0  0  0  0  0
    0.1480   -6.9440   43.8990 C   0  0  1  0  0  0  0  0  0  0  0  0
   -0.9970   -6.9600   44.9330 C   0  0  1  0  0  0  0  0  0  0  0  0
   -0.3170   -6.4010   42.7370 F   0  0  0  0  0  0  0  0  0  0  0  0
   -1.5020   -6.3860   47.2590 O   0  0  0  0  0  0  0  0  0  0  0  0
   -1.5240   -8.3020   44.9880 O   0  0  0  0  0  0  0  0  0  0  0  0
   -2.9060   -8.3870   44.6310 C   0  0  0  0  0  0  0  0  0  0  0  0
   -3.5590   -9.5310   45.4110 C   0  0  0  0  0  0  0  0  0  0  0  0
   -2.8520   -9.8010   46.7140 C   0  0  0  0  0  0  0  0  0  0  0  0
   -3.3370   -9.4580   47.9170 C   0  0  0  0  0  0  0  0  0  0  0  0
   -2.6280   -9.7200   49.2070 C   0  0  0  0  0  0  0  0  0  0  0  0
  1  2  1  0
  1 21  1  0
  2  6  1  0
  2  4  2  0
  3  5  1  0
  3  4  1  0
  3  7  1  0
  5  6  2  0
  7 12  1  0
  7 11  2  0
  8 10  1  0
  8  9  2  0
  8 13  1  0
  9 11  1  0
 10 12  2  0
 13 14  1  0
 14 16  1  0
 14 19  2  0
 15 20  1  0
 15 16  2  0
 15 17  1  0
 17 18  2  0
 18 19  1  0
 22 21  1  1
 22 24  1  0
 22 23  1  0
 23 25  1  0
 24 26  1  0
 25 27  1  0
 25 29  1  1
 26 28  1  6
 26 27  1  0
 27 30  1  1
 30 31  1  0
 31 32  1  0
 32 33  1  0
 33 34  2  3
 34 35  1  0
M  END
>  <vina_dock>  (103) 
-7.884

$$$$
O14757_PocketFlow_idx-in-all-generaetd-722
     RDKit          3D

 35 36  0  0  0  0  0  0  0  0999 V2000
    3.8040   -5.9390   44.5030 C   0  0  0  0  0  0  0  0  0  0  0  0
    3.2050   -6.5940   45.7490 C   0  0  0  0  0  0  0  0  0  0  0  0
    1.9660   -7.4560   45.4630 C   0  0  0  0  0  0  0  0  0  0  0  0
    0.6170   -6.6950   45.3720 C   0  0  2  0  0  0  0  0  0  0  0  0
   -0.5930   -7.6210   45.3950 C   0  0  0  0  0  0  0  0  0  0  0  0
   -1.9040   -9.4120   46.4220 C   0  0  0  0  0  0  0  0  0  0  0  0
   -2.8600   -9.2850   45.4070 C   0  0  0  0  0  0  0  0  0  0  0  0
   -0.7740   -8.5810   46.4050 C   0  0  0  0  0  0  0  0  0  0  0  0
   -2.6840   -8.3510   44.3890 C   0  0  0  0  0  0  0  0  0  0  0  0
   -1.5600   -7.5270   44.3810 C   0  0  0  0  0  0  0  0  0  0  0  0
   -2.1060  -10.4020   47.5390 C   0  0  0  0  0  0  0  0  0  0  0  0
   -3.3200  -10.0530   48.3950 C   0  0  0  0  0  0  0  0  0  0  0  0
   -2.9810  -10.1020   49.7770 O   0  0  0  0  0  0  0  0  0  0  0  0
    0.6590   -5.7370   44.1880 C   0  0  0  0  0  0  0  0  0  0  0  0
    0.8020   -4.4000   44.2190 C   0  0  0  0  0  0  0  0  0  0  0  0
    0.8230   -3.5360   43.0270 C   0  0  0  0  0  0  0  0  0  0  0  0
    1.7480   -2.4830   42.9770 C   0  0  0  0  0  0  0  0  0  0  0  0
   -0.0070   -3.7550   41.9190 C   0  0  0  0  0  0  0  0  0  0  0  0
    1.8190   -1.6490   41.8580 C   0  0  0  0  0  0  0  0  0  0  0  0
    0.0650   -2.9200   40.8000 C   0  0  0  0  0  0  0  0  0  0  0  0
    0.9750   -1.8660   40.7720 C   0  0  0  0  0  0  0  0  0  0  0  0
    4.3410   -4.5260   44.7590 C   0  0  0  0  0  0  0  0  0  0  0  0
    3.9340   -3.9620   46.1230 C   0  0  0  0  0  0  0  0  0  0  0  0
    4.8120   -2.7680   46.5190 C   0  0  0  0  0  0  0  0  0  0  0  0
    5.4990   -2.0920   45.3110 C   0  0  1  0  0  0  0  0  0  0  0  0
    4.6190   -0.9970   44.6850 C   0  0  0  0  0  0  0  0  0  0  0  0
    4.9370   -0.7390   43.2360 C   0  0  0  0  0  0  0  0  0  0  0  0
    5.0850   -1.8170   42.4510 F   0  0  0  0  0  0  0  0  0  0  0  0
    5.0620    0.3520   42.7020 O   0  0  0  0  0  0  0  0  0  0  0  0
    6.8980   -1.5920   45.6190 C   0  0  0  0  0  0  0  0  0  0  0  0
    8.0060   -2.2470   46.0000 C   0  0  0  0  0  0  0  0  0  0  0  0
    8.1640   -3.6720   46.1820 C   0  0  0  0  0  0  0  0  0  0  0  0
    7.9790   -4.3710   47.3150 C   0  0  0  0  0  0  0  0  0  0  0  0
    7.5360   -3.8700   48.5970 C   0  0  0  0  0  0  0  0  0  0  0  0
    6.5550   -4.4500   49.3010 C   0  0  0  0  0  0  0  0  0  0  0  0
  1 22  1  0
  1  2  1  0
  2  3  1  0
  4  3  1  6
  4 14  1  0
  4  5  1  0
  5 10  1  0
  5  8  2  0
  6  7  2  0
  6  8  1  0
  6 11  1  0
  7  9  1  0
  9 10  2  0
 11 12  1  0
 12 13  1  0
 14 15  2  3
 15 16  1  0
 16 18  1  0
 16 17  2  0
 17 19  1  0
 18 20  2  0
 19 21  2  0
 20 21  1  0
 22 23  1  0
 23 24  1  0
 25 24  1  1
 25 26  1  0
 25 30  1  0
 26 27  1  0
 27 28  1  0
 27 29  2  0
 30 31  2  3
 31 32  1  0
 32 33  2  3
 33 34  1  0
 34 35  2  0
M  END
>  <vina_dock>  (104) 
-7.916

$$$$
O14757_PocketFlow_idx-in-all-generaetd-18
     RDKit          3D

 35 38  0  0  0  0  0  0  0  0999 V2000
    4.2650   -2.4880   44.2220 C   0  0  0  0  0  0  0  0  0  0  0  0
    5.2690   -1.5780   43.8830 C   0  0  0  0  0  0  0  0  0  0  0  0
    6.4580   -1.5240   44.6120 C   0  0  0  0  0  0  0  0  0  0  0  0
    4.4940   -3.3540   45.3070 C   0  0  0  0  0  0  0  0  0  0  0  0
    5.6960   -3.3340   46.0600 C   0  0  0  0  0  0  0  0  0  0  0  0
    5.9680   -4.2110   47.1440 C   0  0  0  0  0  0  0  0  0  0  0  0
    6.6810   -2.3830   45.6980 C   0  0  0  0  0  0  0  0  0  0  0  0
    7.1430   -4.0520   47.8940 C   0  0  0  0  0  0  0  0  0  0  0  0
    8.1040   -3.1030   47.5430 C   0  0  0  0  0  0  0  0  0  0  0  0
    7.8740   -2.2910   46.4310 C   0  0  0  0  0  0  0  0  0  0  0  0
    3.0040   -2.5420   43.4660 C   0  0  0  0  0  0  0  0  0  0  0  0
    0.7700   -3.4840   43.1170 C   0  0  0  0  0  0  0  0  0  0  0  0
    1.9770   -3.4260   43.8320 C   0  0  0  0  0  0  0  0  0  0  0  0
    0.5690   -2.6540   42.0150 C   0  0  0  0  0  0  0  0  0  0  0  0
    1.5910   -1.7730   41.6510 C   0  0  0  0  0  0  0  0  0  0  0  0
    2.7900   -1.7120   42.3580 C   0  0  0  0  0  0  0  0  0  0  0  0
    1.4330   -0.9630   40.5930 F   0  0  0  0  0  0  0  0  0  0  0  0
   -0.5560   -2.6160   41.2380 O   0  0  0  0  0  0  0  0  0  0  0  0
   -1.4080   -1.4880   41.3760 C   0  0  0  0  0  0  0  0  0  0  0  0
   -2.7820   -1.7650   40.7970 C   0  0  0  0  0  0  0  0  0  0  0  0
   -3.6550   -0.9320   40.6100 O   0  0  0  0  0  0  0  0  0  0  0  0
   -2.9730   -3.0450   40.4180 O   0  0  0  0  0  0  0  0  0  0  0  0
    5.0100   -5.1220   47.6520 N   0  0  0  0  0  0  0  0  0  0  0  0
    9.3420   -3.0170   48.3270 C   0  0  0  0  0  0  0  0  0  0  0  0
   10.2960   -3.9570   48.4380 C   0  0  0  0  0  0  0  0  0  0  0  0
   10.3160   -5.2720   47.7700 C   0  0  0  0  0  0  0  0  0  0  0  0
   10.7890   -5.3390   46.4480 C   0  0  0  0  0  0  0  0  0  0  0  0
    9.9030   -6.4490   48.4430 C   0  0  0  0  0  0  0  0  0  0  0  0
   10.8650   -6.5600   45.7840 C   0  0  0  0  0  0  0  0  0  0  0  0
   10.0110   -7.6680   47.7550 C   0  0  0  0  0  0  0  0  0  0  0  0
   10.4790   -7.7240   46.4390 C   0  0  0  0  0  0  0  0  0  0  0  0
    9.4460   -6.3750   49.7780 N   0  0  0  0  0  0  0  0  0  0  0  0
    8.2450   -6.7550   50.3110 C   0  0  0  0  0  0  0  0  0  0  0  0
    7.2010   -7.2330   49.6220 C   0  0  0  0  0  0  0  0  0  0  0  0
    5.9010   -7.6230   50.2440 C   0  0  0  0  0  0  0  0  0  0  0  0
  1 11  1  0
  1  2  2  0
  1  4  1  0
  2  3  1  0
  3  7  2  0
  4  5  2  0
  5  7  1  0
  5  6  1  0
  6 23  1  0
  6  8  2  0
  7 10  1  0
  8  9  1  0
  9 10  2  0
  9 24  1  0
 11 16  1  0
 11 13  2  0
 12 14  2  0
 12 13  1  0
 14 18  1  0
 14 15  1  0
 15 17  1  0
 15 16  2  0
 18 19  1  0
 19 20  1  0
 20 22  1  0
 20 21  2  0
 24 25  2  3
 25 26  1  0
 26 27  2  0
 26 28  1  0
 27 29  1  0
 28 30  2  0
 28 32  1  0
 29 31  2  0
 30 31  1  0
 32 33  1  0
 33 34  2  3
 34 35  1  0
M  END
>  <vina_dock>  (105) 
-8.501

$$$$
O14757_PocketFlow_idx-in-all-generaetd-581
     RDKit          3D

 21 22  0  0  0  0  0  0  0  0999 V2000
    1.2700   -3.6470   43.3220 C   0  0  0  0  0  0  0  0  0  0  0  0
    0.3630   -3.1790   42.3630 C   0  0  0  0  0  0  0  0  0  0  0  0
    0.7000   -2.1130   41.5240 C   0  0  0  0  0  0  0  0  0  0  0  0
    1.9450   -1.4970   41.6430 C   0  0  0  0  0  0  0  0  0  0  0  0
    2.8560   -1.9420   42.6040 C   0  0  0  0  0  0  0  0  0  0  0  0
    2.5130   -3.0100   43.4440 C   0  0  0  0  0  0  0  0  0  0  0  0
    0.9420   -4.7420   44.2470 C   0  0  0  0  0  0  0  0  0  0  0  0
    0.3090   -5.8680   43.8800 C   0  0  0  0  0  0  0  0  0  0  0  0
   -0.0090   -6.9610   44.8080 C   0  0  0  0  0  0  0  0  0  0  0  0
    0.9640   -7.5810   45.5940 C   0  0  0  0  0  0  0  0  0  0  0  0
   -1.3190   -7.4390   44.8700 C   0  0  0  0  0  0  0  0  0  0  0  0
    0.5830   -8.6290   46.4170 C   0  0  0  0  0  0  0  0  0  0  0  0
   -1.6020   -8.4920   45.7280 C   0  0  0  0  0  0  0  0  0  0  0  0
   -0.6800   -9.0970   46.5040 N   0  0  0  0  0  0  0  0  0  0  0  0
    4.1560   -1.2840   42.7440 C   0  0  0  0  0  0  0  0  0  0  0  0
    4.9590   -1.3640   43.8180 C   0  0  0  0  0  0  0  0  0  0  0  0
    4.6850   -2.1030   45.0340 C   0  0  0  0  0  0  0  0  0  0  0  0
    5.5570   -2.9710   45.5710 C   0  0  0  0  0  0  0  0  0  0  0  0
    5.2780   -3.7010   46.7870 C   0  0  0  0  0  0  0  0  0  0  0  0
    4.6060   -4.8580   46.8910 C   0  0  0  0  0  0  0  0  0  0  0  0
    3.9820   -5.6760   45.8070 C   0  0  0  0  0  0  0  0  0  0  0  0
  1  2  2  0
  1  6  1  0
  1  7  1  0
  2  3  1  0
  3  4  2  0
  4  5  1  0
  5 15  1  0
  5  6  2  0
  7  8  2  3
  8  9  1  0
  9 11  1  0
  9 10  2  0
 10 12  1  0
 11 13  2  0
 12 14  2  0
 13 14  1  0
 15 16  2  3
 16 17  1  0
 17 18  2  3
 18 19  1  0
 19 20  2  3
 20 21  1  0
M  END
>  <vina_dock>  (106) 
-8.463

$$$$
O14757_PocketFlow_idx-in-all-generaetd-726
     RDKit          3D

 35 38  0  0  0  0  0  0  0  0999 V2000
    2.6460   -4.4080   44.5140 C   0  0  0  0  0  0  0  0  0  0  0  0
    1.8650   -4.8200   45.5250 C   0  0  0  0  0  0  0  0  0  0  0  0
    3.8350   -3.5500   44.6990 C   0  0  0  0  0  0  0  0  0  0  0  0
    3.3500   -0.7280   42.4340 C   0  0  0  0  0  0  0  0  0  0  0  0
    4.4860    0.0360   42.6480 C   0  0  0  0  0  0  0  0  0  0  0  0
    3.1270   -1.8910   43.0920 N   0  0  0  0  0  0  0  0  0  0  0  0
    5.4250   -0.4220   43.5630 C   0  0  0  0  0  0  0  0  0  0  0  0
    4.0300   -2.3490   43.9920 C   0  0  0  0  0  0  0  0  0  0  0  0
    5.2140   -1.6260   44.2470 C   0  0  0  0  0  0  0  0  0  0  0  0
    6.1690   -2.1010   45.1640 C   0  0  0  0  0  0  0  0  0  0  0  0
    4.8080   -4.0200   45.6030 C   0  0  0  0  0  0  0  0  0  0  0  0
    5.9850   -3.3060   45.8510 C   0  0  0  0  0  0  0  0  0  0  0  0
    2.2870   -0.2800   41.4580 C   0  0  0  0  0  0  0  0  0  0  0  0
    1.1020   -1.2180   41.3710 C   0  0  0  0  0  0  0  0  0  0  0  0
   -1.2870   -1.5980   41.1660 C   0  0  0  0  0  0  0  0  0  0  0  0
   -1.0830   -2.9800   41.2010 C   0  0  0  0  0  0  0  0  0  0  0  0
   -0.2020   -0.7170   41.2500 C   0  0  0  0  0  0  0  0  0  0  0  0
    0.2110   -3.4840   41.3200 C   0  0  0  0  0  0  0  0  0  0  0  0
    1.2960   -2.6080   41.4020 C   0  0  0  0  0  0  0  0  0  0  0  0
   -2.6540   -1.0590   41.0440 C   0  0  0  0  0  0  0  0  0  0  0  0
   -3.0410   -0.0250   41.5620 O   0  0  0  0  0  0  0  0  0  0  0  0
   -3.5370   -1.7510   40.3090 F   0  0  0  0  0  0  0  0  0  0  0  0
    6.9930   -3.8040   46.8000 C   0  0  0  0  0  0  0  0  0  0  0  0
    6.6220   -4.2770   48.0680 C   0  0  0  0  0  0  0  0  0  0  0  0
    8.3570   -3.8270   46.4600 C   0  0  0  0  0  0  0  0  0  0  0  0
    7.5790   -4.7590   48.9650 C   0  0  0  0  0  0  0  0  0  0  0  0
    9.3290   -4.2970   47.3570 C   0  0  0  0  0  0  0  0  0  0  0  0
    8.9260   -4.7730   48.6080 C   0  0  0  0  0  0  0  0  0  0  0  0
   10.7720   -4.3460   46.9500 C   0  0  0  0  0  0  0  0  0  0  0  0
    0.7130   -5.6700   45.3300 C   0  0  0  0  0  0  0  0  0  0  0  0
    0.3820   -6.1800   44.1330 C   0  0  0  0  0  0  0  0  0  0  0  0
   -0.7840   -7.0880   43.8520 C   0  0  0  0  0  0  0  0  0  0  0  0
   -1.5360   -7.6140   45.0610 C   0  0  0  0  0  0  0  0  0  0  0  0
   -1.2630   -8.5750   45.7610 O   0  0  0  0  0  0  0  0  0  0  0  0
   -2.5950   -6.8340   45.3710 O   0  0  0  0  0  0  0  0  0  0  0  0
  1  3  1  0
  1  2  2  3
  2 30  1  0
  3  8  2  0
  3 11  1  0
  4 13  1  0
  4  5  1  0
  4  6  2  0
  5  7  2  0
  6  8  1  0
  7  9  1  0
  8  9  1  0
  9 10  2  0
 10 12  1  0
 11 12  2  0
 12 23  1  0
 13 14  1  0
 14 17  2  0
 14 19  1  0
 15 20  1  0
 15 16  2  0
 15 17  1  0
 16 18  1  0
 18 19  2  0
 20 22  1  0
 20 21  2  0
 23 25  1  0
 23 24  2  0
 24 26  1  0
 25 27  2  0
 26 28  2  0
 27 29  1  0
 27 28  1  0
 30 31  2  3
 31 32  1  0
 32 33  1  0
 33 35  1  0
 33 34  2  0
M  END
>  <vina_dock>  (107) 
-10.45

$$$$
O14757_PocketFlow_idx-in-all-generaetd-600
     RDKit          3D

 16 17  0  0  0  0  0  0  0  0999 V2000
    0.3560   -6.0330   44.0260 C   0  0  0  0  0  0  0  0  0  0  0  0
   -0.5980   -6.8360   44.8840 C   0  0  0  0  0  0  0  0  0  0  0  0
   -2.3970   -8.4710   45.0440 C   0  0  0  0  0  0  0  0  0  0  0  0
   -2.3560   -8.3930   46.4340 C   0  0  0  0  0  0  0  0  0  0  0  0
   -1.5220   -7.7020   44.2740 C   0  0  0  0  0  0  0  0  0  0  0  0
   -1.4380   -7.5490   47.0590 C   0  0  0  0  0  0  0  0  0  0  0  0
   -0.5660   -6.7830   46.2840 C   0  0  0  0  0  0  0  0  0  0  0  0
    0.3410   -5.9590   46.8940 O   0  0  0  0  0  0  0  0  0  0  0  0
    0.3580   -4.6080   44.3590 N   0  0  0  0  0  0  0  0  0  0  0  0
    1.2870   -3.7260   43.7820 C   0  0  0  0  0  0  0  0  0  0  0  0
    2.6010   -3.5390   44.2130 C   0  0  0  0  0  0  0  0  0  0  0  0
    0.8450   -2.9260   42.7110 C   0  0  0  0  0  0  0  0  0  0  0  0
    3.4520   -2.6390   43.5560 C   0  0  0  0  0  0  0  0  0  0  0  0
    1.6770   -2.0340   42.0440 C   0  0  0  0  0  0  0  0  0  0  0  0
    2.9930   -1.8940   42.4680 C   0  0  0  0  0  0  0  0  0  0  0  0
   -0.4720   -2.9930   42.3310 O   0  0  0  0  0  0  0  0  0  0  0  0
  1  9  1  0
  1  2  1  0
  2  5  1  0
  2  7  2  0
  3  5  2  0
  3  4  1  0
  4  6  2  0
  6  7  1  0
  7  8  1  0
  9 10  1  0
 10 12  1  0
 10 11  2  0
 11 13  1  0
 12 14  2  0
 12 16  1  0
 13 15  2  0
 14 15  1  0
M  END
>  <vina_dock>  (108) 
-7.265

$$$$
O14757_PocketFlow_idx-in-all-generaetd-445
     RDKit          3D

 34 38  0  0  0  0  0  0  0  0999 V2000
    2.0250   -4.8250   45.0170 C   0  0  0  0  0  0  0  0  0  0  0  0
    3.0550   -5.0150   45.9460 C   0  0  0  0  0  0  0  0  0  0  0  0
    4.2220   -4.2390   45.8970 C   0  0  0  0  0  0  0  0  0  0  0  0
    4.3810   -3.2330   44.9320 C   0  0  0  0  0  0  0  0  0  0  0  0
    3.3270   -2.9870   44.0300 C   0  0  0  0  0  0  0  0  0  0  0  0
    2.1940   -3.8180   44.0550 C   0  0  0  0  0  0  0  0  0  0  0  0
    5.6570   -2.4320   44.8500 C   0  0  0  0  0  0  0  0  0  0  0  0
    6.7170   -2.7470   45.8710 C   0  0  0  0  0  0  0  0  0  0  0  0
    7.9230   -2.0220   45.8540 C   0  0  0  0  0  0  0  0  0  0  0  0
    8.9410   -2.2810   46.7850 C   0  0  0  0  0  0  0  0  0  0  0  0
    8.7490   -3.2790   47.7470 C   0  0  0  0  0  0  0  0  0  0  0  0
    7.5550   -4.0050   47.7720 C   0  0  0  0  0  0  0  0  0  0  0  0
    6.5440   -3.7390   46.8370 C   0  0  0  0  0  0  0  0  0  0  0  0
    5.2910   -4.5210   46.8840 C   0  0  0  0  0  0  0  0  0  0  0  0
    5.1430   -5.3940   47.7340 O   0  0  0  0  0  0  0  0  0  0  0  0
    0.8130   -5.6610   45.0410 C   0  0  0  0  0  0  0  0  0  0  0  0
   -1.5140   -7.2680   45.0870 C   0  0  0  0  0  0  0  0  0  0  0  0
   -0.7790   -7.1280   43.9060 C   0  0  0  0  0  0  0  0  0  0  0  0
   -1.0900   -6.6070   46.2440 C   0  0  0  0  0  0  0  0  0  0  0  0
    0.3730   -6.3320   43.8870 C   0  0  0  0  0  0  0  0  0  0  0  0
    0.0600   -5.8120   46.2190 C   0  0  0  0  0  0  0  0  0  0  0  0
   -2.7390   -8.1010   45.1590 C   0  0  0  0  0  0  0  0  0  0  0  0
   -3.2460   -8.7070   44.2340 O   0  0  0  0  0  0  0  0  0  0  0  0
   -3.2740   -8.1360   46.3920 O   0  0  0  0  0  0  0  0  0  0  0  0
    3.4640   -2.0810   42.9660 N   0  0  0  0  0  0  0  0  0  0  0  0
   10.1880   -1.4680   46.7020 C   0  0  0  0  0  0  0  0  0  0  0  0
   10.2520   -0.4210   46.0750 O   0  0  0  0  0  0  0  0  0  0  0  0
   11.1930   -2.0820   47.4220 O   0  0  0  0  0  0  0  0  0  0  0  0
   11.7790   -1.2440   48.3740 C   0  0  0  0  0  0  0  0  0  0  0  0
   12.9720   -0.5980   48.0580 C   0  0  0  0  0  0  0  0  0  0  0  0
   11.1230   -1.0090   49.5800 C   0  0  0  0  0  0  0  0  0  0  0  0
   13.5340    0.2800   48.9840 C   0  0  0  0  0  0  0  0  0  0  0  0
   11.6910   -0.1310   50.5020 C   0  0  0  0  0  0  0  0  0  0  0  0
   12.8950    0.5120   50.2050 C   0  0  0  0  0  0  0  0  0  0  0  0
  1  6  1  0
  1 16  1  0
  1  2  2  0
  2  3  1  0
  3  4  2  0
  3 14  1  0
  4  5  1  0
  4  7  1  0
  5 25  1  0
  5  6  2  0
  7  8  1  0
  8  9  2  0
  8 13  1  0
  9 10  1  0
 10 26  1  0
 10 11  2  0
 11 12  1  0
 12 13  2  0
 13 14  1  0
 14 15  2  0
 16 20  2  0
 16 21  1  0
 17 18  2  0
 17 22  1  0
 17 19  1  0
 18 20  1  0
 19 21  2  0
 22 23  2  0
 22 24  1  0
 26 27  2  0
 26 28  1  0
 28 29  1  0
 29 30  2  0
 29 31  1  0
 30 32  1  0
 31 33  2  0
 32 34  2  0
 33 34  1  0
M  END
>  <vina_dock>  (109) 
-9.031

$$$$
O14757_PocketFlow_idx-in-all-generaetd-310
     RDKit          3D

 16 18  0  0  0  0  0  0  0  0999 V2000
    1.5360   -5.4370   44.9110 C   0  0  0  0  0  0  0  0  0  0  0  0
    0.6730   -4.8560   43.7990 C   0  0  0  0  0  0  0  0  0  0  0  0
    2.6340   -4.8040   45.3770 C   0  0  0  0  0  0  0  0  0  0  0  0
    3.0670   -3.4550   44.8610 C   0  0  1  0  0  0  0  0  0  0  0  0
    4.5500   -3.1930   44.9430 C   0  0  0  0  0  0  0  0  0  0  0  0
    5.0920   -2.2620   44.1430 C   0  0  0  0  0  0  0  0  0  0  0  0
    4.2970   -1.5130   43.1920 C   0  0  0  0  0  0  0  0  0  0  0  0
    3.0790   -1.9530   42.8220 C   0  0  0  0  0  0  0  0  0  0  0  0
    2.5690   -3.2590   43.4040 C   0  0  2  0  0  0  0  0  0  0  0  0
    1.0440   -3.4120   43.3940 C   0  0  1  0  0  0  0  0  0  0  0  0
    6.3980   -1.9510   44.2550 F   0  0  0  0  0  0  0  0  0  0  0  0
    2.2390   -1.2720   41.8620 C   0  0  0  0  0  0  0  0  0  0  0  0
    1.0470   -1.7590   41.4840 C   0  0  0  0  0  0  0  0  0  0  0  0
    0.4490   -3.0260   42.0330 C   0  0  0  0  0  0  0  0  0  0  0  0
    1.1160   -6.7840   45.4380 C   0  0  0  0  0  0  0  0  0  0  0  0
   -0.3870   -7.3160   44.6570 Cl  0  0  0  0  0  0  0  0  0  0  0  0
  1  2  1  0
  1  3  2  0
  1 15  1  0
 10  2  1  6
  4  3  1  6
  4  9  1  0
  4  5  1  0
  5  6  2  0
  6  7  1  0
  6 11  1  0
  7  8  2  0
  8 12  1  0
  9  8  1  1
  9 10  1  0
 10 14  1  0
 12 13  2  0
 13 14  1  0
 15 16  1  0
M  END
>  <vina_dock>  (110) 
-8.388

$$$$
O14757_PocketFlow_idx-in-all-generaetd-285
     RDKit          3D

  6  6  0  0  0  0  0  0  0  0999 V2000
    4.0180   -1.0290   42.7430 C   0  0  0  0  0  0  0  0  0  0  0  0
    3.4180   -2.2290   43.1260 C   0  0  0  0  0  0  0  0  0  0  0  0
    4.0300   -3.0400   44.0820 C   0  0  0  0  0  0  0  0  0  0  0  0
    5.2410   -2.6520   44.6540 C   0  0  0  0  0  0  0  0  0  0  0  0
    5.2290   -0.6410   43.3140 C   0  0  0  0  0  0  0  0  0  0  0  0
    5.8410   -1.4510   44.2700 C   0  0  0  0  0  0  0  0  0  0  0  0
  1  2  2  0
  1  5  1  0
  2  3  1  0
  3  4  2  0
  4  6  1  0
  5  6  2  0
M  END
>  <vina_dock>  (111) 
-3.969

$$$$
O14757_PocketFlow_idx-in-all-generaetd-618
     RDKit          3D

 35 36  0  0  0  0  0  0  0  0999 V2000
    5.2370   -7.7140   48.0730 C   0  0  0  0  0  0  0  0  0  0  0  0
    5.9260   -6.4690   48.6520 C   0  0  0  0  0  0  0  0  0  0  0  0
    7.2990   -6.7050   49.2950 C   0  0  0  0  0  0  0  0  0  0  0  0
    8.0210   -5.4300   49.6300 C   0  0  0  0  0  0  0  0  0  0  0  0
    8.8400   -4.7190   48.8400 C   0  0  0  0  0  0  0  0  0  0  0  0
    9.2530   -5.0310   47.4290 C   0  0  0  0  0  0  0  0  0  0  0  0
    8.6090   -4.0470   46.4520 C   0  0  0  0  0  0  0  0  0  0  0  0
    7.3920   -3.3570   47.0720 C   0  0  0  0  0  0  0  0  0  0  0  0
    6.3260   -3.1020   46.0380 C   0  0  0  0  0  0  0  0  0  0  0  0
    2.0570   -2.9460   43.2810 C   0  0  0  0  0  0  0  0  0  0  0  0
    3.2860   -2.2770   43.2080 C   0  0  0  0  0  0  0  0  0  0  0  0
    1.8350   -3.8760   44.3000 C   0  0  0  0  0  0  0  0  0  0  0  0
    4.3030   -2.5470   44.1400 C   0  0  0  0  0  0  0  0  0  0  0  0
    2.8390   -4.1560   45.2290 C   0  0  0  0  0  0  0  0  0  0  0  0
    4.0780   -3.5020   45.1620 C   0  0  0  0  0  0  0  0  0  0  0  0
    5.5360   -1.8810   44.0870 C   0  0  0  0  0  0  0  0  0  0  0  0
    5.0940   -3.7680   46.0990 C   0  0  0  0  0  0  0  0  0  0  0  0
    6.5250   -2.1600   45.0280 C   0  0  0  0  0  0  0  0  0  0  0  0
    7.6860   -1.4920   44.9550 F   0  0  0  0  0  0  0  0  0  0  0  0
    0.9560   -2.6820   42.3170 C   0  0  0  0  0  0  0  0  0  0  0  0
    1.0440   -1.8080   41.4640 O   0  0  0  0  0  0  0  0  0  0  0  0
   -0.1860   -3.4250   42.4420 N   0  0  0  0  0  0  0  0  0  0  0  0
    4.6730   -8.6420   49.1500 C   0  0  0  0  0  0  0  0  0  0  0  0
    3.7780   -9.7870   48.7570 C   0  0  0  0  0  0  0  0  0  0  0  0
    2.5080  -10.1190   49.0380 C   0  0  0  0  0  0  0  0  0  0  0  0
    1.4610   -9.4110   49.8490 C   0  0  0  0  0  0  0  0  0  0  0  0
    0.2140   -9.0470   49.0350 C   0  0  0  0  0  0  0  0  0  0  0  0
    0.1840   -9.5700   47.5880 C   0  0  0  0  0  0  0  0  0  0  0  0
   -0.3330   -8.5680   46.5590 C   0  0  0  0  0  0  0  0  0  0  0  0
    0.4920   -7.8720   45.7320 C   0  0  0  0  0  0  0  0  0  0  0  0
    2.0010   -7.9910   45.7420 C   0  0  0  0  0  0  0  0  0  0  0  0
    0.0240   -6.8770   44.6950 C   0  0  0  0  0  0  0  0  0  0  0  0
   -1.8510   -8.4240   46.5550 C   0  0  0  0  0  0  0  0  0  0  0  0
   -2.5740   -9.4290   45.6490 C   0  0  0  0  0  0  0  0  0  0  0  0
   -3.5460   -8.7850   44.6700 C   0  0  0  0  0  0  0  0  0  0  0  0
  1  2  1  0
  1 23  1  0
  2  3  1  0
  3  4  1  0
  4  5  2  3
  5  6  1  0
  6  7  1  0
  7  8  1  0
  8  9  1  0
  9 18  2  0
  9 17  1  0
 10 20  1  0
 10 11  2  0
 10 12  1  0
 11 13  1  0
 12 14  2  0
 13 16  2  0
 13 15  1  0
 14 15  1  0
 15 17  2  0
 16 18  1  0
 18 19  1  0
 20 21  2  0
 20 22  1  0
 23 24  1  0
 24 25  2  3
 25 26  1  0
 26 27  1  0
 27 28  1  0
 28 29  1  0
 29 30  2  3
 29 33  1  0
 30 32  1  0
 30 31  1  0
 33 34  1  0
 34 35  1  0
M  END
>  <vina_dock>  (112) 
-7.535

$$$$
O14757_PocketFlow_idx-in-all-generaetd-654
     RDKit          3D

 35 38  0  0  0  0  0  0  0  0999 V2000
    3.2480   -2.1360   42.1040 C   0  0  0  0  0  0  0  0  0  0  0  0
    4.3490   -1.8710   43.1030 C   0  0  0  0  0  0  0  0  0  0  0  0
    5.8350   -2.6560   44.8820 C   0  0  0  0  0  0  0  0  0  0  0  0
    6.3610   -1.3610   44.9940 C   0  0  0  0  0  0  0  0  0  0  0  0
    4.8260   -2.8980   43.9330 C   0  0  0  0  0  0  0  0  0  0  0  0
    5.8940   -0.3340   44.1730 C   0  0  0  0  0  0  0  0  0  0  0  0
    4.8970   -0.5940   43.2390 C   0  0  0  0  0  0  0  0  0  0  0  0
    4.4650    0.4090   42.4630 F   0  0  0  0  0  0  0  0  0  0  0  0
    6.3550   -3.7650   45.7910 C   0  0  1  0  0  0  0  0  0  0  0  0
    7.7940   -3.4150   46.2060 C   0  0  0  0  0  0  0  0  0  0  0  0
    5.4500   -4.0200   47.0200 C   0  0  1  0  0  0  0  0  0  0  0  0
    4.9610   -5.4410   47.2160 C   0  0  0  0  0  0  0  0  0  0  0  0
    5.5160   -5.9400   48.3280 C   0  0  0  0  0  0  0  0  0  0  0  0
    6.2660   -3.9800   48.2970 C   0  0  0  0  0  0  0  0  0  0  0  0
    6.3220   -5.0680   48.9990 N   0  0  0  0  0  0  0  0  0  0  0  0
    4.0460   -6.0360   46.3860 N   0  0  0  0  0  0  0  0  0  0  0  0
    2.0320   -2.8030   42.7210 C   0  0  0  0  0  0  0  0  0  0  0  0
    2.1480   -3.7030   43.7190 C   0  0  0  0  0  0  0  0  0  0  0  0
    0.7330   -2.4150   42.1400 C   0  0  0  0  0  0  0  0  0  0  0  0
    0.3510   -1.0690   42.0970 C   0  0  0  0  0  0  0  0  0  0  0  0
   -0.1330   -3.3920   41.6320 C   0  0  0  0  0  0  0  0  0  0  0  0
   -0.8850   -0.7020   41.5540 C   0  0  0  0  0  0  0  0  0  0  0  0
   -1.3690   -3.0280   41.0930 C   0  0  0  0  0  0  0  0  0  0  0  0
   -1.7500   -1.6810   41.0520 C   0  0  0  0  0  0  0  0  0  0  0  0
   -3.0730   -1.3440   40.4750 C   0  0  0  0  0  0  0  0  0  0  0  0
   -3.7390   -0.3630   40.7450 O   0  0  0  0  0  0  0  0  0  0  0  0
   -3.5030   -2.2550   39.5840 O   0  0  0  0  0  0  0  0  0  0  0  0
    1.0690   -4.4200   44.3710 C   0  0  0  0  0  0  0  0  0  0  0  0
    0.9800   -5.7590   44.3570 C   0  0  0  0  0  0  0  0  0  0  0  0
   -0.0890   -6.5360   45.0040 C   0  0  0  0  0  0  0  0  0  0  0  0
   -1.0040   -7.2250   44.1960 C   0  0  0  0  0  0  0  0  0  0  0  0
   -0.1940   -6.6670   46.3960 C   0  0  0  0  0  0  0  0  0  0  0  0
   -2.0120   -8.0100   44.7640 C   0  0  0  0  0  0  0  0  0  0  0  0
   -1.2030   -7.4500   46.9640 C   0  0  0  0  0  0  0  0  0  0  0  0
   -2.1110   -8.1200   46.1480 C   0  0  0  0  0  0  0  0  0  0  0  0
  1 17  1  0
  1  2  1  0
  2  7  1  0
  2  5  2  0
  3  5  1  0
  3  4  2  0
  3  9  1  0
  4  6  1  0
  6  7  2  0
  7  8  1  0
  9 10  1  1
  9 11  1  0
 11 12  1  0
 11 14  1  1
 12 16  1  0
 12 13  2  0
 13 15  1  0
 14 15  2  0
 17 19  1  0
 17 18  2  3
 18 28  1  0
 19 21  1  0
 19 20  2  0
 20 22  1  0
 21 23  2  0
 22 24  2  0
 23 24  1  0
 24 25  1  0
 25 27  1  0
 25 26  2  0
 28 29  2  3
 29 30  1  0
 30 31  2  0
 30 32  1  0
 31 33  1  0
 32 34  2  0
 33 35  2  0
 34 35  1  0
M  END
>  <vina_dock>  (113) 
-9.688

$$$$
O14757_PocketFlow_idx-in-all-generaetd-370
     RDKit          3D

  5  4  0  0  0  0  0  0  0  0999 V2000
    0.5630   -2.9710   41.6500 C   0  0  0  0  0  0  0  0  0  0  0  0
    0.7760   -3.3600   43.1130 C   0  0  0  0  0  0  0  0  0  0  0  0
    2.4940   -3.2750   43.5810 Cl  0  0  0  0  0  0  0  0  0  0  0  0
    1.4550   -1.8480   41.1930 C   0  0  0  0  0  0  0  0  0  0  0  0
    1.2270   -0.5550   41.4550 C   0  0  0  0  0  0  0  0  0  0  0  0
  1  4  1  0
  1  2  1  0
  2  3  1  0
  4  5  2  0
M  END
>  <vina_dock>  (114) 
-3.094

$$$$
O14757_PocketFlow_idx-in-all-generaetd-784
     RDKit          3D

 35 38  0  0  0  0  0  0  0  0999 V2000
    5.5490   -1.4410   44.1280 C   0  0  0  0  0  0  0  0  0  0  0  0
    4.6020   -2.3770   43.9900 C   0  0  0  0  0  0  0  0  0  0  0  0
    5.2300   -0.2070   43.6750 F   0  0  0  0  0  0  0  0  0  0  0  0
    6.7950   -1.6020   44.6570 N   0  0  0  0  0  0  0  0  0  0  0  0
    7.1400   -1.4920   46.0600 C   0  0  0  0  0  0  0  0  0  0  0  0
    8.0230   -2.6370   46.5360 C   0  0  0  0  0  0  0  0  0  0  0  0
    6.4910   -5.9850   48.6830 C   0  0  0  0  0  0  0  0  0  0  0  0
    5.6130   -4.9960   48.2550 C   0  0  0  0  0  0  0  0  0  0  0  0
    7.8520   -5.8900   48.3860 C   0  0  0  0  0  0  0  0  0  0  0  0
    6.1030   -3.8890   47.5580 C   0  0  0  0  0  0  0  0  0  0  0  0
    8.3540   -4.7800   47.6910 C   0  0  0  0  0  0  0  0  0  0  0  0
    7.4780   -3.7470   47.2510 C   0  0  0  0  0  0  0  0  0  0  0  0
    9.7290   -4.6930   47.4400 C   0  0  0  0  0  0  0  0  0  0  0  0
   10.2540   -3.5910   46.7750 C   0  0  0  0  0  0  0  0  0  0  0  0
    9.4170   -2.5710   46.3360 C   0  0  0  0  0  0  0  0  0  0  0  0
   11.9500   -3.4860   46.5050 Cl  0  0  0  0  0  0  0  0  0  0  0  0
    5.9520   -7.1640   49.3960 C   0  0  0  0  0  0  0  0  0  0  0  0
    5.0550   -8.0010   48.7340 N   0  0  0  0  0  0  0  0  0  0  0  0
    6.3190   -7.3360   50.5550 O   0  0  0  0  0  0  0  0  0  0  0  0
    4.8600   -8.0410   47.2930 C   0  0  0  0  0  0  0  0  0  0  0  0
    4.4140   -9.0610   49.4920 C   0  0  0  0  0  0  0  0  0  0  0  0
    4.6870   -3.8200   44.3920 C   0  0  0  0  0  0  0  0  0  0  0  0
    3.3440   -4.5120   44.3720 C   0  0  0  0  0  0  0  0  0  0  0  0
    2.1850   -3.8050   44.0270 C   0  0  0  0  0  0  0  0  0  0  0  0
    3.2420   -5.8800   44.6690 C   0  0  0  0  0  0  0  0  0  0  0  0
    0.9480   -4.4500   43.9880 C   0  0  0  0  0  0  0  0  0  0  0  0
    2.0040   -6.5250   44.6330 C   0  0  0  0  0  0  0  0  0  0  0  0
    0.8560   -5.8020   44.3080 C   0  0  0  0  0  0  0  0  0  0  0  0
   -0.3860   -6.3840   44.2090 O   0  0  0  0  0  0  0  0  0  0  0  0
   -0.8440   -7.1060   45.2870 C   0  0  0  0  0  0  0  0  0  0  0  0
   -1.6530   -8.2060   45.0090 C   0  0  0  0  0  0  0  0  0  0  0  0
   -0.6000   -6.7360   46.6110 C   0  0  0  0  0  0  0  0  0  0  0  0
   -2.1880   -8.9600   46.0520 C   0  0  0  0  0  0  0  0  0  0  0  0
   -1.1360   -7.4930   47.6530 C   0  0  0  0  0  0  0  0  0  0  0  0
   -1.9300   -8.6040   47.3730 C   0  0  0  0  0  0  0  0  0  0  0  0
  1  3  1  0
  1  2  2  3
  1  4  1  0
  2 22  1  0
  4  5  1  0
  5  6  1  0
  6 15  2  0
  6 12  1  0
  7  8  2  0
  7  9  1  0
  7 17  1  0
  8 10  1  0
  9 11  2  0
 10 12  2  0
 11 12  1  0
 11 13  1  0
 13 14  2  0
 14 15  1  0
 14 16  1  0
 17 18  1  0
 17 19  2  0
 18 20  1  0
 18 21  1  0
 22 23  1  0
 23 24  2  0
 23 25  1  0
 24 26  1  0
 25 27  2  0
 26 28  2  0
 27 28  1  0
 28 29  1  0
 29 30  1  0
 30 31  2  0
 30 32  1  0
 31 33  1  0
 32 34  2  0
 33 35  2  0
 34 35  1  0
M  END
>  <vina_dock>  (115) 
-8.723

$$$$
O14757_PocketFlow_idx-in-all-generaetd-856
     RDKit          3D

 31 34  0  0  0  0  0  0  0  0999 V2000
    3.6210   -1.2650   42.7210 C   0  0  0  0  0  0  0  0  0  0  0  0
    4.7690   -0.4870   42.7770 C   0  0  0  0  0  0  0  0  0  0  0  0
    5.7980   -0.8290   43.6580 C   0  0  0  0  0  0  0  0  0  0  0  0
    5.7260   -1.9590   44.5100 C   0  0  0  0  0  0  0  0  0  0  0  0
    4.5410   -2.7530   44.4590 C   0  0  0  0  0  0  0  0  0  0  0  0
    3.5140   -2.3810   43.5560 C   0  0  0  0  0  0  0  0  0  0  0  0
    6.7770   -2.3160   45.4070 C   0  0  0  0  0  0  0  0  0  0  0  0
    6.5980   -3.4180   46.2630 C   0  0  0  0  0  0  0  0  0  0  0  0
    5.4430   -4.1890   46.2110 C   0  0  0  0  0  0  0  0  0  0  0  0
    4.4120   -3.8830   45.3140 C   0  0  0  0  0  0  0  0  0  0  0  0
    2.5000   -0.9550   41.8020 C   0  0  0  0  0  0  0  0  0  0  0  0
    1.8710   -1.7620   41.1440 O   0  0  0  0  0  0  0  0  0  0  0  0
    2.2160    0.3590   41.7510 O   0  0  0  0  0  0  0  0  0  0  0  0
    3.2250   -4.7560   45.3140 C   0  0  0  0  0  0  0  0  0  0  0  0
    1.9970   -4.2960   45.8120 C   0  0  0  0  0  0  0  0  0  0  0  0
    3.3020   -6.0680   44.8170 C   0  0  0  0  0  0  0  0  0  0  0  0
    0.8730   -5.1260   45.8180 C   0  0  0  0  0  0  0  0  0  0  0  0
    2.1790   -6.9030   44.8190 C   0  0  0  0  0  0  0  0  0  0  0  0
    0.9630   -6.4370   45.3360 C   0  0  0  0  0  0  0  0  0  0  0  0
   -0.2590   -7.2910   45.3630 C   0  0  0  0  0  0  0  0  0  0  0  0
   -0.9340   -7.3700   44.3440 O   0  0  0  0  0  0  0  0  0  0  0  0
   -0.5280   -7.8820   46.5860 N   0  0  0  0  0  0  0  0  0  0  0  0
   -1.5830   -8.7650   46.8960 C   0  0  0  0  0  0  0  0  0  0  0  0
   -2.2730   -9.5230   45.9480 C   0  0  0  0  0  0  0  0  0  0  0  0
   -1.9400   -8.8870   48.2460 C   0  0  0  0  0  0  0  0  0  0  0  0
   -3.3040  -10.3820   46.3400 C   0  0  0  0  0  0  0  0  0  0  0  0
   -2.9700   -9.7450   48.6380 C   0  0  0  0  0  0  0  0  0  0  0  0
   -3.6540  -10.4930   47.6840 C   0  0  0  0  0  0  0  0  0  0  0  0
    8.0540   -1.4920   45.5030 C   0  0  2  0  0  0  0  0  0  0  0  0
    9.1600   -2.2450   45.7410 F   0  0  0  0  0  0  0  0  0  0  0  0
    8.0650   -0.5180   46.5850 N   0  0  0  0  0  0  0  0  0  0  0  0
  1 11  1  0
  1  2  2  0
  1  6  1  0
  2  3  1  0
  3  4  2  0
  4  5  1  0
  4  7  1  0
  5  6  2  0
  5 10  1  0
  7 29  1  0
  7  8  2  0
  8  9  1  0
  9 10  2  0
 10 14  1  0
 11 12  2  0
 11 13  1  0
 14 16  1  0
 14 15  2  0
 15 17  1  0
 16 18  2  0
 17 19  2  0
 18 19  1  0
 19 20  1  0
 20 21  2  0
 20 22  1  0
 22 23  1  0
 23 24  2  0
 23 25  1  0
 24 26  1  0
 25 27  2  0
 26 28  2  0
 27 28  1  0
 29 30  1  0
 29 31  1  1
M  END
>  <vina_dock>  (116) 
-10.255

$$$$
O14757_PocketFlow_idx-in-all-generaetd-660
     RDKit          3D

 23 25  0  0  0  0  0  0  0  0999 V2000
    5.5820   -2.6230   44.9900 C   0  0  0  0  0  0  0  0  0  0  0  0
    6.3370   -1.5960   44.5520 N   0  0  0  0  0  0  0  0  0  0  0  0
    5.9570   -3.4780   45.9640 N   0  0  0  0  0  0  0  0  0  0  0  0
    7.1660   -3.2800   46.5320 C   0  0  0  0  0  0  0  0  0  0  0  0
    8.0030   -2.2540   46.1440 C   0  0  0  0  0  0  0  0  0  0  0  0
    7.5340   -1.4370   45.1430 C   0  0  0  0  0  0  0  0  0  0  0  0
    4.2620   -2.8330   44.3580 C   0  0  0  0  0  0  0  0  0  0  0  0
    2.1140   -4.0470   44.2310 C   0  0  0  0  0  0  0  0  0  0  0  0
    1.7370   -3.2500   43.1440 C   0  0  0  0  0  0  0  0  0  0  0  0
    3.3760   -3.8310   44.8170 C   0  0  0  0  0  0  0  0  0  0  0  0
    2.5880   -2.2540   42.6710 C   0  0  0  0  0  0  0  0  0  0  0  0
    3.8330   -2.0500   43.2700 C   0  0  0  0  0  0  0  0  0  0  0  0
    1.2310   -5.1690   44.7520 C   0  0  1  0  0  0  0  0  0  0  0  0
    1.2660   -7.3840   45.7590 N   0  0  0  0  0  0  0  0  0  0  0  0
    1.9130   -6.5230   44.9060 C   0  0  0  0  0  0  0  0  0  0  0  0
   -0.0800   -7.1240   46.1400 C   0  0  0  0  0  0  0  0  0  0  0  0
    2.9230   -6.8900   44.3140 O   0  0  0  0  0  0  0  0  0  0  0  0
   -0.0750   -5.8660   46.8470 N   0  0  0  0  0  0  0  0  0  0  0  0
    0.6020   -4.7850   46.1070 C   0  0  0  0  0  0  0  0  0  0  0  0
    7.5830   -4.2510   47.6090 C   0  0  0  0  0  0  0  0  0  0  0  0
    6.7070   -4.1740   48.8730 C   0  0  0  0  0  0  0  0  0  0  0  0
    6.0380   -5.5290   49.1230 C   0  0  0  0  0  0  0  0  0  0  0  0
    7.5140   -3.7640   50.1080 C   0  0  0  0  0  0  0  0  0  0  0  0
  1  7  1  0
  1  2  2  0
  1  3  1  0
  2  6  1  0
  3  4  2  0
  4  5  1  0
  4 20  1  0
  5  6  2  0
  7 12  1  0
  7 10  2  0
  8  9  2  0
 13  8  1  1
  8 10  1  0
  9 11  1  0
 11 12  2  0
 13 15  1  0
 13 19  1  0
 14 15  1  0
 14 16  1  0
 15 17  2  0
 16 18  1  0
 18 19  1  0
 20 21  1  0
 21 22  1  0
 21 23  1  0
M  END
>  <vina_dock>  (117) 
-8.499

$$$$
O14757_PocketFlow_idx-in-all-generaetd-223
     RDKit          3D

 10 10  0  0  0  0  0  0  0  0999 V2000
    1.7300   -2.9100   42.9780 C   0  0  0  0  0  0  0  0  0  0  0  0
    2.6360   -3.4510   43.8080 C   0  0  0  0  0  0  0  0  0  0  0  0
    0.4190   -3.5610   42.6420 C   0  0  0  0  0  0  0  0  0  0  0  0
    0.0180   -3.2860   41.2010 C   0  0  0  0  0  0  0  0  0  0  0  0
    3.9290   -2.8320   44.1370 C   0  0  0  0  0  0  0  0  0  0  0  0
    4.3300   -1.6880   43.4350 C   0  0  0  0  0  0  0  0  0  0  0  0
    4.7990   -3.3780   45.0900 C   0  0  0  0  0  0  0  0  0  0  0  0
    5.5640   -1.0870   43.6990 C   0  0  0  0  0  0  0  0  0  0  0  0
    6.0320   -2.7770   45.3530 C   0  0  0  0  0  0  0  0  0  0  0  0
    6.4140   -1.6310   44.6600 C   0  0  0  0  0  0  0  0  0  0  0  0
  1  3  1  0
  1  2  2  3
  2  5  1  0
  3  4  1  0
  5  6  2  0
  5  7  1  0
  6  8  1  0
  7  9  2  0
  8 10  2  0
  9 10  1  0
M  END
>  <vina_dock>  (118) 
-5.852

$$$$
O14757_PocketFlow_idx-in-all-generaetd-251
     RDKit          3D

 12 12  0  0  0  0  0  0  0  0999 V2000
    2.1950   -5.5320   45.3250 C   0  0  0  0  0  0  0  0  0  0  0  0
    1.3590   -4.4780   44.9700 C   0  0  0  0  0  0  0  0  0  0  0  0
    1.8800   -3.4010   44.2480 C   0  0  0  0  0  0  0  0  0  0  0  0
    3.2330   -3.3810   43.8860 C   0  0  0  0  0  0  0  0  0  0  0  0
    4.0600   -4.4510   44.2470 C   0  0  0  0  0  0  0  0  0  0  0  0
    3.5390   -5.5270   44.9690 C   0  0  0  0  0  0  0  0  0  0  0  0
    1.7290   -6.6010   46.0290 O   0  0  0  0  0  0  0  0  0  0  0  0
    3.7650   -2.2490   43.1240 C   0  0  0  0  0  0  0  0  0  0  0  0
    4.7640   -1.4360   43.5080 C   0  0  0  0  0  0  0  0  0  0  0  0
    5.4930   -1.5070   44.7560 C   0  0  0  0  0  0  0  0  0  0  0  0
    6.7740   -1.9010   44.8270 C   0  0  0  0  0  0  0  0  0  0  0  0
    7.5470   -1.9770   46.1030 C   0  0  0  0  0  0  0  0  0  0  0  0
  1  6  2  0
  1  2  1  0
  1  7  1  0
  2  3  2  0
  3  4  1  0
  4  8  1  0
  4  5  2  0
  5  6  1  0
  8  9  2  3
  9 10  1  0
 10 11  2  3
 11 12  1  0
M  END
>  <vina_dock>  (119) 
-5.949

$$$$
O14757_PocketFlow_idx-in-all-generaetd-541
     RDKit          3D

 35 38  0  0  0  0  0  0  0  0999 V2000
   10.4810   -3.1710   47.8860 C   0  0  0  0  0  0  0  0  0  0  0  0
    9.2040   -3.3700   47.3430 C   0  0  0  0  0  0  0  0  0  0  0  0
    8.6350   -2.4390   46.4620 C   0  0  0  0  0  0  0  0  0  0  0  0
    9.3850   -1.2960   46.1560 C   0  0  0  0  0  0  0  0  0  0  0  0
   11.2460   -2.0530   47.5490 C   0  0  0  0  0  0  0  0  0  0  0  0
   10.6600   -1.1030   46.7020 C   0  0  0  0  0  0  0  0  0  0  0  0
   12.4940   -1.7610   48.1120 N   0  0  0  0  0  0  0  0  0  0  0  0
   12.6740   -0.5120   48.8540 C   0  0  0  0  0  0  0  0  0  0  0  0
   12.3300   -0.7060   50.3260 C   0  0  0  0  0  0  0  0  0  0  0  0
   10.4220   -0.4240   50.6290 Br  0  0  0  0  0  0  0  0  0  0  0  0
    7.2930   -2.6480   45.8930 C   0  0  0  0  0  0  0  0  0  0  0  0
    6.4650   -3.6820   46.3490 C   0  0  0  0  0  0  0  0  0  0  0  0
    6.8010   -1.8160   44.8770 C   0  0  0  0  0  0  0  0  0  0  0  0
    5.1890   -3.8800   45.8080 C   0  0  0  0  0  0  0  0  0  0  0  0
    5.5240   -2.0120   44.3360 C   0  0  0  0  0  0  0  0  0  0  0  0
    4.6940   -3.0470   44.7920 C   0  0  0  0  0  0  0  0  0  0  0  0
    3.3500   -3.2520   44.2270 C   0  0  0  0  0  0  0  0  0  0  0  0
    2.5190   -4.2880   44.6920 C   0  0  0  0  0  0  0  0  0  0  0  0
    2.8610   -2.4230   43.2070 C   0  0  0  0  0  0  0  0  0  0  0  0
    1.2310   -4.5080   44.1710 C   0  0  0  0  0  0  0  0  0  0  0  0
    1.5820   -2.6200   42.6700 C   0  0  0  0  0  0  0  0  0  0  0  0
    0.7760   -3.6570   43.1520 C   0  0  0  0  0  0  0  0  0  0  0  0
    0.3860   -5.6050   44.6760 C   0  0  0  0  0  0  0  0  0  0  0  0
   -0.2130   -6.5210   43.7980 C   0  0  0  0  0  0  0  0  0  0  0  0
    0.1570   -5.7670   46.0520 C   0  0  0  0  0  0  0  0  0  0  0  0
   -1.0170   -7.5620   44.2740 C   0  0  0  0  0  0  0  0  0  0  0  0
   -0.6460   -6.8060   46.5330 C   0  0  0  0  0  0  0  0  0  0  0  0
   -1.2480   -7.7110   45.6480 C   0  0  0  0  0  0  0  0  0  0  0  0
   -2.0980   -8.8430   46.1710 C   0  0  0  0  0  0  0  0  0  0  0  0
   -1.3760   -9.9510   46.4980 F   0  0  0  0  0  0  0  0  0  0  0  0
   -3.0340   -9.2630   45.2730 F   0  0  0  0  0  0  0  0  0  0  0  0
   -2.7860   -8.5000   47.2940 F   0  0  0  0  0  0  0  0  0  0  0  0
    1.1280   -1.7070   41.5940 C   0  0  0  0  0  0  0  0  0  0  0  0
    1.5870   -1.6490   40.4680 O   0  0  0  0  0  0  0  0  0  0  0  0
    0.1200   -0.9060   41.9780 O   0  0  0  0  0  0  0  0  0  0  0  0
  1  2  2  0
  1  5  1  0
  2  3  1  0
  3 11  1  0
  3  4  2  0
  4  6  1  0
  5  6  2  0
  5  7  1  0
  7  8  1  0
  8  9  1  0
  9 10  1  0
 11 13  1  0
 11 12  2  0
 12 14  1  0
 13 15  2  0
 14 16  2  0
 15 16  1  0
 16 17  1  0
 17 19  1  0
 17 18  2  0
 18 20  1  0
 19 21  2  0
 20 22  2  0
 20 23  1  0
 21 33  1  0
 21 22  1  0
 23 24  2  0
 23 25  1  0
 24 26  1  0
 25 27  2  0
 26 28  2  0
 27 28  1  0
 28 29  1  0
 29 31  1  0
 29 30  1  0
 29 32  1  0
 33 34  2  0
 33 35  1  0
M  END
>  <vina_dock>  (120) 
-9.804

$$$$
O14757_PocketFlow_idx-in-all-generaetd-508
     RDKit          3D

 15 16  0  0  0  0  0  0  0  0999 V2000
    4.8840   -2.0990   44.0860 C   0  0  0  0  0  0  0  0  0  0  0  0
    3.7580   -2.8340   44.0470 C   0  0  0  0  0  0  0  0  0  0  0  0
    6.0350   -2.3120   44.9870 C   0  0  0  0  0  0  0  0  0  0  0  0
    8.2200   -1.7420   45.9050 C   0  0  0  0  0  0  0  0  0  0  0  0
    7.1640   -1.4820   45.0240 C   0  0  0  0  0  0  0  0  0  0  0  0
    8.1640   -2.8380   46.7620 C   0  0  0  0  0  0  0  0  0  0  0  0
    7.0520   -3.6740   46.7400 C   0  0  0  0  0  0  0  0  0  0  0  0
    5.9980   -3.4120   45.8600 C   0  0  0  0  0  0  0  0  0  0  0  0
    2.6010   -2.6270   43.1500 C   0  0  0  0  0  0  0  0  0  0  0  0
    2.5690   -1.6650   42.1290 C   0  0  0  0  0  0  0  0  0  0  0  0
    1.4610   -3.4320   43.3150 C   0  0  0  0  0  0  0  0  0  0  0  0
    1.4410   -1.5190   41.3110 C   0  0  0  0  0  0  0  0  0  0  0  0
    1.4300   -4.3710   44.2750 F   0  0  0  0  0  0  0  0  0  0  0  0
    0.3350   -3.2920   42.5050 C   0  0  0  0  0  0  0  0  0  0  0  0
    0.3250   -2.3310   41.4980 C   0  0  0  0  0  0  0  0  0  0  0  0
  1  2  2  3
  1  3  1  0
  2  9  1  0
  3  5  1  0
  3  8  2  0
  4  5  2  0
  4  6  1  0
  6  7  2  0
  7  8  1  0
  9 10  2  0
  9 11  1  0
 10 12  1  0
 11 14  2  0
 11 13  1  0
 12 15  2  0
 14 15  1  0
M  END
>  <vina_dock>  (121) 
-7.454

$$$$
O14757_PocketFlow_idx-in-all-generaetd-649
     RDKit          3D

 32 35  0  0  0  0  0  0  0  0999 V2000
    8.9010   -1.6300   46.2450 C   0  0  0  0  0  0  0  0  0  0  0  0
    7.9080   -1.1910   45.3500 C   0  0  0  0  0  0  0  0  0  0  0  0
    6.7110   -1.8990   45.1410 C   0  0  0  0  0  0  0  0  0  0  0  0
    8.6320   -2.7810   46.9920 C   0  0  0  0  0  0  0  0  0  0  0  0
    6.5040   -3.0730   45.8700 C   0  0  0  0  0  0  0  0  0  0  0  0
    7.4530   -3.5070   46.7960 C   0  0  0  0  0  0  0  0  0  0  0  0
   10.0220   -0.8090   46.4390 N   0  0  0  0  0  0  0  0  0  0  0  0
   11.2860   -1.3920   46.9250 C   0  0  0  0  0  0  0  0  0  0  0  0
   11.9680   -2.2420   45.8600 C   0  0  0  0  0  0  0  0  0  0  0  0
   12.0360   -3.4610   45.8320 O   0  0  0  0  0  0  0  0  0  0  0  0
   12.4750   -1.5070   44.8460 O   0  0  0  0  0  0  0  0  0  0  0  0
    5.8010   -1.3930   44.1950 N   0  0  0  0  0  0  0  0  0  0  0  0
    4.5840   -1.8880   43.7250 C   0  0  0  0  0  0  0  0  0  0  0  0
    3.8020   -1.2400   42.7730 C   0  0  0  0  0  0  0  0  0  0  0  0
    4.1540   -3.0390   44.2920 N   0  0  0  0  0  0  0  0  0  0  0  0
    2.6080   -1.7130   42.3330 N   0  0  0  0  0  0  0  0  0  0  0  0
    2.9550   -3.5370   43.8810 C   0  0  0  0  0  0  0  0  0  0  0  0
    2.2100   -2.8720   42.9070 C   0  0  0  0  0  0  0  0  0  0  0  0
    2.5270   -4.7950   44.5200 C   0  0  0  0  0  0  0  0  0  0  0  0
    3.3780   -5.9200   44.5210 C   0  0  0  0  0  0  0  0  0  0  0  0
    1.2820   -4.9260   45.1600 C   0  0  0  0  0  0  0  0  0  0  0  0
    3.0000   -7.1290   45.1150 C   0  0  0  0  0  0  0  0  0  0  0  0
    0.9150   -6.1270   45.7860 C   0  0  0  0  0  0  0  0  0  0  0  0
    1.7620   -7.2360   45.7440 C   0  0  0  0  0  0  0  0  0  0  0  0
    1.3240   -8.7380   46.4690 Cl  0  0  0  0  0  0  0  0  0  0  0  0
   -0.3160   -6.2340   46.3900 O   0  0  0  0  0  0  0  0  0  0  0  0
   -1.2210   -7.1270   45.8450 C   0  0  0  0  0  0  0  0  0  0  0  0
   -1.4680   -7.2740   44.4780 C   0  0  0  0  0  0  0  0  0  0  0  0
   -1.9560   -7.8830   46.7630 C   0  0  0  0  0  0  0  0  0  0  0  0
   -2.4280   -8.1910   44.0350 C   0  0  0  0  0  0  0  0  0  0  0  0
   -2.9160   -8.7980   46.3200 C   0  0  0  0  0  0  0  0  0  0  0  0
   -3.1460   -8.9580   44.9550 C   0  0  0  0  0  0  0  0  0  0  0  0
  1  2  2  0
  1  7  1  0
  1  4  1  0
  2  3  1  0
  3 12  1  0
  3  5  2  0
  4  6  2  0
  5  6  1  0
  7  8  1  0
  8  9  1  0
  9 11  1  0
  9 10  2  0
 12 13  1  0
 13 14  2  0
 13 15  1  0
 14 16  1  0
 15 17  2  0
 16 18  2  0
 17 18  1  0
 17 19  1  0
 19 20  2  0
 19 21  1  0
 20 22  1  0
 21 23  2  0
 22 24  2  0
 23 24  1  0
 23 26  1  0
 24 25  1  0
 26 27  1  0
 27 28  2  0
 27 29  1  0
 28 30  1  0
 29 31  2  0
 30 32  2  0
 31 32  1  0
M  END
>  <vina_dock>  (122) 
-8.737

$$$$
O14757_PocketFlow_idx-in-all-generaetd-515
     RDKit          3D

 10  9  0  0  0  0  0  0  0  0999 V2000
    1.1220   -3.7620   43.6760 C   0  0  0  0  0  0  0  0  0  0  0  0
    2.2430   -4.1240   44.3190 C   0  0  0  0  0  0  0  0  0  0  0  0
    0.9650   -2.7480   42.5750 C   0  0  0  0  0  0  0  0  0  0  0  0
   -0.0310   -3.2250   41.5120 C   0  0  0  0  0  0  0  0  0  0  0  0
   -1.3250   -2.5640   41.6670 N   0  0  0  0  0  0  0  0  0  0  0  0
    3.5660   -3.5780   44.1080 C   0  0  0  0  0  0  0  0  0  0  0  0
    4.1110   -2.6610   44.9220 C   0  0  0  0  0  0  0  0  0  0  0  0
    5.4320   -2.1120   44.7060 C   0  0  0  0  0  0  0  0  0  0  0  0
    5.7580   -1.1160   43.8680 C   0  0  0  0  0  0  0  0  0  0  0  0
    4.8670   -0.3300   42.9600 C   0  0  0  0  0  0  0  0  0  0  0  0
  1  3  1  0
  1  2  2  3
  2  6  1  0
  3  4  1  0
  4  5  1  0
  6  7  2  3
  7  8  1  0
  8  9  2  3
  9 10  1  0
M  END
>  <vina_dock>  (123) 
-5.254

$$$$
O14757_PocketFlow_idx-in-all-generaetd-263
     RDKit          3D

  8  7  0  0  0  0  0  0  0  0999 V2000
    0.7930   -2.3950   41.7880 C   0  0  2  0  0  0  0  0  0  0  0  0
    0.5830   -0.8940   41.6050 C   0  0  0  0  0  0  0  0  0  0  0  0
   -0.4150   -2.9950   42.3450 N   0  0  0  0  0  0  0  0  0  0  0  0
    1.9540   -2.6650   42.7020 C   0  0  0  0  0  0  0  0  0  0  0  0
    3.0910   -1.9510   42.6950 C   0  0  0  0  0  0  0  0  0  0  0  0
    4.1920   -2.2210   43.5890 C   0  0  0  0  0  0  0  0  0  0  0  0
    5.2220   -1.3760   43.7500 C   0  0  0  0  0  0  0  0  0  0  0  0
    6.3710   -1.6330   44.6690 C   0  0  0  0  0  0  0  0  0  0  0  0
  1  2  1  1
  1  3  1  0
  1  4  1  0
  4  5  2  3
  5  6  1  0
  6  7  2  3
  7  8  1  0
M  END
>  <vina_dock>  (124) 
-4.666

$$$$
O14757_PocketFlow_idx-in-all-generaetd-559
     RDKit          3D

 15 15  0  0  0  0  0  0  0  0999 V2000
    1.6010   -5.6730   44.8760 C   0  0  1  0  0  0  0  0  0  0  0  0
    2.0130   -6.9760   44.8090 F   0  0  0  0  0  0  0  0  0  0  0  0
    0.4130   -5.5380   45.8050 C   0  0  0  0  0  0  0  0  0  0  0  0
   -0.3040   -6.5810   46.2470 C   0  0  0  0  0  0  0  0  0  0  0  0
    0.0420   -4.2550   46.2030 O   0  0  0  0  0  0  0  0  0  0  0  0
   -1.4040   -6.5060   47.0690 N   0  0  0  0  0  0  0  0  0  0  0  0
    2.7840   -4.8190   45.3500 C   0  0  0  0  0  0  0  0  0  0  0  0
    3.0900   -3.6790   44.4030 C   0  0  0  0  0  0  0  0  0  0  0  0
    4.3210   -3.0140   44.4680 C   0  0  0  0  0  0  0  0  0  0  0  0
    2.1470   -3.2700   43.4490 C   0  0  0  0  0  0  0  0  0  0  0  0
    4.6040   -1.9630   43.5980 C   0  0  0  0  0  0  0  0  0  0  0  0
    2.4240   -2.2150   42.5640 C   0  0  0  0  0  0  0  0  0  0  0  0
    3.6610   -1.5620   42.6530 C   0  0  0  0  0  0  0  0  0  0  0  0
    1.4040   -1.7760   41.5560 C   0  0  0  0  0  0  0  0  0  0  0  0
   -0.0740   -3.0360   41.5380 Br  0  0  0  0  0  0  0  0  0  0  0  0
  1  2  1  1
  1  7  1  0
  1  3  1  0
  3  5  1  0
  3  4  2  3
  4  6  1  0
  7  8  1  0
  8 10  2  0
  8  9  1  0
  9 11  2  0
 10 12  1  0
 11 13  1  0
 12 14  1  0
 12 13  2  0
 14 15  1  0
M  END
>  <vina_dock>  (125) 
-6.677

$$$$
O14757_PocketFlow_idx-in-all-generaetd-351
     RDKit          3D

  5  4  0  0  0  0  0  0  0  0999 V2000
    6.5920   -1.3210   44.1960 F   0  0  0  0  0  0  0  0  0  0  0  0
    5.3110   -1.1210   43.8440 C   0  0  0  0  0  0  0  0  0  0  0  0
    4.5570   -0.9900   44.9480 F   0  0  0  0  0  0  0  0  0  0  0  0
    5.2200   -0.0020   43.1060 F   0  0  0  0  0  0  0  0  0  0  0  0
    4.8750   -2.1690   43.1250 F   0  0  0  0  0  0  0  0  0  0  0  0
  1  2  1  0
  2  4  1  0
  2  5  1  0
  2  3  1  0
M  END
>  <vina_dock>  (126) 
-2.986

$$$$
O14757_PocketFlow_idx-in-all-generaetd-590
     RDKit          3D

 13 13  0  0  0  0  0  0  0  0999 V2000
    2.1570   -0.3700   41.9490 C   0  0  0  0  0  0  0  0  0  0  0  0
    3.2180   -1.0850   42.3540 C   0  0  0  0  0  0  0  0  0  0  0  0
    0.9230   -0.9800   41.5080 C   0  0  0  0  0  0  0  0  0  0  0  0
   -0.5580   -2.9540   41.1010 C   0  0  0  0  0  0  0  0  0  0  0  0
    0.7090   -2.3040   41.5520 C   0  0  0  0  0  0  0  0  0  0  0  0
    4.4530   -0.4760   42.8020 C   0  0  0  0  0  0  0  0  0  0  0  0
    5.2250   -0.8950   43.8170 C   0  0  0  0  0  0  0  0  0  0  0  0
    4.9830   -2.0710   44.6580 C   0  0  0  0  0  0  0  0  0  0  0  0
    5.0100   -1.9720   46.0540 C   0  0  0  0  0  0  0  0  0  0  0  0
    4.7060   -3.3060   44.0610 C   0  0  0  0  0  0  0  0  0  0  0  0
    4.7700   -3.0980   46.8430 C   0  0  0  0  0  0  0  0  0  0  0  0
    4.4670   -4.4300   44.8530 C   0  0  0  0  0  0  0  0  0  0  0  0
    4.4990   -4.3270   46.2420 C   0  0  0  0  0  0  0  0  0  0  0  0
  1  3  1  0
  1  2  2  3
  2  6  1  0
  3  5  2  3
  4  5  1  0
  6  7  2  3
  7  8  1  0
  8 10  2  0
  8  9  1  0
  9 11  2  0
 10 12  1  0
 11 13  1  0
 12 13  2  0
M  END
>  <vina_dock>  (127) 
-6.504

$$$$
O14757_PocketFlow_idx-in-all-generaetd-497
     RDKit          3D

 12 12  0  0  0  0  0  0  0  0999 V2000
    1.3710   -2.9900   42.8630 C   0  0  0  0  0  0  0  0  0  0  0  0
    2.0730   -3.6540   43.8840 C   0  0  0  0  0  0  0  0  0  0  0  0
    3.3950   -3.3180   44.2190 C   0  0  0  0  0  0  0  0  0  0  0  0
    4.0260   -2.2920   43.5140 C   0  0  0  0  0  0  0  0  0  0  0  0
    3.3350   -1.5900   42.5280 C   0  0  0  0  0  0  0  0  0  0  0  0
    2.0130   -1.9270   42.2200 C   0  0  0  0  0  0  0  0  0  0  0  0
    0.0320   -3.3420   42.6420 N   0  0  0  0  0  0  0  0  0  0  0  0
   -0.6350   -2.9120   41.4380 C   0  0  0  0  0  0  0  0  0  0  0  0
   -1.8890   -2.2190   41.6400 N   0  0  0  0  0  0  0  0  0  0  0  0
    4.1490   -4.0410   45.2520 C   0  0  0  0  0  0  0  0  0  0  0  0
    3.7830   -5.2270   45.7550 C   0  0  0  0  0  0  0  0  0  0  0  0
    4.4460   -5.9420   46.7190 N   0  0  0  0  0  0  0  0  0  0  0  0
  1  6  2  0
  1  7  1  0
  1  2  1  0
  2  3  2  0
  3  4  1  0
  3 10  1  0
  4  5  2  0
  5  6  1  0
  7  8  1  0
  8  9  1  0
 10 11  2  3
 11 12  1  0
M  END
>  <vina_dock>  (128) 
-6.093

$$$$
O14757_PocketFlow_idx-in-all-generaetd-857
     RDKit          3D

 33 36  0  0  0  0  0  0  0  0999 V2000
    4.5140   -0.8110   43.2530 C   0  0  0  0  0  0  0  0  0  0  0  0
    3.5780   -1.5470   42.6330 C   0  0  0  0  0  0  0  0  0  0  0  0
    5.0820   -1.0150   44.6350 C   0  0  0  0  0  0  0  0  0  0  0  0
    6.5480   -1.4730   44.6180 C   0  0  0  0  0  0  0  0  0  0  0  0
    6.9580   -2.2720   45.8260 C   0  0  0  0  0  0  0  0  0  0  0  0
    6.4500   -3.8360   47.6070 C   0  0  0  0  0  0  0  0  0  0  0  0
    6.0480   -3.0990   46.4950 C   0  0  0  0  0  0  0  0  0  0  0  0
    7.7720   -3.7090   48.0130 C   0  0  0  0  0  0  0  0  0  0  0  0
    8.6850   -2.9170   47.3980 N   0  0  0  0  0  0  0  0  0  0  0  0
    8.2550   -2.2180   46.3250 C   0  0  0  0  0  0  0  0  0  0  0  0
    5.4830   -4.6110   48.1790 O   0  0  0  0  0  0  0  0  0  0  0  0
    5.7450   -6.0090   48.2440 C   0  0  0  0  0  0  0  0  0  0  0  0
    2.8880   -2.7060   43.2010 C   0  0  0  0  0  0  0  0  0  0  0  0
    1.5140   -2.8660   42.9930 C   0  0  0  0  0  0  0  0  0  0  0  0
    3.5790   -3.6350   43.9870 C   0  0  0  0  0  0  0  0  0  0  0  0
    0.8370   -3.9570   43.5480 C   0  0  0  0  0  0  0  0  0  0  0  0
    2.9060   -4.7260   44.5420 C   0  0  0  0  0  0  0  0  0  0  0  0
    1.5350   -4.9000   44.3130 C   0  0  0  0  0  0  0  0  0  0  0  0
    0.8570   -6.0750   44.9320 C   0  0  0  0  0  0  0  0  0  0  0  0
   -0.4210   -6.3270   44.4650 N   0  0  0  0  0  0  0  0  0  0  0  0
    1.4790   -6.7300   45.7600 O   0  0  0  0  0  0  0  0  0  0  0  0
   -1.3060   -7.3390   44.8970 C   0  0  0  0  0  0  0  0  0  0  0  0
   -1.0950   -7.8700   46.1780 C   0  0  0  0  0  0  0  0  0  0  0  0
   -2.3530   -7.8390   44.1240 C   0  0  0  0  0  0  0  0  0  0  0  0
   -1.9140   -8.8910   46.6990 C   0  0  0  0  0  0  0  0  0  0  0  0
   -3.1770   -8.8500   44.6240 C   0  0  0  0  0  0  0  0  0  0  0  0
   -2.9590   -9.3710   45.8980 C   0  0  0  0  0  0  0  0  0  0  0  0
   -1.6780   -9.4390   48.0440 C   0  0  0  0  0  0  0  0  0  0  0  0
   -0.3740   -9.5850   48.5460 C   0  0  0  0  0  0  0  0  0  0  0  0
   -2.7490   -9.8360   48.8640 C   0  0  0  0  0  0  0  0  0  0  0  0
   -0.1470  -10.1080   49.8230 C   0  0  0  0  0  0  0  0  0  0  0  0
   -2.5220  -10.3610   50.1410 C   0  0  0  0  0  0  0  0  0  0  0  0
   -1.2210  -10.4950   50.6190 C   0  0  0  0  0  0  0  0  0  0  0  0
  1  2  2  3
  1  3  1  0
  2 13  1  0
  3  4  1  0
  4  5  1  0
  5 10  2  0
  5  7  1  0
  6  7  2  0
  6  8  1  0
  6 11  1  0
  8  9  2  0
  9 10  1  0
 11 12  1  0
 13 14  2  0
 13 15  1  0
 14 16  1  0
 15 17  2  0
 16 18  2  0
 17 18  1  0
 18 19  1  0
 19 20  1  0
 19 21  2  0
 20 22  1  0
 22 24  1  0
 22 23  2  0
 23 25  1  0
 24 26  2  0
 25 27  2  0
 25 28  1  0
 26 27  1  0
 28 29  2  0
 28 30  1  0
 29 31  1  0
 30 32  2  0
 31 33  2  0
 32 33  1  0
M  END
>  <vina_dock>  (129) 
8.339

$$$$
O14757_PocketFlow_idx-in-all-generaetd-674
     RDKit          3D

 35 38  0  0  0  0  0  0  0  0999 V2000
    1.0370   -5.1160   45.5330 C   0  0  0  0  0  0  0  0  0  0  0  0
    0.7590   -3.9220   44.9870 C   0  0  0  0  0  0  0  0  0  0  0  0
    1.1350   -6.4550   44.8640 C   0  0  1  0  0  0  0  0  0  0  0  0
    2.0990   -6.3900   43.9030 F   0  0  0  0  0  0  0  0  0  0  0  0
    1.5810   -7.4450   45.7900 O   0  0  0  0  0  0  0  0  0  0  0  0
    0.7030   -8.4060   46.2070 C   0  0  0  0  0  0  0  0  0  0  0  0
   -1.6650   -9.0210   46.2680 C   0  0  0  0  0  0  0  0  0  0  0  0
   -1.3220  -10.2140   46.9160 C   0  0  0  0  0  0  0  0  0  0  0  0
   -0.6380   -8.1260   45.9200 C   0  0  0  0  0  0  0  0  0  0  0  0
    0.0120  -10.4950   47.2170 C   0  0  0  0  0  0  0  0  0  0  0  0
    1.0220   -9.5950   46.8650 C   0  0  0  0  0  0  0  0  0  0  0  0
   -3.1150   -8.7100   45.9510 C   0  0  1  0  0  0  0  0  0  0  0  0
   -3.7500   -8.2610   47.1390 O   0  0  0  0  0  0  0  0  0  0  0  0
   -3.3000   -7.6890   44.9430 N   0  0  0  0  0  0  0  0  0  0  0  0
   -3.6880   -8.2080   43.6420 C   0  0  0  0  0  0  0  0  0  0  0  0
    0.5930   -3.6420   43.5730 C   0  0  0  0  0  0  0  0  0  0  0  0
    1.4980   -3.0730   42.7530 C   0  0  0  0  0  0  0  0  0  0  0  0
    1.0750   -2.8330   41.0820 Cl  0  0  0  0  0  0  0  0  0  0  0  0
    2.8300   -2.5810   43.1430 C   0  0  0  0  0  0  0  0  0  0  0  0
    3.3260   -1.3900   42.6020 C   0  0  0  0  0  0  0  0  0  0  0  0
    3.6110   -3.2770   44.0770 C   0  0  0  0  0  0  0  0  0  0  0  0
    4.5720   -0.8960   42.9970 C   0  0  0  0  0  0  0  0  0  0  0  0
    4.8510   -2.7750   44.5080 C   0  0  0  0  0  0  0  0  0  0  0  0
    5.3400   -1.5720   43.9570 C   0  0  0  0  0  0  0  0  0  0  0  0
    5.6060   -3.4350   45.4920 C   0  0  0  0  0  0  0  0  0  0  0  0
    6.5770   -1.0690   44.3890 C   0  0  0  0  0  0  0  0  0  0  0  0
    6.8300   -2.9180   45.9450 C   0  0  0  0  0  0  0  0  0  0  0  0
    7.3250   -1.7230   45.3820 C   0  0  0  0  0  0  0  0  0  0  0  0
    7.5650   -3.5570   46.9570 C   0  0  0  0  0  0  0  0  0  0  0  0
    8.5490   -1.2060   45.8360 C   0  0  0  0  0  0  0  0  0  0  0  0
    8.7830   -3.0310   47.4160 C   0  0  0  0  0  0  0  0  0  0  0  0
    9.2660   -1.8480   46.8470 C   0  0  0  0  0  0  0  0  0  0  0  0
    9.5380   -3.7120   48.5360 C   0  0  0  0  0  0  0  0  0  0  0  0
   10.0970   -2.8160   49.6100 C   0  0  0  0  0  0  0  0  0  0  0  0
    9.4300   -1.9870   50.4270 C   0  0  0  0  0  0  0  0  0  0  0  0
  1  3  1  0
  1  2  2  3
  2 16  1  0
  3  4  1  6
  3  5  1  0
  5  6  1  0
  6  9  1  0
  6 11  2  0
  7  9  2  0
  7 12  1  0
  7  8  1  0
  8 10  2  0
 10 11  1  0
 12 14  1  0
 12 13  1  1
 14 15  1  0
 16 17  2  3
 17 18  1  0
 17 19  1  0
 19 20  2  0
 19 21  1  0
 20 22  1  0
 21 23  2  0
 22 24  2  0
 23 24  1  0
 23 25  1  0
 24 26  1  0
 25 27  2  0
 26 28  2  0
 27 28  1  0
 27 29  1  0
 28 30  1  0
 29 31  2  0
 30 32  2  0
 31 32  1  0
 31 33  1  0
 33 34  1  0
 34 35  2  0
M  END
>  <vina_dock>  (130) 
-9.92

$$$$
O14757_PocketFlow_idx-in-all-generaetd-852
     RDKit          3D

 12 12  0  0  0  0  0  0  0  0999 V2000
    1.8840   -2.6270   42.7440 C   0  0  0  0  0  0  0  0  0  0  0  0
    3.0820   -1.8660   42.6630 O   0  0  0  0  0  0  0  0  0  0  0  0
    4.0850   -2.1820   43.5350 C   0  0  0  0  0  0  0  0  0  0  0  0
    5.2460   -1.4420   43.7540 C   0  0  0  0  0  0  0  0  0  0  0  0
    3.8820   -3.3650   44.2540 C   0  0  0  0  0  0  0  0  0  0  0  0
    6.1820   -1.8950   44.6830 C   0  0  0  0  0  0  0  0  0  0  0  0
    4.8250   -3.8110   45.1820 C   0  0  0  0  0  0  0  0  0  0  0  0
    7.2960   -1.1810   44.8890 F   0  0  0  0  0  0  0  0  0  0  0  0
    5.9840   -3.0700   45.3970 C   0  0  0  0  0  0  0  0  0  0  0  0
    0.7400   -1.9350   42.0050 C   0  0  0  0  0  0  0  0  0  0  0  0
    1.2730   -0.4390   41.2790 Cl  0  0  0  0  0  0  0  0  0  0  0  0
   -0.4000   -2.3850   41.9380 O   0  0  0  0  0  0  0  0  0  0  0  0
  1 10  1  0
  1  2  1  0
  2  3  1  0
  3  4  2  0
  3  5  1  0
  4  6  1  0
  5  7  2  0
  6  8  1  0
  6  9  2  0
  7  9  1  0
 10 11  1  0
 10 12  2  0
M  END
>  <vina_dock>  (131) 
-5.598

$$$$
O14757_PocketFlow_idx-in-all-generaetd-741
     RDKit          3D

 31 33  0  0  0  0  0  0  0  0999 V2000
    3.8310   -4.1160   46.4500 C   0  0  0  0  0  0  0  0  0  0  0  0
    2.6910   -4.8730   45.8130 C   0  0  0  0  0  0  0  0  0  0  0  0
    0.5730   -6.3300   44.6560 C   0  0  0  0  0  0  0  0  0  0  0  0
    0.3330   -5.0980   45.2840 C   0  0  0  0  0  0  0  0  0  0  0  0
    1.8820   -6.8280   44.6210 C   0  0  0  0  0  0  0  0  0  0  0  0
    1.3840   -4.3770   45.8580 C   0  0  0  0  0  0  0  0  0  0  0  0
    2.9300   -6.1070   45.1960 C   0  0  0  0  0  0  0  0  0  0  0  0
   -0.5630   -7.1120   44.0390 C   0  0  0  0  0  0  0  0  0  0  0  0
   -1.4610   -7.7830   45.0450 C   0  0  0  0  0  0  0  0  0  0  0  0
   -1.8160   -8.9240   47.1510 C   0  0  0  0  0  0  0  0  0  0  0  0
   -0.9540   -8.3230   46.2360 C   0  0  0  0  0  0  0  0  0  0  0  0
   -3.1670   -8.9610   46.8250 C   0  0  0  0  0  0  0  0  0  0  0  0
   -3.6990   -8.4550   45.6870 N   0  0  0  0  0  0  0  0  0  0  0  0
   -2.8320   -7.8830   44.8230 C   0  0  0  0  0  0  0  0  0  0  0  0
   -1.4710   -9.4860   48.3470 O   0  0  0  0  0  0  0  0  0  0  0  0
   -2.5260   -9.7370   49.2650 C   0  0  0  0  0  0  0  0  0  0  0  0
    5.0440   -4.0380   45.5180 C   0  0  0  0  0  0  0  0  0  0  0  0
    5.0020   -2.8100   44.6340 C   0  0  0  0  0  0  0  0  0  0  0  0
    6.0170   -1.8330   44.6290 C   0  0  0  0  0  0  0  0  0  0  0  0
    3.8950   -2.6370   43.7800 C   0  0  0  0  0  0  0  0  0  0  0  0
    5.9050   -0.7100   43.7950 C   0  0  0  0  0  0  0  0  0  0  0  0
    3.7890   -1.5230   42.9330 C   0  0  0  0  0  0  0  0  0  0  0  0
    4.7970   -0.5520   42.9640 C   0  0  0  0  0  0  0  0  0  0  0  0
    7.2340   -1.9600   45.4780 C   0  0  0  0  0  0  0  0  0  0  0  0
    7.8860   -0.7930   45.7730 N   0  0  0  0  0  0  0  0  0  0  0  0
    7.6320   -3.0330   45.9080 O   0  0  0  0  0  0  0  0  0  0  0  0
    2.5840   -1.3670   42.0320 C   0  0  0  0  0  0  0  0  0  0  0  0
    1.6540   -2.4960   42.0730 N   0  0  0  0  0  0  0  0  0  0  0  0
    0.4160   -2.2460   41.8850 C   0  0  0  0  0  0  0  0  0  0  0  0
   -0.4180   -3.2900   41.8930 F   0  0  0  0  0  0  0  0  0  0  0  0
   -0.2550   -1.0830   41.6910 N   0  0  0  0  0  0  0  0  0  0  0  0
  1 17  1  0
  1  2  1  0
  2  7  1  0
  2  6  2  0
  3  8  1  0
  3  5  1  0
  3  4  2  0
  4  6  1  0
  5  7  2  0
  8  9  1  0
  9 14  2  0
  9 11  1  0
 10 11  2  0
 10 12  1  0
 10 15  1  0
 12 13  2  0
 13 14  1  0
 15 16  1  0
 17 18  1  0
 18 20  1  0
 18 19  2  0
 19 21  1  0
 19 24  1  0
 20 22  2  0
 21 23  2  0
 22 27  1  0
 22 23  1  0
 24 25  1  0
 24 26  2  0
 27 28  1  0
 28 29  1  0
 29 31  2  0
 29 30  1  0
M  CHG  1  31   1
M  END
>  <vina_dock>  (132) 
-9.182

$$$$
O14757_PocketFlow_idx-in-all-generaetd-975
     RDKit          3D

 35 37  0  0  0  0  0  0  0  0999 V2000
    4.8780   -3.0850   46.4950 C   0  0  0  0  0  0  0  0  0  0  0  0
    3.9790   -4.3160   46.4060 C   0  0  0  0  0  0  0  0  0  0  0  0
    3.6800   -4.5480   45.0240 O   0  0  0  0  0  0  0  0  0  0  0  0
    2.4910   -5.2100   44.8320 C   0  0  0  0  0  0  0  0  0  0  0  0
    2.2750   -6.4330   45.4830 C   0  0  0  0  0  0  0  0  0  0  0  0
    1.0850   -7.1200   45.2750 C   0  0  0  0  0  0  0  0  0  0  0  0
    1.5470   -4.6780   43.9270 C   0  0  0  0  0  0  0  0  0  0  0  0
    0.8030   -8.6060   46.1060 Cl  0  0  0  0  0  0  0  0  0  0  0  0
    0.1290   -6.6050   44.4000 C   0  0  0  0  0  0  0  0  0  0  0  0
    0.3560   -5.4040   43.7280 C   0  0  0  0  0  0  0  0  0  0  0  0
    1.7590   -3.4030   43.2120 C   0  0  0  0  0  0  0  0  0  0  0  0
    2.9210   -2.6370   43.4140 C   0  0  0  0  0  0  0  0  0  0  0  0
    0.8020   -2.9140   42.3060 C   0  0  0  0  0  0  0  0  0  0  0  0
    3.1230   -1.4140   42.7500 C   0  0  0  0  0  0  0  0  0  0  0  0
    0.9960   -1.7100   41.6250 C   0  0  0  0  0  0  0  0  0  0  0  0
    2.1520   -0.9630   41.8460 C   0  0  0  0  0  0  0  0  0  0  0  0
    4.3840   -0.6230   42.9920 C   0  0  0  0  0  0  0  0  0  0  0  0
    5.5170   -1.3330   42.7300 F   0  0  0  0  0  0  0  0  0  0  0  0
    4.4560    0.4940   42.2170 F   0  0  0  0  0  0  0  0  0  0  0  0
    4.5090   -0.1910   44.2780 F   0  0  0  0  0  0  0  0  0  0  0  0
   -1.0570   -7.2440   44.1610 O   0  0  0  0  0  0  0  0  0  0  0  0
    6.0090   -3.0680   45.4670 C   0  0  0  0  0  0  0  0  0  0  0  0
    6.9290   -1.8480   45.5910 C   0  0  0  0  0  0  0  0  0  0  0  0
    8.4060   -2.2320   45.8090 C   0  0  2  0  0  0  0  0  0  0  0  0
    8.4950   -3.5740   46.5560 C   0  0  0  0  0  0  0  0  0  0  0  0
    9.2160   -1.1320   46.5220 C   0  0  0  0  0  0  0  0  0  0  0  0
    9.9250   -3.8420   47.0170 C   0  0  0  0  0  0  0  0  0  0  0  0
    9.5860   -1.5030   47.9570 C   0  0  0  0  0  0  0  0  0  0  0  0
   10.4410   -2.8100   48.0680 C   0  0  1  0  0  0  0  0  0  0  0  0
   10.2000   -3.3610   49.4950 C   0  0  0  0  0  0  0  0  0  0  0  0
   11.9760   -2.4870   47.8180 C   0  0  1  0  0  0  0  0  0  0  0  0
   12.5280   -3.0710   46.5030 C   0  0  0  0  0  0  0  0  0  0  0  0
   12.4760   -1.0490   47.8870 C   0  0  0  0  0  0  0  0  0  0  0  0
   12.8710   -0.2240   46.9040 C   0  0  0  0  0  0  0  0  0  0  0  0
   13.3370    1.1790   47.1400 C   0  0  0  0  0  0  0  0  0  0  0  0
  1 22  1  0
  1  2  1  0
  2  3  1  0
  3  4  1  0
  4  7  1  0
  4  5  2  0
  5  6  1  0
  6  9  2  0
  6  8  1  0
  7 11  1  0
  7 10  2  0
  9 10  1  0
  9 21  1  0
 11 13  1  0
 11 12  2  0
 12 14  1  0
 13 15  2  0
 14 16  2  0
 14 17  1  0
 15 16  1  0
 17 19  1  0
 17 18  1  0
 17 20  1  0
 22 23  1  0
 24 23  1  1
 24 26  1  0
 24 25  1  0
 25 27  1  0
 26 28  1  0
 27 29  1  0
 28 29  1  0
 29 31  1  0
 29 30  1  1
 31 32  1  6
 31 33  1  0
 33 34  2  3
 34 35  1  0
M  END
>  <vina_dock>  (133) 
-8.605

$$$$
O14757_PocketFlow_idx-in-all-generaetd-408
     RDKit          3D

 22 25  0  0  0  0  0  0  0  0999 V2000
    3.5220   -3.1270   44.5560 C   0  0  0  0  0  0  0  0  0  0  0  0
    3.3480   -4.1430   45.5090 C   0  0  0  0  0  0  0  0  0  0  0  0
    4.2880   -4.3550   46.5200 C   0  0  0  0  0  0  0  0  0  0  0  0
    5.4350   -3.5610   46.5900 C   0  0  0  0  0  0  0  0  0  0  0  0
    6.4310   -3.7240   47.7100 C   0  0  0  0  0  0  0  0  0  0  0  0
    7.9000   -3.4410   47.3050 C   0  0  2  0  0  0  0  0  0  0  0  0
    5.6280   -2.5420   45.6460 C   0  0  0  0  0  0  0  0  0  0  0  0
    4.6730   -2.3270   44.6450 C   0  0  0  0  0  0  0  0  0  0  0  0
    8.0680   -2.5770   46.0350 C   0  0  0  0  0  0  0  0  0  0  0  0
    6.8610   -1.6850   45.7550 C   0  0  0  0  0  0  0  0  0  0  0  0
    2.5250   -2.9030   43.4950 C   0  0  0  0  0  0  0  0  0  0  0  0
    2.7540   -1.9690   42.4710 C   0  0  0  0  0  0  0  0  0  0  0  0
    1.3160   -3.6180   43.4760 C   0  0  0  0  0  0  0  0  0  0  0  0
    1.8080   -1.7570   41.4650 C   0  0  0  0  0  0  0  0  0  0  0  0
    0.3680   -3.4060   42.4710 C   0  0  0  0  0  0  0  0  0  0  0  0
    0.6150   -2.4760   41.4650 C   0  0  0  0  0  0  0  0  0  0  0  0
    8.7220   -4.7200   47.1840 C   0  0  0  0  0  0  0  0  0  0  0  0
    9.7520   -4.8370   46.2390 C   0  0  0  0  0  0  0  0  0  0  0  0
    8.4650   -5.8030   48.0390 C   0  0  0  0  0  0  0  0  0  0  0  0
   10.5010   -6.0130   46.1440 C   0  0  0  0  0  0  0  0  0  0  0  0
    9.2140   -6.9770   47.9420 C   0  0  0  0  0  0  0  0  0  0  0  0
   10.2300   -7.0830   46.9940 C   0  0  0  0  0  0  0  0  0  0  0  0
  1 11  1  0
  1  8  1  0
  1  2  2  0
  2  3  1  0
  3  4  2  0
  4  7  1  0
  4  5  1  0
  5  6  1  0
  6  9  1  0
  6 17  1  6
  7  8  2  0
  7 10  1  0
  9 10  1  0
 11 12  2  0
 11 13  1  0
 12 14  1  0
 13 15  2  0
 14 16  2  0
 15 16  1  0
 17 18  2  0
 17 19  1  0
 18 20  1  0
 19 21  2  0
 20 22  2  0
 21 22  1  0
M  END
>  <vina_dock>  (134) 
-8.717

$$$$
O14757_PocketFlow_idx-in-all-generaetd-985
     RDKit          3D

 17 18  0  0  0  0  0  0  0  0999 V2000
    0.4700   -2.8890   41.9490 C   0  0  0  0  0  0  0  0  0  0  0  0
    1.5000   -2.0160   41.6020 C   0  0  0  0  0  0  0  0  0  0  0  0
    2.6650   -1.9520   42.3750 C   0  0  0  0  0  0  0  0  0  0  0  0
    2.8510   -2.7570   43.5230 C   0  0  0  0  0  0  0  0  0  0  0  0
    4.0170   -2.7190   44.3470 C   0  0  0  0  0  0  0  0  0  0  0  0
    4.1210   -3.6170   45.4260 C   0  0  0  0  0  0  0  0  0  0  0  0
    3.0890   -4.4980   45.7340 C   0  0  0  0  0  0  0  0  0  0  0  0
    1.9370   -4.5110   44.9560 C   0  0  0  0  0  0  0  0  0  0  0  0
    1.8050   -3.6600   43.8520 C   0  0  0  0  0  0  0  0  0  0  0  0
    0.6390   -3.7110   43.0690 C   0  0  0  0  0  0  0  0  0  0  0  0
   -0.7760   -2.9830   41.1080 C   0  0  0  0  0  0  0  0  0  0  0  0
   -1.8650   -2.2100   41.6910 N   0  0  0  0  0  0  0  0  0  0  0  0
    5.1720   -1.7770   44.0310 C   0  0  0  0  0  0  0  0  0  0  0  0
    6.1810   -1.5850   45.1340 C   0  0  0  0  0  0  0  0  0  0  0  0
    7.5110   -1.6120   44.9540 C   0  0  0  0  0  0  0  0  0  0  0  0
    8.5090   -1.4120   46.0580 C   0  0  0  0  0  0  0  0  0  0  0  0
    8.6800   -2.6750   46.8860 C   0  0  0  0  0  0  0  0  0  0  0  0
  1 11  1  0
  1  2  2  0
  1 10  1  0
  2  3  1  0
  3  4  2  0
  4  9  1  0
  4  5  1  0
  5 13  1  0
  5  6  2  0
  6  7  1  0
  7  8  2  0
  8  9  1  0
  9 10  2  0
 11 12  1  0
 13 14  1  0
 14 15  2  3
 15 16  1  0
 16 17  1  0
M  END
>  <vina_dock>  (135) 
-7.695

$$$$
O14757_PocketFlow_idx-in-all-generaetd-658
     RDKit          3D

 25 27  0  0  0  0  0  0  0  0999 V2000
    5.3180   -2.1560   45.0590 C   0  0  0  0  0  0  0  0  0  0  0  0
    5.7180   -1.2270   44.0900 C   0  0  0  0  0  0  0  0  0  0  0  0
    4.1090   -2.8410   44.8730 C   0  0  0  0  0  0  0  0  0  0  0  0
    3.3060   -2.6140   43.7450 C   0  0  0  0  0  0  0  0  0  0  0  0
    3.7320   -1.6840   42.7890 C   0  0  0  0  0  0  0  0  0  0  0  0
    4.9300   -0.9920   42.9620 C   0  0  0  0  0  0  0  0  0  0  0  0
    6.0790   -2.4520   46.2150 N   0  0  0  0  0  0  0  0  0  0  0  0
    5.4480   -3.4830   47.0470 C   0  0  0  0  0  0  0  0  0  0  0  0
    6.1240   -4.7670   47.1570 N   0  0  0  0  0  0  0  0  0  0  0  0
    7.4780   -2.7660   45.8490 C   0  0  0  0  0  0  0  0  0  0  0  0
    8.4100   -1.8960   46.6630 C   0  0  0  0  0  0  0  0  0  0  0  0
    8.4590   -0.6120   46.5140 N   0  0  0  0  0  0  0  0  0  0  0  0
    2.0170   -3.3790   43.5530 C   0  0  0  0  0  0  0  0  0  0  0  0
    2.0310   -4.7510   44.1880 C   0  0  0  0  0  0  0  0  0  0  0  0
    3.2370   -5.3400   44.5850 C   0  0  0  0  0  0  0  0  0  0  0  0
    0.8340   -5.4650   44.3680 C   0  0  0  0  0  0  0  0  0  0  0  0
    3.2460   -6.6120   45.1530 C   0  0  0  0  0  0  0  0  0  0  0  0
    0.8230   -6.7500   44.9380 C   0  0  0  0  0  0  0  0  0  0  0  0
    2.0500   -7.3110   45.3280 C   0  0  0  0  0  0  0  0  0  0  0  0
   -0.4380   -7.4880   45.1170 C   0  0  0  0  0  0  0  0  0  0  0  0
   -1.4380   -7.4610   44.1300 C   0  0  0  0  0  0  0  0  0  0  0  0
   -0.6780   -8.2390   46.2800 C   0  0  0  0  0  0  0  0  0  0  0  0
   -2.6360   -8.1610   44.2990 C   0  0  0  0  0  0  0  0  0  0  0  0
   -1.8750   -8.9400   46.4490 C   0  0  0  0  0  0  0  0  0  0  0  0
   -2.8530   -8.9010   45.4590 C   0  0  0  0  0  0  0  0  0  0  0  0
  1  2  2  0
  1  3  1  0
  1  7  1  0
  2  6  1  0
  3  4  2  0
  4  5  1  0
  4 13  1  0
  5  6  2  0
  7 10  1  0
  7  8  1  0
  8  9  1  0
 10 11  1  0
 11 12  2  3
 13 14  1  0
 14 16  1  0
 14 15  2  0
 15 17  1  0
 16 18  2  0
 17 19  2  0
 18 20  1  0
 18 19  1  0
 20 21  2  0
 20 22  1  0
 21 23  1  0
 22 24  2  0
 23 25  2  0
 24 25  1  0
M  END
>  <vina_dock>  (136) 
-8.75

$$$$
O14757_PocketFlow_idx-in-all-generaetd-557
     RDKit          3D

  6  6  0  0  0  0  0  0  0  0999 V2000
    3.4720   -2.2580   43.1430 C   0  0  0  0  0  0  0  0  0  0  0  0
    4.0900   -1.0500   42.8220 C   0  0  0  0  0  0  0  0  0  0  0  0
    4.0450   -3.1030   44.0930 C   0  0  0  0  0  0  0  0  0  0  0  0
    5.2360   -2.7410   44.7220 C   0  0  0  0  0  0  0  0  0  0  0  0
    5.8540   -1.5330   44.4010 C   0  0  0  0  0  0  0  0  0  0  0  0
    5.2820   -0.6870   43.4510 C   0  0  0  0  0  0  0  0  0  0  0  0
  1  2  2  0
  1  3  1  0
  2  6  1  0
  3  4  2  0
  4  5  1  0
  5  6  2  0
M  END
>  <vina_dock>  (137) 
-3.984

$$$$
O14757_PocketFlow_idx-in-all-generaetd-901
     RDKit          3D

  9  9  0  0  0  0  0  0  0  0999 V2000
    2.0250   -2.6100   42.5950 C   0  0  0  0  0  0  0  0  0  0  0  0
    3.3580   -2.1900   43.1700 C   0  0  0  0  0  0  0  0  0  0  0  0
    5.1900   -0.6010   43.3020 C   0  0  0  0  0  0  0  0  0  0  0  0
    3.9650   -0.9940   42.7610 C   0  0  0  0  0  0  0  0  0  0  0  0
    5.8170   -1.3950   44.2600 C   0  0  0  0  0  0  0  0  0  0  0  0
    5.2190   -2.5820   44.6810 C   0  0  0  0  0  0  0  0  0  0  0  0
    3.9940   -2.9770   44.1400 C   0  0  0  0  0  0  0  0  0  0  0  0
    1.4790   -1.7640   41.4740 C   0  0  0  0  0  0  0  0  0  0  0  0
    0.5620   -0.7890   41.5490 C   0  0  0  0  0  0  0  0  0  0  0  0
  1  8  1  0
  1  2  1  0
  2  4  2  0
  2  7  1  0
  3  4  1  0
  3  5  2  0
  5  6  1  0
  6  7  2  0
  8  9  2  0
M  END
>  <vina_dock>  (138) 
-5.367

$$$$
O14757_PocketFlow_idx-in-all-generaetd-523
     RDKit          3D

  9  9  0  0  0  0  0  0  0  0999 V2000
    3.2760   -5.8470   44.6570 C   0  0  0  0  0  0  0  0  0  0  0  0
    4.1230   -4.8010   44.2820 C   0  0  0  0  0  0  0  0  0  0  0  0
    1.8960   -5.6510   44.6850 C   0  0  0  0  0  0  0  0  0  0  0  0
    3.5940   -3.5530   43.9390 C   0  0  0  0  0  0  0  0  0  0  0  0
    2.2080   -3.3660   43.9630 C   0  0  0  0  0  0  0  0  0  0  0  0
    1.3610   -4.4100   44.3380 C   0  0  0  0  0  0  0  0  0  0  0  0
    4.4940   -2.4730   43.5320 C   0  0  0  0  0  0  0  0  0  0  0  0
    5.0740   -1.5880   44.3600 C   0  0  0  0  0  0  0  0  0  0  0  0
    4.9640   -1.5270   45.8510 C   0  0  0  0  0  0  0  0  0  0  0  0
  1  2  2  0
  1  3  1  0
  2  4  1  0
  3  6  2  0
  4  7  1  0
  4  5  2  0
  5  6  1  0
  7  8  2  3
  8  9  1  0
M  END
>  <vina_dock>  (139) 
-5.059

$$$$
O14757_PocketFlow_idx-in-all-generaetd-119
     RDKit          3D

 35 38  0  0  0  0  0  0  0  0999 V2000
   -0.0040   -6.8230   44.0600 C   0  0  0  0  0  0  0  0  0  0  0  0
   -1.1110   -7.3480   44.6130 C   0  0  0  0  0  0  0  0  0  0  0  0
    1.1620   -6.1820   44.7600 C   0  0  0  0  0  0  0  0  0  0  0  0
    1.1810   -4.7250   44.5720 N   0  0  0  0  0  0  0  0  0  0  0  0
    0.3640   -4.0510   45.5890 C   0  0  0  0  0  0  0  0  0  0  0  0
    0.7140   -4.3220   43.2320 C   0  0  0  0  0  0  0  0  0  0  0  0
    1.2770   -2.9930   42.7570 C   0  0  0  0  0  0  0  0  0  0  0  0
    7.1310   -1.9840   45.4060 C   0  0  0  0  0  0  0  0  0  0  0  0
    8.8350   -1.4200   45.9980 Br  0  0  0  0  0  0  0  0  0  0  0  0
    6.4220   -1.2070   44.4950 C   0  0  0  0  0  0  0  0  0  0  0  0
    6.5970   -3.1820   45.8830 C   0  0  0  0  0  0  0  0  0  0  0  0
    5.1630   -1.6390   44.0660 C   0  0  0  0  0  0  0  0  0  0  0  0
    5.3370   -3.6060   45.4480 C   0  0  0  0  0  0  0  0  0  0  0  0
    4.3890   -0.8360   43.0950 C   0  0  0  0  0  0  0  0  0  0  0  0
    4.5990   -2.8270   44.5520 C   0  0  0  0  0  0  0  0  0  0  0  0
    3.0450   -1.3120   42.6750 C   0  0  0  0  0  0  0  0  0  0  0  0
    4.8510    0.2100   42.6490 O   0  0  0  0  0  0  0  0  0  0  0  0
    3.3610   -3.2790   44.0650 N   0  0  0  0  0  0  0  0  0  0  0  0
    2.3010   -0.5400   41.7800 C   0  0  0  0  0  0  0  0  0  0  0  0
    2.5410   -2.5230   43.1960 C   0  0  0  0  0  0  0  0  0  0  0  0
    1.0480   -0.9800   41.3750 C   0  0  0  0  0  0  0  0  0  0  0  0
    0.5410   -2.1930   41.8520 C   0  0  0  0  0  0  0  0  0  0  0  0
   -1.0140   -2.6650   41.2530 Cl  0  0  0  0  0  0  0  0  0  0  0  0
   -1.4750   -7.3850   46.0740 C   0  0  0  0  0  0  0  0  0  0  0  0
   -1.5170   -8.7920   46.7290 C   0  0  2  0  0  0  0  0  0  0  0  0
   -1.9940   -8.7520   48.2040 C   0  0  2  0  0  0  0  0  0  0  0  0
   -0.1820   -9.5090   46.5000 C   0  0  0  0  0  0  0  0  0  0  0  0
   -2.4510   -9.5320   46.0300 F   0  0  0  0  0  0  0  0  0  0  0  0
   -1.6920  -10.0440   49.0080 C   0  0  1  0  0  0  0  0  0  0  0  0
    0.9450   -9.1040   47.4440 C   0  0  1  0  0  0  0  0  0  0  0  0
   -0.2450  -10.1290   49.4620 C   0  0  0  0  0  0  0  0  0  0  0  0
   -2.5920  -10.1440   50.2540 C   0  0  0  0  0  0  0  0  0  0  0  0
    0.8460   -9.6740   48.8260 C   0  0  0  0  0  0  0  0  0  0  0  0
   -3.4060   -8.4840   48.2370 O   0  0  0  0  0  0  0  0  0  0  0  0
    2.1600   -9.6070   46.8840 O   0  0  0  0  0  0  0  0  0  0  0  0
  1  2  2  3
  1  3  1  0
  2 24  1  0
  3  4  1  0
  4  6  1  0
  4  5  1  0
  6  7  1  0
  7 22  1  0
  7 20  2  0
  8 10  2  0
  8 11  1  0
  8  9  1  0
 10 12  1  0
 11 13  2  0
 12 14  1  0
 12 15  2  0
 13 15  1  0
 14 17  2  0
 14 16  1  0
 15 18  1  0
 16 19  2  0
 16 20  1  0
 18 20  1  0
 19 21  1  0
 21 22  2  0
 22 23  1  0
 24 25  1  0
 25 28  1  6
 25 27  1  0
 25 26  1  0
 26 34  1  6
 26 29  1  0
 27 30  1  0
 29 31  1  0
 29 32  1  1
 30 35  1  6
 30 33  1  0
 31 33  2  0
M  END
>  <vina_dock>  (140) 
-10.582

$$$$
O14757_PocketFlow_idx-in-all-generaetd-757
     RDKit          3D

 17 18  0  0  0  0  0  0  0  0999 V2000
   -0.0410   -3.3930   42.4490 N   0  0  0  0  0  0  0  0  0  0  0  0
    1.2630   -2.9570   42.6910 C   0  0  0  0  0  0  0  0  0  0  0  0
    1.9620   -3.5120   43.7750 C   0  0  0  0  0  0  0  0  0  0  0  0
    1.8660   -1.8990   42.0070 C   0  0  0  0  0  0  0  0  0  0  0  0
    3.2540   -3.0810   44.1330 C   0  0  0  0  0  0  0  0  0  0  0  0
    3.1500   -1.4560   42.3450 C   0  0  0  0  0  0  0  0  0  0  0  0
    3.9530   -3.6610   45.2070 C   0  0  0  0  0  0  0  0  0  0  0  0
    3.8580   -2.0420   43.4040 C   0  0  0  0  0  0  0  0  0  0  0  0
    5.2480   -3.2380   45.5630 C   0  0  0  0  0  0  0  0  0  0  0  0
    5.1450   -1.6150   43.7700 C   0  0  0  0  0  0  0  0  0  0  0  0
    5.8390   -2.1960   44.8350 C   0  0  0  0  0  0  0  0  0  0  0  0
    5.7180   -0.6150   43.0740 F   0  0  0  0  0  0  0  0  0  0  0  0
    7.4210   -1.5920   45.2120 Cl  0  0  0  0  0  0  0  0  0  0  0  0
    5.9030   -3.8150   46.6370 N   0  0  0  0  0  0  0  0  0  0  0  0
    5.3280   -3.6250   47.7160 O   0  0  0  0  0  0  0  0  0  0  0  0
   -0.7730   -2.9090   41.3070 C   0  0  0  0  0  0  0  0  0  0  0  0
   -1.9560   -2.1430   41.6360 N   0  0  0  0  0  0  0  0  0  0  0  0
  1 16  1  0
  1  2  1  0
  2  4  2  0
  2  3  1  0
  3  5  2  0
  4  6  1  0
  5  8  1  0
  5  7  1  0
  6  8  2  0
  7  9  2  0
  8 10  1  0
  9 11  1  0
  9 14  1  0
 10 12  1  0
 10 11  2  0
 11 13  1  0
 14 15  1  0
 16 17  1  0
M  END
>  <vina_dock>  (141) 
-7.966

$$$$
O14757_PocketFlow_idx-in-all-generaetd-393
     RDKit          3D

 35 40  0  0  0  0  0  0  0  0999 V2000
    1.0970   -3.2510   42.7770 C   0  0  0  0  0  0  0  0  0  0  0  0
    2.3220   -2.5740   42.7770 C   0  0  0  0  0  0  0  0  0  0  0  0
    3.2020   -2.6870   43.8680 C   0  0  0  0  0  0  0  0  0  0  0  0
    0.7440   -4.0390   43.8770 C   0  0  0  0  0  0  0  0  0  0  0  0
    2.8440   -3.4800   44.9690 C   0  0  0  0  0  0  0  0  0  0  0  0
    1.6090   -4.1480   44.9670 C   0  0  0  0  0  0  0  0  0  0  0  0
    4.4980   -1.9140   43.8570 C   0  0  0  0  0  0  0  0  0  0  0  0
    5.5220   -2.3510   44.8760 C   0  0  0  0  0  0  0  0  0  0  0  0
    5.1680   -3.1450   45.9670 C   0  0  0  0  0  0  0  0  0  0  0  0
    3.7470   -3.5980   46.1740 C   0  0  0  0  0  0  0  0  0  0  0  0
    6.7810   -1.8780   44.6910 N   0  0  0  0  0  0  0  0  0  0  0  0
    6.1750   -3.4660   46.8920 C   0  0  0  0  0  0  0  0  0  0  0  0
    7.4770   -2.9860   46.7320 C   0  0  0  0  0  0  0  0  0  0  0  0
    7.7140   -2.1980   45.6150 C   0  0  0  0  0  0  0  0  0  0  0  0
    8.5380   -3.2100   47.7130 C   0  0  0  0  0  0  0  0  0  0  0  0
    8.6860   -4.3240   48.4460 C   0  0  0  0  0  0  0  0  0  0  0  0
    7.8390   -5.5310   48.3690 C   0  0  0  0  0  0  0  0  0  0  0  0
    8.3780   -6.8330   48.5490 C   0  0  0  0  0  0  0  0  0  0  0  0
    7.4990   -7.9430   48.5260 C   0  0  0  0  0  0  0  0  0  0  0  0
    6.1280   -7.7870   48.3390 C   0  0  0  0  0  0  0  0  0  0  0  0
    5.6030   -6.5160   48.1650 C   0  0  0  0  0  0  0  0  0  0  0  0
    6.4490   -5.4020   48.1600 C   0  0  0  0  0  0  0  0  0  0  0  0
    5.8160   -4.1830   48.0160 O   0  0  0  0  0  0  0  0  0  0  0  0
    0.1440   -3.1590   41.6450 C   0  0  0  0  0  0  0  0  0  0  0  0
    0.3580   -3.5210   40.5020 O   0  0  0  0  0  0  0  0  0  0  0  0
   -1.0350   -2.6170   41.9970 O   0  0  0  0  0  0  0  0  0  0  0  0
    9.8590   -7.1520   48.7940 C   0  0  1  0  0  0  0  0  0  0  0  0
    9.9990   -8.4850   49.3660 N   0  0  0  0  0  0  0  0  0  0  0  0
   10.6850   -6.9260   47.5230 C   0  0  0  0  0  0  0  0  0  0  0  0
   11.1640   -9.1090   49.6940 C   0  0  0  0  0  0  0  0  0  0  0  0
   12.1770   -6.7360   47.8330 C   0  0  1  0  0  0  0  0  0  0  0  0
   12.3920   -8.9510   49.2000 C   0  0  0  0  0  0  0  0  0  0  0  0
   12.9030   -8.0570   48.1150 C   0  0  0  0  0  0  0  0  0  0  0  0
   12.8640   -6.0290   46.6560 C   0  0  0  0  0  0  0  0  0  0  0  0
   10.9990  -10.0990   50.6290 O   0  0  0  0  0  0  0  0  0  0  0  0
  1 24  1  0
  1  2  2  0
  1  4  1  0
  2  3  1  0
  3  7  2  0
  3  5  1  0
  4  6  2  0
  5  6  1  0
  5 10  2  0
  7  8  1  0
  8 11  2  0
  8  9  1  0
  9 10  1  0
  9 12  2  0
 11 14  1  0
 12 13  1  0
 12 23  1  0
 13 14  2  0
 13 15  1  0
 15 16  2  0
 16 17  1  0
 17 22  2  0
 17 18  1  0
 18 19  2  0
 27 18  1  6
 19 20  1  0
 20 21  2  0
 21 22  1  0
 22 23  1  0
 24 25  2  0
 24 26  1  0
 27 29  1  0
 27 28  1  0
 28 30  1  0
 29 31  1  0
 30 32  2  0
 30 35  1  0
 31 34  1  6
 31 33  1  0
 32 33  1  0
M  END
>  <vina_dock>  (142) 
-9.266

$$$$
O14757_PocketFlow_idx-in-all-generaetd-622
     RDKit          3D

 35 39  0  0  0  0  0  0  0  0999 V2000
    0.8560   -2.4530   42.0970 C   0  0  0  0  0  0  0  0  0  0  0  0
    1.4720   -1.3910   41.4410 C   0  0  0  0  0  0  0  0  0  0  0  0
    1.4590   -3.0420   43.1500 N   0  0  0  0  0  0  0  0  0  0  0  0
    2.6840   -2.5760   43.5070 C   0  0  0  0  0  0  0  0  0  0  0  0
    3.4020   -3.2480   44.6320 C   0  0  0  0  0  0  0  0  0  0  0  0
    3.1140   -4.4260   45.2260 C   0  0  0  0  0  0  0  0  0  0  0  0
    3.2920   -1.4990   42.8210 C   0  0  0  0  0  0  0  0  0  0  0  0
    2.6930   -0.9020   41.7710 N   0  0  0  0  0  0  0  0  0  0  0  0
    4.5150   -0.9510   43.1970 N   0  0  0  0  0  0  0  0  0  0  0  0
    4.6260   -2.4730   45.1070 C   0  0  0  0  0  0  0  0  0  0  0  0
    5.3990   -1.8570   43.9220 C   0  0  2  0  0  0  0  0  0  0  0  0
   -0.4080   -2.9430   41.7650 N   0  0  0  0  0  0  0  0  0  0  0  0
   -1.5460   -2.3160   41.2280 C   0  0  0  0  0  0  0  0  0  0  0  0
   -2.8890   -0.3040   41.0510 C   0  0  0  0  0  0  0  0  0  0  0  0
   -3.1050    0.9700   41.4000 F   0  0  0  0  0  0  0  0  0  0  0  0
   -1.7950   -0.9820   41.5790 C   0  0  0  0  0  0  0  0  0  0  0  0
   -3.7590   -0.9270   40.1660 C   0  0  0  0  0  0  0  0  0  0  0  0
   -3.5280   -2.2500   39.8060 C   0  0  0  0  0  0  0  0  0  0  0  0
   -2.4270   -2.9370   40.3330 C   0  0  0  0  0  0  0  0  0  0  0  0
    2.0630   -5.3750   44.9250 C   0  0  0  0  0  0  0  0  0  0  0  0
    0.9600   -5.4990   45.6820 C   0  0  0  0  0  0  0  0  0  0  0  0
   -0.1270   -6.4590   45.4200 C   0  0  0  0  0  0  0  0  0  0  0  0
   -0.8220   -7.0580   46.4830 C   0  0  0  0  0  0  0  0  0  0  0  0
   -0.5390   -6.7550   44.1110 C   0  0  0  0  0  0  0  0  0  0  0  0
   -1.8730   -7.9500   46.2510 C   0  0  0  0  0  0  0  0  0  0  0  0
   -1.5890   -7.6450   43.8740 C   0  0  0  0  0  0  0  0  0  0  0  0
   -2.2530   -8.2450   44.9410 C   0  0  0  0  0  0  0  0  0  0  0  0
   -0.4610   -6.7690   47.7730 O   0  0  0  0  0  0  0  0  0  0  0  0
    6.6960   -1.1380   44.3580 C   0  0  0  0  0  0  0  0  0  0  0  0
    7.5210   -1.8160   45.4290 C   0  0  0  0  0  0  0  0  0  0  0  0
    8.5270   -1.1080   46.1020 C   0  0  0  0  0  0  0  0  0  0  0  0
    7.2960   -3.1570   45.7730 C   0  0  0  0  0  0  0  0  0  0  0  0
    9.2930   -1.7270   47.0900 C   0  0  0  0  0  0  0  0  0  0  0  0
    8.0650   -3.7760   46.7590 C   0  0  0  0  0  0  0  0  0  0  0  0
    9.0640   -3.0600   47.4180 C   0  0  0  0  0  0  0  0  0  0  0  0
  1  2  2  0
  1 12  1  0
  1  3  1  0
  2  8  1  0
  3  4  2  0
  4  7  1  0
  4  5  1  0
  5 10  1  0
  5  6  2  3
  6 20  1  0
  7  8  2  0
  7  9  1  0
  9 11  1  0
 10 11  1  0
 11 29  1  1
 12 13  1  0
 13 19  1  0
 13 16  2  0
 14 17  2  0
 14 15  1  0
 14 16  1  0
 17 18  1  0
 18 19  2  0
 20 21  2  3
 21 22  1  0
 22 24  1  0
 22 23  2  0
 23 25  1  0
 23 28  1  0
 24 26  2  0
 25 27  2  0
 26 27  1  0
 29 30  1  0
 30 32  1  0
 30 31  2  0
 31 33  1  0
 32 34  2  0
 33 35  2  0
 34 35  1  0
M  END
>  <vina_dock>  (143) 
-10.779

$$$$
O14757_PocketFlow_idx-in-all-generaetd-308
     RDKit          3D

 15 16  0  0  0  0  0  0  0  0999 V2000
    1.8700   -5.9790   44.6340 C   0  0  0  0  0  0  0  0  0  0  0  0
    3.0300   -5.2040   44.7660 C   0  0  0  0  0  0  0  0  0  0  0  0
    3.0750   -3.8870   44.2950 C   0  0  0  0  0  0  0  0  0  0  0  0
    1.9240   -3.3820   43.6750 C   0  0  0  0  0  0  0  0  0  0  0  0
    0.7060   -5.4620   44.0520 C   0  0  0  0  0  0  0  0  0  0  0  0
    0.7670   -4.1620   43.5430 C   0  0  0  0  0  0  0  0  0  0  0  0
   -0.3930   -6.3120   43.8920 N   0  0  0  0  0  0  0  0  0  0  0  0
   -0.7430   -7.2420   44.9590 C   0  0  0  0  0  0  0  0  0  0  0  0
   -2.0660   -7.9170   44.6310 C   0  0  0  0  0  0  0  0  0  0  0  0
    4.2900   -3.0680   44.4300 C   0  0  0  0  0  0  0  0  0  0  0  0
    4.4690   -1.9050   43.6620 C   0  0  0  0  0  0  0  0  0  0  0  0
    5.3070   -3.4230   45.3320 C   0  0  0  0  0  0  0  0  0  0  0  0
    5.6220   -1.1270   43.7900 C   0  0  0  0  0  0  0  0  0  0  0  0
    6.4610   -2.6460   45.4620 C   0  0  0  0  0  0  0  0  0  0  0  0
    6.6180   -1.4970   44.6900 C   0  0  0  0  0  0  0  0  0  0  0  0
  1  5  2  0
  1  2  1  0
  2  3  2  0
  3  4  1  0
  3 10  1  0
  4  6  2  0
  5  6  1  0
  5  7  1  0
  7  8  1  0
  8  9  1  0
 10 11  2  0
 10 12  1  0
 11 13  1  0
 12 14  2  0
 13 15  2  0
 14 15  1  0
M  END
>  <vina_dock>  (144) 
-7.442

$$$$
O14757_PocketFlow_idx-in-all-generaetd-836
     RDKit          3D

 31 33  0  0  0  0  0  0  0  0999 V2000
   -0.3920   -6.0870   45.1620 C   0  0  1  0  0  0  0  0  0  0  0  0
   -0.4020   -7.5040   44.5600 C   0  0  0  0  0  0  0  0  0  0  0  0
   -0.6560   -6.0900   46.6830 C   0  0  0  0  0  0  0  0  0  0  0  0
   -0.3980   -7.4560   47.3220 C   0  0  0  0  0  0  0  0  0  0  0  0
   -1.2850   -8.5990   46.7200 C   0  0  2  0  0  0  0  0  0  0  0  0
   -1.5100   -8.3430   45.1950 C   0  0  0  0  0  0  0  0  0  0  0  0
    0.8720   -5.3310   44.7850 C   0  0  0  0  0  0  0  0  0  0  0  0
    3.1930   -3.8790   44.0810 C   0  0  0  0  0  0  0  0  0  0  0  0
    1.9220   -3.3550   43.8240 C   0  0  0  0  0  0  0  0  0  0  0  0
    3.2970   -5.1370   44.6850 C   0  0  0  0  0  0  0  0  0  0  0  0
    0.7750   -4.0730   44.1730 C   0  0  0  0  0  0  0  0  0  0  0  0
    2.1480   -5.8530   45.0350 C   0  0  0  0  0  0  0  0  0  0  0  0
    4.4320   -3.1160   43.6860 C   0  0  0  0  0  0  0  0  0  0  0  0
    4.7940   -2.0540   44.7300 C   0  0  0  0  0  0  0  0  0  0  0  0
    5.8530   -2.5480   45.6800 C   0  0  0  0  0  0  0  0  0  0  0  0
    6.5390   -3.8100   47.6250 C   0  0  0  0  0  0  0  0  0  0  0  0
    5.5260   -3.3490   46.7810 C   0  0  0  0  0  0  0  0  0  0  0  0
    7.8490   -3.4680   47.3170 C   0  0  0  0  0  0  0  0  0  0  0  0
    8.2000   -2.6940   46.2590 N   0  0  0  0  0  0  0  0  0  0  0  0
    7.1970   -2.2540   45.4690 C   0  0  0  0  0  0  0  0  0  0  0  0
    6.2910   -4.6610   48.8100 C   0  0  0  0  0  0  0  0  0  0  0  0
    5.5590   -5.6410   48.7540 O   0  0  0  0  0  0  0  0  0  0  0  0
    6.9340   -4.3380   49.9740 N   0  0  0  0  0  0  0  0  0  0  0  0
   -2.6850   -8.5860   47.4070 C   0  0  0  0  0  0  0  0  0  0  0  0
   -2.7820   -9.2820   48.7630 C   0  0  0  0  0  0  0  0  0  0  0  0
   -0.5090   -9.9140   46.8700 C   0  0  0  0  0  0  0  0  0  0  0  0
    0.8030  -10.2020   46.7890 C   0  0  0  0  0  0  0  0  0  0  0  0
    1.9820   -9.3310   46.4860 C   0  0  0  0  0  0  0  0  0  0  0  0
    3.1780   -9.9570   47.0270 N   0  0  0  0  0  0  0  0  0  0  0  0
    4.1710   -9.2060   47.3160 C   0  0  0  0  0  0  0  0  0  0  0  0
    4.3240   -7.8570   47.2150 N   0  0  0  0  0  0  0  0  0  0  0  0
  1  2  1  0
  1  7  1  1
  1  3  1  0
  2  6  1  0
  3  4  1  0
  4  5  1  0
  5  6  1  0
  5 26  1  0
  5 24  1  1
  7 11  2  0
  7 12  1  0
  8 13  1  0
  8  9  2  0
  8 10  1  0
  9 11  1  0
 10 12  2  0
 13 14  1  0
 14 15  1  0
 15 20  2  0
 15 17  1  0
 16 17  2  0
 16 18  1  0
 16 21  1  0
 18 19  2  0
 19 20  1  0
 21 22  2  0
 21 23  1  0
 24 25  1  0
 26 27  2  3
 27 28  1  0
 28 29  1  0
 29 30  2  3
 30 31  1  0
M  END
>  <vina_dock>  (145) 
-7.887

$$$$
O14757_PocketFlow_idx-in-all-generaetd-646
     RDKit          3D

 35 39  0  0  0  0  0  0  0  0999 V2000
   10.7750   -2.2430   48.7890 C   0  0  0  0  0  0  0  0  0  0  0  0
   11.6510   -1.1530   48.9450 C   0  0  0  0  0  0  0  0  0  0  0  0
   12.7170   -1.1920   49.8580 C   0  0  0  0  0  0  0  0  0  0  0  0
   11.0000   -3.3870   49.5720 C   0  0  0  0  0  0  0  0  0  0  0  0
   12.0620   -3.4440   50.4770 C   0  0  0  0  0  0  0  0  0  0  0  0
   12.9180   -2.3530   50.6170 C   0  0  0  0  0  0  0  0  0  0  0  0
    9.6560   -2.1860   47.8340 C   0  0  0  0  0  0  0  0  0  0  0  0
    5.5880   -3.2910   44.8290 C   0  0  2  0  0  0  0  0  0  0  0  0
    5.2220   -3.8610   46.2010 C   0  0  0  0  0  0  0  0  0  0  0  0
    6.3750   -1.9820   44.9980 C   0  0  0  0  0  0  0  0  0  0  0  0
    6.4830   -4.1980   47.0130 C   0  0  1  0  0  0  0  0  0  0  0  0
    7.5030   -2.0910   45.9940 C   0  0  0  0  0  0  0  0  0  0  0  0
    7.5420   -3.1070   46.9660 C   0  0  0  0  0  0  0  0  0  0  0  0
    8.5110   -1.1170   45.9740 C   0  0  0  0  0  0  0  0  0  0  0  0
    8.6350   -3.1520   47.8550 C   0  0  0  0  0  0  0  0  0  0  0  0
    9.5700   -1.1650   46.8810 C   0  0  0  0  0  0  0  0  0  0  0  0
    4.3730   -3.1040   43.9440 C   0  0  0  0  0  0  0  0  0  0  0  0
    2.1360   -1.6900   42.1570 C   0  0  0  0  0  0  0  0  0  0  0  0
    3.4910   -1.2940   42.4110 C   0  0  0  0  0  0  0  0  0  0  0  0
    1.2710   -1.1890   41.2790 C   0  0  0  0  0  0  0  0  0  0  0  0
    1.3250   -2.7430   42.8340 C   0  0  0  0  0  0  0  0  0  0  0  0
    4.1780   -2.0600   43.1950 C   0  0  0  0  0  0  0  0  0  0  0  0
   -0.0440   -1.8670   41.3560 C   0  0  1  0  0  0  0  0  0  0  0  0
    0.0950   -2.8790   42.4120 N   0  0  0  0  0  0  0  0  0  0  0  0
    1.8830   -3.5850   43.9490 C   0  0  0  0  0  0  0  0  0  0  0  0
   -1.0120   -0.9870   41.7150 F   0  0  0  0  0  0  0  0  0  0  0  0
    1.0470   -3.8260   44.9740 C   0  0  0  0  0  0  0  0  0  0  0  0
    3.2840   -4.1650   43.8930 C   0  0  0  0  0  0  0  0  0  0  0  0
    6.0230   -4.5290   48.4200 C   0  0  0  0  0  0  0  0  0  0  0  0
    6.0080   -3.7850   49.3910 O   0  0  0  0  0  0  0  0  0  0  0  0
    5.5470   -5.7870   48.5270 O   0  0  0  0  0  0  0  0  0  0  0  0
   13.6530   -0.0160   50.0010 C   0  0  0  0  0  0  0  0  0  0  0  0
   13.1570    1.1000   49.2150 N   0  0  0  0  0  0  0  0  0  0  0  0
   13.7220    1.5860   48.0630 C   0  0  0  0  0  0  0  0  0  0  0  0
   13.2470    1.5340   46.8160 C   0  0  0  0  0  0  0  0  0  0  0  0
  1  7  1  0
  1  2  2  0
  1  4  1  0
  2  3  1  0
  3 32  1  0
  3  6  2  0
  4  5  2  0
  5  6  1  0
  7 16  1  0
  7 15  2  0
  8 17  1  6
  8 10  1  0
  8  9  1  0
  9 11  1  0
 10 12  1  0
 11 13  1  0
 11 29  1  1
 12 14  1  0
 12 13  2  0
 13 15  1  0
 14 16  2  0
 17 22  2  0
 17 28  1  0
 18 20  1  0
 18 19  2  0
 18 21  1  0
 19 22  1  0
 20 23  1  0
 21 24  2  0
 21 25  1  0
 23 26  1  1
 23 24  1  0
 25 28  1  0
 25 27  2  0
 29 31  1  0
 29 30  2  0
 32 33  1  0
 33 34  1  0
 34 35  2  0
M  END
>  <vina_dock>  (146) 
-9.188

$$$$
O14757_PocketFlow_idx-in-all-generaetd-984
     RDKit          3D

 12 12  0  0  0  0  0  0  0  0999 V2000
    2.0390   -4.0540   44.6210 C   0  0  0  0  0  0  0  0  0  0  0  0
    3.2740   -4.0960   43.9230 O   0  0  0  0  0  0  0  0  0  0  0  0
    3.9860   -2.9370   43.7940 C   0  0  0  0  0  0  0  0  0  0  0  0
    5.1420   -2.8810   44.5790 C   0  0  0  0  0  0  0  0  0  0  0  0
    3.6600   -1.8510   42.9790 C   0  0  0  0  0  0  0  0  0  0  0  0
    5.9620   -1.7540   44.5430 C   0  0  0  0  0  0  0  0  0  0  0  0
    4.4860   -0.7220   42.9470 C   0  0  0  0  0  0  0  0  0  0  0  0
    7.3830   -1.6990   45.5120 Cl  0  0  0  0  0  0  0  0  0  0  0  0
    5.6400   -0.6730   43.7290 C   0  0  0  0  0  0  0  0  0  0  0  0
    0.7990   -4.0210   43.7450 C   0  0  0  0  0  0  0  0  0  0  0  0
    0.3880   -3.0520   43.1260 O   0  0  0  0  0  0  0  0  0  0  0  0
    0.1240   -5.1880   43.7170 O   0  0  0  0  0  0  0  0  0  0  0  0
  1 10  1  0
  1  2  1  0
  2  3  1  0
  3  5  2  0
  3  4  1  0
  4  6  2  0
  5  7  1  0
  6  9  1  0
  6  8  1  0
  7  9  2  0
 10 11  2  0
 10 12  1  0
M  END
>  <vina_dock>  (147) 
-5.617

$$$$
O14757_PocketFlow_idx-in-all-generaetd-112
     RDKit          3D

 28 30  0  0  0  0  0  0  0  0999 V2000
    4.9790   -2.6290   44.6930 C   0  0  0  0  0  0  0  0  0  0  0  0
    5.1770   -3.5390   45.7280 C   0  0  0  0  0  0  0  0  0  0  0  0
    4.1880   -4.4750   46.0300 C   0  0  0  0  0  0  0  0  0  0  0  0
    2.9890   -4.5210   45.3010 C   0  0  0  0  0  0  0  0  0  0  0  0
    2.7670   -3.6080   44.2410 C   0  0  0  0  0  0  0  0  0  0  0  0
    3.7880   -2.6700   43.9580 C   0  0  0  0  0  0  0  0  0  0  0  0
    1.5400   -3.6840   43.5260 C   0  0  0  0  0  0  0  0  0  0  0  0
    0.5840   -4.6600   43.8770 C   0  0  0  0  0  0  0  0  0  0  0  0
    0.8010   -5.5640   44.9240 C   0  0  0  0  0  0  0  0  0  0  0  0
    2.0110   -5.4760   45.6240 C   0  0  0  0  0  0  0  0  0  0  0  0
    6.0060   -1.6390   44.3630 C   0  0  0  0  0  0  0  0  0  0  0  0
    7.1830   -1.5130   44.9990 C   0  0  0  0  0  0  0  0  0  0  0  0
    7.6670   -2.3040   46.1810 C   0  0  0  0  0  0  0  0  0  0  0  0
    8.8670   -1.6610   46.8150 C   0  0  0  0  0  0  0  0  0  0  0  0
    9.9100   -1.1920   46.1240 C   0  0  0  0  0  0  0  0  0  0  0  0
   11.0260   -0.5970   46.6480 N   0  0  0  0  0  0  0  0  0  0  0  0
    1.2130   -2.7750   42.3570 C   0  0  0  0  0  0  0  0  0  0  0  0
    0.0270   -3.3010   41.5530 C   0  0  0  0  0  0  0  0  0  0  0  0
   -1.0010   -2.2190   41.2980 C   0  0  0  0  0  0  0  0  0  0  0  0
   -2.1480   -2.7010   40.7030 N   0  0  0  0  0  0  0  0  0  0  0  0
   -0.8320   -1.0380   41.5840 O   0  0  0  0  0  0  0  0  0  0  0  0
   -3.2770   -1.8390   40.4600 C   0  0  0  0  0  0  0  0  0  0  0  0
   -0.2100   -6.5740   45.2760 C   0  0  0  0  0  0  0  0  0  0  0  0
   -0.9990   -7.1850   44.2870 C   0  0  0  0  0  0  0  0  0  0  0  0
   -0.4170   -6.9560   46.6120 C   0  0  0  0  0  0  0  0  0  0  0  0
   -1.9610   -8.1420   44.6210 C   0  0  0  0  0  0  0  0  0  0  0  0
   -1.3780   -7.9150   46.9480 C   0  0  0  0  0  0  0  0  0  0  0  0
   -2.1490   -8.5070   45.9510 C   0  0  0  0  0  0  0  0  0  0  0  0
  1  6  2  0
  1 11  1  0
  1  2  1  0
  2  3  2  0
  3  4  1  0
  4  5  2  0
  4 10  1  0
  5  7  1  0
  5  6  1  0
  7 17  1  0
  7  8  2  0
  8  9  1  0
  9 23  1  0
  9 10  2  0
 11 12  2  3
 12 13  1  0
 13 14  1  0
 14 15  2  3
 15 16  1  0
 17 18  1  0
 18 19  1  0
 19 20  1  0
 19 21  2  0
 20 22  1  0
 23 24  2  0
 23 25  1  0
 24 26  1  0
 25 27  2  0
 26 28  2  0
 27 28  1  0
M  END
>  <vina_dock>  (148) 
-9.723

$$$$
O14757_PocketFlow_idx-in-all-generaetd-93
     RDKit          3D

 14 14  0  0  0  0  0  0  0  0999 V2000
    0.5350   -6.6520   45.2340 C   0  0  0  0  0  0  0  0  0  0  0  0
    0.4720   -5.2390   45.4050 O   0  0  0  0  0  0  0  0  0  0  0  0
    1.5490   -4.5080   44.9800 C   0  0  0  0  0  0  0  0  0  0  0  0
    1.3150   -3.7270   43.8400 C   0  0  0  0  0  0  0  0  0  0  0  0
    2.8130   -4.4850   45.5730 C   0  0  0  0  0  0  0  0  0  0  0  0
    2.3220   -2.9320   43.2970 C   0  0  0  0  0  0  0  0  0  0  0  0
    3.8260   -3.6850   45.0270 C   0  0  0  0  0  0  0  0  0  0  0  0
    2.0750   -2.1920   42.2040 F   0  0  0  0  0  0  0  0  0  0  0  0
    3.5800   -2.9120   43.8920 C   0  0  0  0  0  0  0  0  0  0  0  0
    4.8460   -1.9400   43.2440 Cl  0  0  0  0  0  0  0  0  0  0  0  0
    0.0770   -3.7430   43.2490 O   0  0  0  0  0  0  0  0  0  0  0  0
   -0.6320   -7.1070   44.3790 C   0  0  0  0  0  0  0  0  0  0  0  0
   -1.5770   -7.8010   44.7160 O   0  0  0  0  0  0  0  0  0  0  0  0
   -0.5410   -6.6520   43.1110 O   0  0  0  0  0  0  0  0  0  0  0  0
  1 12  1  0
  1  2  1  0
  2  3  1  0
  3  4  2  0
  3  5  1  0
  4 11  1  0
  4  6  1  0
  5  7  2  0
  6  8  1  0
  6  9  2  0
  7  9  1  0
  9 10  1  0
 12 14  1  0
 12 13  2  0
M  END
>  <vina_dock>  (149) 
-5.809

$$$$
O14757_PocketFlow_idx-in-all-generaetd-692
     RDKit          3D

 29 32  0  0  0  0  0  0  0  0999 V2000
    0.1580   -2.6080   40.8750 C   0  0  2  0  0  0  0  0  0  0  0  0
    0.7530   -3.7270   40.3420 F   0  0  0  0  0  0  0  0  0  0  0  0
    1.0370   -2.1420   42.0580 C   0  0  1  0  0  0  0  0  0  0  0  0
    0.9190   -3.7720   44.0820 C   0  0  0  0  0  0  0  0  0  0  0  0
    0.4150   -2.5130   43.4310 C   0  0  0  0  0  0  0  0  0  0  0  0
    1.9370   -3.7000   45.0250 C   0  0  0  0  0  0  0  0  0  0  0  0
    0.4210   -4.9480   43.6600 N   0  0  0  0  0  0  0  0  0  0  0  0
    2.5830   -4.8780   45.4330 C   0  0  0  0  0  0  0  0  0  0  0  0
    1.0210   -6.0730   44.1380 C   0  0  0  0  0  0  0  0  0  0  0  0
    2.5350   -2.4810   41.8630 C   0  0  0  0  0  0  0  0  0  0  0  0
    3.7270   -4.9010   46.2350 C   0  0  0  0  0  0  0  0  0  0  0  0
    2.1080   -6.1140   44.9980 C   0  0  0  0  0  0  0  0  0  0  0  0
    3.4450   -1.8670   42.8970 C   0  0  0  0  0  0  0  0  0  0  0  0
    4.4840   -3.6250   46.8150 C   0  0  2  0  0  0  0  0  0  0  0  0
    4.2830   -6.0830   46.6000 N   0  0  0  0  0  0  0  0  0  0  0  0
    2.6630   -7.2770   45.3670 N   0  0  0  0  0  0  0  0  0  0  0  0
    4.4430   -2.5340   43.5110 C   0  0  0  0  0  0  0  0  0  0  0  0
    5.4570   -2.9300   45.8390 C   0  0  0  0  0  0  0  0  0  0  0  0
    5.7500   -3.8590   47.6960 C   0  0  0  0  0  0  0  0  0  0  0  0
    3.7390   -7.2110   46.1440 C   0  0  0  0  0  0  0  0  0  0  0  0
    5.2980   -1.9660   44.6070 C   0  0  2  0  0  0  0  0  0  0  0  0
    6.5400   -3.3610   46.5210 C   0  0  0  0  0  0  0  0  0  0  0  0
    4.7540   -0.7990   45.0650 F   0  0  0  0  0  0  0  0  0  0  0  0
    4.3110   -8.3990   46.5420 N   0  0  0  0  0  0  0  0  0  0  0  0
    7.9600   -3.0900   46.2370 C   0  0  0  0  0  0  0  0  0  0  0  0
    8.6850   -4.2380   46.1410 N   0  0  0  0  0  0  0  0  0  0  0  0
    8.4930   -1.9990   46.0840 O   0  0  0  0  0  0  0  0  0  0  0  0
   -1.3200   -2.9600   41.1160 C   0  0  0  0  0  0  0  0  0  0  0  0
   -2.1990   -1.7960   41.2680 N   0  0  0  0  0  0  0  0  0  0  0  0
  1  2  1  1
  1 28  1  0
  1  3  1  0
  3 10  1  6
  3  5  1  0
  4  5  1  0
  4  7  2  0
  4  6  1  0
  6  8  2  0
  7  9  1  0
  8 12  1  0
  8 11  1  0
  9 12  2  0
 10 13  1  0
 11 15  1  0
 11 14  1  0
 12 16  1  0
 13 17  2  3
 14 18  1  0
 14 19  1  1
 15 20  2  0
 16 20  1  0
 17 21  1  0
 18 21  1  0
 18 22  2  0
 19 22  1  0
 20 24  1  0
 21 23  1  1
 22 25  1  0
 25 27  2  0
 25 26  1  0
 28 29  1  0
M  END
>  <vina_dock>  (150) 
-7.729

$$$$
O14757_PocketFlow_idx-in-all-generaetd-851
     RDKit          3D

 17 17  0  0  0  0  0  0  0  0999 V2000
    3.2440   -5.3530   44.7170 C   0  0  0  0  0  0  0  0  0  0  0  0
    1.9680   -5.5380   45.1110 C   0  0  0  0  0  0  0  0  0  0  0  0
    1.1270   -4.4970   45.8040 C   0  0  0  0  0  0  0  0  0  0  0  0
    4.0030   -4.1080   44.8530 C   0  0  0  0  0  0  0  0  0  0  0  0
    4.5320   -1.8800   44.0550 C   0  0  0  0  0  0  0  0  0  0  0  0
    5.4380   -1.7200   45.1130 C   0  0  0  0  0  0  0  0  0  0  0  0
    3.8140   -3.0760   43.9280 C   0  0  0  0  0  0  0  0  0  0  0  0
    5.6230   -2.7480   46.0380 C   0  0  0  0  0  0  0  0  0  0  0  0
    4.9070   -3.9380   45.9090 C   0  0  0  0  0  0  0  0  0  0  0  0
    4.3690   -0.7610   43.0980 C   0  0  0  0  0  0  0  0  0  0  0  0
    5.1180    0.1920   42.9790 O   0  0  0  0  0  0  0  0  0  0  0  0
    3.2700   -0.8810   42.3330 O   0  0  0  0  0  0  0  0  0  0  0  0
    1.2950   -6.8830   44.9030 C   0  0  0  0  0  0  0  0  0  0  0  0
   -0.0030   -6.7760   44.0940 C   0  0  0  0  0  0  0  0  0  0  0  0
   -1.1190   -7.5470   44.7430 C   0  0  0  0  0  0  0  0  0  0  0  0
   -2.2270   -7.9450   44.0990 C   0  0  0  0  0  0  0  0  0  0  0  0
   -3.3410   -8.7060   44.7430 C   0  0  0  0  0  0  0  0  0  0  0  0
  1  4  1  0
  1  2  2  3
  2 13  1  0
  2  3  1  0
  4  7  2  0
  4  9  1  0
  5 10  1  0
  5  7  1  0
  5  6  2  0
  6  8  1  0
  8  9  2  0
 10 12  1  0
 10 11  2  0
 13 14  1  0
 14 15  1  0
 15 16  2  3
 16 17  1  0
M  END
>  <vina_dock>  (151) 
-7.2

$$$$
O14757_PocketFlow_idx-in-all-generaetd-750
     RDKit          3D

 15 16  0  0  0  0  0  0  0  0999 V2000
    2.7180   -5.1160   44.8750 C   0  0  0  0  0  0  0  0  0  0  0  0
    1.9110   -4.0160   45.2220 C   0  0  0  0  0  0  0  0  0  0  0  0
    2.2430   -6.4150   45.1360 C   0  0  0  0  0  0  0  0  0  0  0  0
    0.9310   -6.5770   45.6100 C   0  0  0  0  0  0  0  0  0  0  0  0
    0.1070   -5.4830   45.8920 C   0  0  0  0  0  0  0  0  0  0  0  0
    0.6350   -4.2020   45.7550 C   0  0  0  0  0  0  0  0  0  0  0  0
    4.0700   -4.8520   44.2430 C   0  0  0  0  0  0  0  0  0  0  0  0
    4.4600   -3.3930   44.1190 C   0  0  0  0  0  0  0  0  0  0  0  0
    4.3010   -1.2330   43.0170 C   0  0  0  0  0  0  0  0  0  0  0  0
    5.2530   -0.7080   43.8880 C   0  0  0  0  0  0  0  0  0  0  0  0
    3.9110   -2.5680   43.1270 C   0  0  0  0  0  0  0  0  0  0  0  0
    5.8200   -1.5200   44.8680 C   0  0  0  0  0  0  0  0  0  0  0  0
    5.4310   -2.8550   44.9790 C   0  0  0  0  0  0  0  0  0  0  0  0
    2.9650   -7.5590   44.7440 N   0  0  0  0  0  0  0  0  0  0  0  0
   -1.1390   -5.6720   46.5020 N   0  0  0  0  0  0  0  0  0  0  0  0
  1  7  1  0
  1  3  1  0
  1  2  2  0
  2  6  1  0
  3 14  1  0
  3  4  2  0
  4  5  1  0
  5  6  2  0
  5 15  1  0
  7  8  1  0
  8 11  1  0
  8 13  2  0
  9 11  2  0
  9 10  1  0
 10 12  2  0
 12 13  1  0
M  END
>  <vina_dock>  (152) 
-6.806

$$$$
O14757_PocketFlow_idx-in-all-generaetd-225
     RDKit          3D

 15 16  0  0  0  0  0  0  0  0999 V2000
    4.8930   -4.0750   45.3830 C   0  0  0  0  0  0  0  0  0  0  0  0
    5.9120   -3.7140   46.1060 N   0  0  0  0  0  0  0  0  0  0  0  0
    4.1440   -3.3200   44.3570 C   0  0  0  0  0  0  0  0  0  0  0  0
    0.5400   -1.5850   41.2600 C   0  0  0  0  0  0  0  0  0  0  0  0
   -0.0100   -2.6880   41.9060 C   0  0  0  0  0  0  0  0  0  0  0  0
    1.8460   -1.1870   41.5500 C   0  0  0  0  0  0  0  0  0  0  0  0
    0.7440   -3.3970   42.8430 C   0  0  0  0  0  0  0  0  0  0  0  0
    2.6190   -1.8880   42.4890 C   0  0  0  0  0  0  0  0  0  0  0  0
    2.0600   -3.0110   43.1450 C   0  0  0  0  0  0  0  0  0  0  0  0
    3.9320   -1.4950   42.7920 C   0  0  0  0  0  0  0  0  0  0  0  0
    2.8300   -3.7140   44.0850 C   0  0  0  0  0  0  0  0  0  0  0  0
    4.6910   -2.2030   43.7280 C   0  0  0  0  0  0  0  0  0  0  0  0
    6.5220   -2.5150   45.8760 C   0  0  0  0  0  0  0  0  0  0  0  0
    7.8210   -2.3300   46.1440 C   0  0  0  0  0  0  0  0  0  0  0  0
    8.5580   -1.0590   45.8850 C   0  0  0  0  0  0  0  0  0  0  0  0
  1  3  1  0
  1  2  2  3
  2 13  1  0
  3 12  2  0
  3 11  1  0
  4  6  2  0
  4  5  1  0
  5  7  2  0
  6  8  1  0
  7  9  1  0
  8 10  2  0
  8  9  1  0
  9 11  2  0
 10 12  1  0
 13 14  2  3
 14 15  1  0
M  END
>  <vina_dock>  (153) 
-7.472

$$$$
O14757_PocketFlow_idx-in-all-generaetd-307
     RDKit          3D

 35 35  0  0  0  0  0  0  0  0999 V2000
    3.5820   -9.1530   46.9750 C   0  0  0  0  0  0  0  0  0  0  0  0
    4.4870   -8.2600   47.4130 C   0  0  0  0  0  0  0  0  0  0  0  0
    2.3910   -8.9140   46.0930 C   0  0  0  0  0  0  0  0  0  0  0  0
    1.1380   -9.4450   46.7300 C   0  0  0  0  0  0  0  0  0  0  0  0
    0.0130   -8.7660   47.0120 C   0  0  0  0  0  0  0  0  0  0  0  0
   -0.2700   -7.3150   46.7330 C   0  0  0  0  0  0  0  0  0  0  0  0
   -0.9700   -7.0720   45.3790 C   0  0  1  0  0  0  0  0  0  0  0  0
   -0.0040   -6.5400   44.2900 C   0  0  0  0  0  0  0  0  0  0  0  0
    1.0590   -5.5330   44.7530 C   0  0  0  0  0  0  0  0  0  0  0  0
    0.6030   -4.1440   44.6280 N   0  0  0  0  0  0  0  0  0  0  0  0
    1.1490   -3.4780   43.4510 C   0  0  0  0  0  0  0  0  0  0  0  0
   -1.8620   -8.2360   44.8780 C   0  0  0  0  0  0  0  0  0  0  0  0
   -3.2770   -7.9070   44.4190 C   0  0  0  0  0  0  0  0  0  0  0  0
   -3.3600   -7.8620   43.0060 O   0  0  0  0  0  0  0  0  0  0  0  0
    4.5510   -6.7870   47.1230 C   0  0  0  0  0  0  0  0  0  0  0  0
    5.5110   -6.1030   48.0540 C   0  0  0  0  0  0  0  0  0  0  0  0
    6.0370   -4.8650   47.9470 C   0  0  0  0  0  0  0  0  0  0  0  0
    5.7540   -3.9200   46.8490 C   0  0  0  0  0  0  0  0  0  0  0  0
    6.8160   -3.3610   46.1250 C   0  0  0  0  0  0  0  0  0  0  0  0
    4.4410   -3.5870   46.4900 C   0  0  0  0  0  0  0  0  0  0  0  0
    6.5730   -2.4780   45.0670 C   0  0  0  0  0  0  0  0  0  0  0  0
    4.1940   -2.7050   45.4340 C   0  0  0  0  0  0  0  0  0  0  0  0
    5.2590   -2.1450   44.7200 C   0  0  0  0  0  0  0  0  0  0  0  0
    4.9490   -1.2130   43.6090 C   0  0  0  0  0  0  0  0  0  0  0  0
    4.9720    0.0020   43.6720 O   0  0  0  0  0  0  0  0  0  0  0  0
    4.6240   -1.8490   42.4690 O   0  0  0  0  0  0  0  0  0  0  0  0
    6.8390   -4.4160   49.1370 C   0  0  0  0  0  0  0  0  0  0  0  0
    6.3000   -3.7040   49.9860 O   0  0  0  0  0  0  0  0  0  0  0  0
    8.1680   -4.8030   49.2060 N   0  0  0  0  0  0  0  0  0  0  0  0
    8.8000   -5.7750   48.3220 C   0  0  0  0  0  0  0  0  0  0  0  0
    9.0080   -4.2020   50.2310 C   0  0  0  0  0  0  0  0  0  0  0  0
   10.1640   -3.5080   49.5760 C   0  0  0  0  0  0  0  0  0  0  0  0
   10.0400   -2.4750   48.7280 C   0  0  0  0  0  0  0  0  0  0  0  0
   11.1720   -1.8190   48.1230 C   0  0  0  0  0  0  0  0  0  0  0  0
   11.1170   -1.2320   46.9210 C   0  0  0  0  0  0  0  0  0  0  0  0
  1  3  1  0
  1  2  2  3
  2 15  1  0
  3  4  1  0
  4  5  2  3
  5  6  1  0
  7  6  1  1
  7  8  1  0
  7 12  1  0
  8  9  1  0
  9 10  1  0
 10 11  1  0
 12 13  1  0
 13 14  1  0
 15 16  1  0
 16 17  2  3
 17 18  1  0
 17 27  1  0
 18 19  2  0
 18 20  1  0
 19 21  1  0
 20 22  2  0
 21 23  2  0
 22 23  1  0
 23 24  1  0
 24 26  1  0
 24 25  2  0
 27 29  1  0
 27 28  2  0
 29 30  1  0
 29 31  1  0
 31 32  1  0
 32 33  2  3
 33 34  1  0
 34 35  2  0
M  END
>  <vina_dock>  (154) 
-6.442

$$$$
O14757_PocketFlow_idx-in-all-generaetd-183
     RDKit          3D

 35 37  0  0  0  0  0  0  0  0999 V2000
    7.6830   -2.0240   45.2810 C   0  0  0  0  0  0  0  0  0  0  0  0
    6.2330   -2.3420   45.7380 C   0  0  2  0  0  0  0  0  0  0  0  0
    6.0800   -3.7790   46.3070 C   0  0  0  0  0  0  0  0  0  0  0  0
    5.3280   -3.8920   47.6430 C   0  0  0  0  0  0  0  0  0  0  0  0
    6.1900   -4.4710   48.7690 C   0  0  0  0  0  0  0  0  0  0  0  0
    6.0670   -5.9800   48.9150 C   0  0  0  0  0  0  0  0  0  0  0  0
    5.2070   -1.9320   44.6720 C   0  0  0  0  0  0  0  0  0  0  0  0
    5.2960   -0.7520   43.9190 C   0  0  0  0  0  0  0  0  0  0  0  0
    4.1390   -2.8080   44.3860 C   0  0  0  0  0  0  0  0  0  0  0  0
    4.3340   -0.4520   42.9550 C   0  0  0  0  0  0  0  0  0  0  0  0
    3.1640   -2.5130   43.4140 C   0  0  0  0  0  0  0  0  0  0  0  0
    3.2770   -1.3130   42.7020 C   0  0  0  0  0  0  0  0  0  0  0  0
    4.4030    0.6970   42.2210 O   0  0  0  0  0  0  0  0  0  0  0  0
    2.0210   -3.4770   43.1830 C   0  0  2  0  0  0  0  0  0  0  0  0
    0.8500   -2.7240   41.7900 Br  0  0  0  0  0  0  0  0  0  0  0  0
    1.1760   -3.8040   44.4210 C   0  0  0  0  0  0  0  0  0  0  0  0
    1.3070   -5.2510   44.8430 C   0  0  0  0  0  0  0  0  0  0  0  0
    0.1680   -6.0200   45.1200 C   0  0  0  0  0  0  0  0  0  0  0  0
    2.5740   -5.8350   44.9890 C   0  0  0  0  0  0  0  0  0  0  0  0
    0.2940   -7.3470   45.5310 C   0  0  0  0  0  0  0  0  0  0  0  0
    2.6950   -7.1630   45.4010 C   0  0  0  0  0  0  0  0  0  0  0  0
    1.5570   -7.9180   45.6720 C   0  0  0  0  0  0  0  0  0  0  0  0
    8.4460   -0.9850   46.1210 C   0  0  0  0  0  0  0  0  0  0  0  0
    9.5160   -1.5980   47.0290 C   0  0  0  0  0  0  0  0  0  0  0  0
   10.9380   -1.1270   46.6950 C   0  0  0  0  0  0  0  0  0  0  0  0
   11.8790   -2.1800   46.0640 C   0  0  1  0  0  0  0  0  0  0  0  0
   13.3060   -2.1470   46.6040 C   0  0  0  0  0  0  0  0  0  0  0  0
   11.2810   -3.6010   46.1980 C   0  0  0  0  0  0  0  0  0  0  0  0
   13.4010   -2.5530   48.0700 C   0  0  0  0  0  0  0  0  0  0  0  0
   11.7310   -4.4500   47.4370 C   0  0  2  0  0  0  0  0  0  0  0  0
   12.3190   -3.5320   48.5370 C   0  0  0  0  0  0  0  0  0  0  0  0
   12.8260   -5.4530   46.9980 C   0  0  0  0  0  0  0  0  0  0  0  0
   10.4720   -5.2270   48.0020 C   0  0  0  0  0  0  0  0  0  0  0  0
    9.9040   -4.6240   49.2970 C   0  0  0  0  0  0  0  0  0  0  0  0
    9.3190   -5.3920   47.0010 C   0  0  0  0  0  0  0  0  0  0  0  0
  2  1  1  6
  1 23  1  0
  2  7  1  0
  2  3  1  0
  3  4  1  0
  4  5  1  0
  5  6  1  0
  7  8  2  0
  7  9  1  0
  8 10  1  0
  9 11  2  0
 10 13  1  0
 10 12  2  0
 11 12  1  0
 11 14  1  0
 14 15  1  6
 14 16  1  0
 16 17  1  0
 17 19  1  0
 17 18  2  0
 18 20  1  0
 19 21  2  0
 20 22  2  0
 21 22  1  0
 23 24  1  0
 24 25  1  0
 26 25  1  1
 26 28  1  0
 26 27  1  0
 27 29  1  0
 28 30  1  0
 29 31  1  0
 30 32  1  6
 30 33  1  0
 30 31  1  0
 33 35  1  0
 33 34  1  0
M  END
>  <vina_dock>  (155) 
-7.61

$$$$
O14757_PocketFlow_idx-in-all-generaetd-659
     RDKit          3D

 29 32  0  0  0  0  0  0  0  0999 V2000
    6.9930   -1.8460   45.3220 C   0  0  0  0  0  0  0  0  0  0  0  0
    5.9350   -1.5380   44.4610 C   0  0  0  0  0  0  0  0  0  0  0  0
    6.8780   -2.9560   46.1660 C   0  0  0  0  0  0  0  0  0  0  0  0
    5.7260   -3.7500   46.1390 C   0  0  0  0  0  0  0  0  0  0  0  0
    4.6600   -3.4520   45.2760 C   0  0  0  0  0  0  0  0  0  0  0  0
    4.7840   -2.3320   44.4390 C   0  0  0  0  0  0  0  0  0  0  0  0
    8.2280   -0.9790   45.3650 C   0  0  0  0  0  0  0  0  0  0  0  0
    9.1420   -1.3540   46.5350 C   0  0  0  0  0  0  0  0  0  0  0  0
   10.5230   -0.9410   46.2820 N   0  0  0  0  0  0  0  0  0  0  0  0
    3.4490   -4.2890   45.2510 C   0  0  0  0  0  0  0  0  0  0  0  0
    2.1920   -3.7370   44.9600 C   0  0  0  0  0  0  0  0  0  0  0  0
    3.5130   -5.6650   45.5150 C   0  0  0  0  0  0  0  0  0  0  0  0
    1.0410   -4.5330   44.9370 C   0  0  0  0  0  0  0  0  0  0  0  0
    2.3610   -6.4610   45.4890 C   0  0  0  0  0  0  0  0  0  0  0  0
    1.1050   -5.9080   45.2000 C   0  0  0  0  0  0  0  0  0  0  0  0
   -0.1050   -6.7460   45.1750 C   0  0  0  0  0  0  0  0  0  0  0  0
   -0.7550   -7.0420   43.9660 C   0  0  0  0  0  0  0  0  0  0  0  0
   -0.6470   -7.2710   46.3640 C   0  0  0  0  0  0  0  0  0  0  0  0
   -1.9060   -7.8330   43.9430 C   0  0  0  0  0  0  0  0  0  0  0  0
   -1.7930   -8.0780   46.3500 C   0  0  0  0  0  0  0  0  0  0  0  0
   -2.4250   -8.3440   45.1320 C   0  0  0  0  0  0  0  0  0  0  0  0
   -2.3250   -8.5830   47.6220 C   0  0  0  0  0  0  0  0  0  0  0  0
   -1.6630   -9.2620   48.5750 C   0  0  0  0  0  0  0  0  0  0  0  0
   -0.2400   -9.6210   48.5940 C   0  0  0  0  0  0  0  0  0  0  0  0
    0.3930  -10.1860   47.4800 C   0  0  0  0  0  0  0  0  0  0  0  0
    0.5170   -9.3470   49.7390 C   0  0  0  0  0  0  0  0  0  0  0  0
    1.7540  -10.4950   47.5200 C   0  0  0  0  0  0  0  0  0  0  0  0
    1.8790   -9.6550   49.7790 C   0  0  0  0  0  0  0  0  0  0  0  0
    2.4960  -10.2310   48.6690 C   0  0  0  0  0  0  0  0  0  0  0  0
  1  2  2  0
  1  7  1  0
  1  3  1  0
  2  6  1  0
  3  4  2  0
  4  5  1  0
  5  6  2  0
  5 10  1  0
  7  8  1  0
  8  9  1  0
 10 11  2  0
 10 12  1  0
 11 13  1  0
 12 14  2  0
 13 15  2  0
 14 15  1  0
 15 16  1  0
 16 17  2  0
 16 18  1  0
 17 19  1  0
 18 20  2  0
 19 21  2  0
 20 21  1  0
 20 22  1  0
 22 23  2  3
 23 24  1  0
 24 25  2  0
 24 26  1  0
 25 27  1  0
 26 28  2  0
 27 29  2  0
 28 29  1  0
M  END
>  <vina_dock>  (156) 
-9.094

$$$$
O14757_PocketFlow_idx-in-all-generaetd-631
     RDKit          3D

 31 34  0  0  0  0  0  0  0  0999 V2000
    8.2290   -2.5810   46.7410 C   0  0  0  0  0  0  0  0  0  0  0  0
    7.5970   -3.6190   47.4210 C   0  0  0  0  0  0  0  0  0  0  0  0
    6.3790   -4.1240   47.1070 N   0  0  0  0  0  0  0  0  0  0  0  0
    5.7240   -3.5820   46.0490 C   0  0  0  0  0  0  0  0  0  0  0  0
    6.2680   -2.5410   45.3030 C   0  0  0  0  0  0  0  0  0  0  0  0
    7.5260   -2.0440   45.6560 C   0  0  0  0  0  0  0  0  0  0  0  0
    9.5500   -2.0800   47.1380 C   0  0  0  0  0  0  0  0  0  0  0  0
   11.8790   -1.5710   46.6610 C   0  0  0  0  0  0  0  0  0  0  0  0
   10.6320   -2.0540   46.2460 C   0  0  0  0  0  0  0  0  0  0  0  0
   12.0070   -1.1240   47.9670 C   0  0  0  0  0  0  0  0  0  0  0  0
   10.9910   -1.1300   48.8630 N   0  0  0  0  0  0  0  0  0  0  0  0
    9.7980   -1.6010   48.4270 C   0  0  0  0  0  0  0  0  0  0  0  0
   13.0590   -1.5160   45.7810 C   0  0  0  0  0  0  0  0  0  0  0  0
   13.0410   -1.5230   44.5650 O   0  0  0  0  0  0  0  0  0  0  0  0
   14.2140   -1.4590   46.4680 O   0  0  0  0  0  0  0  0  0  0  0  0
    4.4380   -4.1200   45.7260 N   0  0  0  0  0  0  0  0  0  0  0  0
    4.0480   -5.4440   45.7040 C   0  0  0  0  0  0  0  0  0  0  0  0
    3.3390   -3.3640   45.3790 C   0  0  0  0  0  0  0  0  0  0  0  0
    2.7090   -5.5330   45.3410 C   0  0  0  0  0  0  0  0  0  0  0  0
    2.2580   -4.1890   45.1200 C   0  0  0  0  0  0  0  0  0  0  0  0
    1.9270   -6.7680   45.2360 C   0  0  0  0  0  0  0  0  0  0  0  0
    2.1520   -7.6740   46.2520 N   0  0  0  0  0  0  0  0  0  0  0  0
    1.1530   -6.9870   44.3090 O   0  0  0  0  0  0  0  0  0  0  0  0
    1.5740   -8.9900   46.2000 C   0  0  0  0  0  0  0  0  0  0  0  0
    0.8930   -3.7350   44.7020 C   0  0  0  0  0  0  0  0  0  0  0  0
    1.0260   -3.2370   43.2820 C   0  0  0  0  0  0  0  0  0  0  0  0
    1.9780   -2.2620   42.9450 C   0  0  0  0  0  0  0  0  0  0  0  0
    0.1910   -3.7370   42.2710 C   0  0  0  0  0  0  0  0  0  0  0  0
    2.0960   -1.8040   41.6310 C   0  0  0  0  0  0  0  0  0  0  0  0
    0.3090   -3.2780   40.9570 C   0  0  0  0  0  0  0  0  0  0  0  0
    1.2610   -2.3130   40.6380 C   0  0  0  0  0  0  0  0  0  0  0  0
  1  6  1  0
  1  7  1  0
  1  2  2  0
  2  3  1  0
  3  4  2  0
  4  5  1  0
  4 16  1  0
  5  6  2  0
  7  9  1  0
  7 12  2  0
  8 13  1  0
  8  9  2  0
  8 10  1  0
 10 11  2  0
 11 12  1  0
 13 14  2  0
 13 15  1  0
 16 18  1  0
 16 17  1  0
 17 19  2  0
 18 20  2  0
 19 20  1  0
 19 21  1  0
 20 25  1  0
 21 23  2  0
 21 22  1  0
 22 24  1  0
 25 26  1  0
 26 28  1  0
 26 27  2  0
 27 29  1  0
 28 30  2  0
 29 31  2  0
 30 31  1  0
M  END
>  <vina_dock>  (157) 
-8.69

$$$$
O14757_PocketFlow_idx-in-all-generaetd-779
     RDKit          3D

 22 24  0  0  0  0  0  0  0  0999 V2000
    3.2480   -6.8200   45.6570 C   0  0  0  0  0  0  0  0  0  0  0  0
    4.0780   -5.6430   45.4230 N   0  0  0  0  0  0  0  0  0  0  0  0
    3.3210   -4.4090   45.6720 C   0  0  0  0  0  0  0  0  0  0  0  0
    3.6050   -3.3120   44.6560 C   0  0  0  0  0  0  0  0  0  0  0  0
    0.4850   -3.1820   42.5080 C   0  0  0  0  0  0  0  0  0  0  0  0
    1.3810   -3.5630   43.5120 C   0  0  0  0  0  0  0  0  0  0  0  0
    0.8290   -2.1760   41.6180 C   0  0  0  0  0  0  0  0  0  0  0  0
    2.6500   -2.9520   43.6560 C   0  0  0  0  0  0  0  0  0  0  0  0
    2.0650   -1.5440   41.7370 C   0  0  0  0  0  0  0  0  0  0  0  0
    2.9740   -1.9130   42.7430 C   0  0  0  0  0  0  0  0  0  0  0  0
    4.8100   -2.5850   44.7470 C   0  0  0  0  0  0  0  0  0  0  0  0
    4.2000   -1.2420   42.8480 C   0  0  0  0  0  0  0  0  0  0  0  0
    5.1080   -1.5680   43.8470 C   0  0  0  0  0  0  0  0  0  0  0  0
    2.0580   -6.7790   44.7460 C   0  0  0  0  0  0  0  0  0  0  0  0
    0.7860   -6.9100   45.1590 C   0  0  0  0  0  0  0  0  0  0  0  0
   -0.4040   -6.8790   44.2420 C   0  0  0  0  0  0  0  0  0  0  0  0
   -1.4910   -7.8340   44.6750 C   0  0  0  0  0  0  0  0  0  0  0  0
   -2.6620   -7.9680   43.9120 C   0  0  0  0  0  0  0  0  0  0  0  0
   -1.3460   -8.6080   45.8350 C   0  0  0  0  0  0  0  0  0  0  0  0
   -3.6670   -8.8530   44.3060 C   0  0  0  0  0  0  0  0  0  0  0  0
   -2.3530   -9.4920   46.2270 C   0  0  0  0  0  0  0  0  0  0  0  0
   -3.5130   -9.6130   45.4630 C   0  0  0  0  0  0  0  0  0  0  0  0
  1 14  1  0
  1  2  1  0
  2  3  1  0
  3  4  1  0
  4  8  1  0
  4 11  2  0
  5  7  2  0
  5  6  1  0
  6  8  2  0
  7  9  1  0
  8 10  1  0
  9 10  2  0
 10 12  1  0
 11 13  1  0
 12 13  2  0
 14 15  2  3
 15 16  1  0
 16 17  1  0
 17 18  2  0
 17 19  1  0
 18 20  1  0
 19 21  2  0
 20 22  2  0
 21 22  1  0
M  END
>  <vina_dock>  (158) 
-9.068

$$$$
O14757_PocketFlow_idx-in-all-generaetd-697
     RDKit          3D

 10 10  0  0  0  0  0  0  0  0999 V2000
    1.6880   -2.6410   42.5570 C   0  0  0  0  0  0  0  0  0  0  0  0
    0.7190   -3.3610   43.1420 C   0  0  0  0  0  0  0  0  0  0  0  0
    1.4610   -1.8560   41.2960 C   0  0  0  0  0  0  0  0  0  0  0  0
    1.7690   -0.3720   41.5050 C   0  0  0  0  0  0  0  0  0  0  0  0
    2.9250   -0.0980   42.4770 C   0  0  0  0  0  0  0  0  0  0  0  0
    3.8640   -1.3070   42.6340 C   0  0  2  0  0  0  0  0  0  0  0  0
    3.0740   -2.5320   43.1540 C   0  0  0  0  0  0  0  0  0  0  0  0
    5.0900   -1.0840   43.4970 C   0  0  0  0  0  0  0  0  0  0  0  0
    5.6980   -1.9750   44.2980 C   0  0  0  0  0  0  0  0  0  0  0  0
    6.9060   -1.6640   45.1210 C   0  0  0  0  0  0  0  0  0  0  0  0
  1  3  1  0
  1  2  2  0
  1  7  1  0
  3  4  1  0
  4  5  1  0
  6  5  1  1
  6  7  1  0
  6  8  1  0
  8  9  2  3
  9 10  1  0
M  END
>  <vina_dock>  (159) 
-5.883

$$$$
O14757_PocketFlow_idx-in-all-generaetd-886
     RDKit          3D

 35 40  0  0  0  0  0  0  0  0999 V2000
    7.8550   -4.0970   48.2310 C   0  0  0  0  0  0  0  0  0  0  0  0
    8.8920   -3.3750   47.6310 C   0  0  0  0  0  0  0  0  0  0  0  0
    8.6140   -2.5040   46.5450 C   0  0  0  0  0  0  0  0  0  0  0  0
    9.7200   -1.8420   45.9570 C   0  0  0  0  0  0  0  0  0  0  0  0
   11.0250   -2.0090   46.4300 C   0  0  0  0  0  0  0  0  0  0  0  0
    6.5520   -3.9930   47.7580 C   0  0  0  0  0  0  0  0  0  0  0  0
    6.2540   -3.1410   46.6890 C   0  0  0  0  0  0  0  0  0  0  0  0
    4.8440   -3.0930   46.1420 C   0  0  1  0  0  0  0  0  0  0  0  0
    7.2600   -2.3450   46.1080 C   0  0  0  0  0  0  0  0  0  0  0  0
   11.2680   -2.8490   47.5070 C   0  0  0  0  0  0  0  0  0  0  0  0
   10.2080   -3.5300   48.1010 C   0  0  0  0  0  0  0  0  0  0  0  0
    6.9450   -1.5100   45.0210 N   0  0  0  0  0  0  0  0  0  0  0  0
    5.5770   -1.0150   44.8100 C   0  0  2  0  0  0  0  0  0  0  0  0
    4.5470   -1.6420   45.7550 C   0  0  0  0  0  0  0  0  0  0  0  0
    4.6390   -4.0800   44.9750 C   0  0  0  0  0  0  0  0  0  0  0  0
    3.3340   -4.8420   45.0590 C   0  0  0  0  0  0  0  0  0  0  0  0
    3.2620   -6.1730   44.6360 C   0  0  0  0  0  0  0  0  0  0  0  0
    2.1860   -4.2380   45.5780 C   0  0  0  0  0  0  0  0  0  0  0  0
    2.0640   -6.8880   44.7360 C   0  0  0  0  0  0  0  0  0  0  0  0
    0.9900   -4.9570   45.6730 C   0  0  0  0  0  0  0  0  0  0  0  0
    0.9020   -6.3010   45.2640 C   0  0  0  0  0  0  0  0  0  0  0  0
   -0.3690   -7.0450   45.3910 C   0  0  0  0  0  0  0  0  0  0  0  0
   -0.7290   -7.3870   46.6500 N   0  0  0  0  0  0  0  0  0  0  0  0
   -1.1460   -7.3960   44.2990 C   0  0  0  0  0  0  0  0  0  0  0  0
   -1.8800   -8.0610   46.7890 C   0  0  0  0  0  0  0  0  0  0  0  0
   -2.3030   -8.0940   44.5610 C   0  0  0  0  0  0  0  0  0  0  0  0
   -2.6980   -8.4390   45.7980 N   0  0  0  0  0  0  0  0  0  0  0  0
    5.2620   -1.1460   43.3040 C   0  0  0  0  0  0  0  0  0  0  0  0
    4.2180   -0.1660   42.7530 C   0  0  0  0  0  0  0  0  0  0  0  0
    2.9210   -0.8150   42.3560 C   0  0  0  0  0  0  0  0  0  0  0  0
    2.6580   -2.1550   42.6510 C   0  0  0  0  0  0  0  0  0  0  0  0
    1.9300   -0.1000   41.6870 C   0  0  0  0  0  0  0  0  0  0  0  0
    1.4380   -2.7150   42.2820 C   0  0  0  0  0  0  0  0  0  0  0  0
    0.7360   -0.6180   41.3220 N   0  0  0  0  0  0  0  0  0  0  0  0
    0.5170   -1.9140   41.6270 C   0  0  0  0  0  0  0  0  0  0  0  0
  1  2  2  0
  1  6  1  0
  2  3  1  0
  2 11  1  0
  3  4  1  0
  3  9  2  0
  4  5  2  0
  5 10  1  0
  6  7  2  0
  7  9  1  0
  7  8  1  0
  8 15  1  6
  8 14  1  0
  9 12  1  0
 10 11  2  0
 12 13  1  0
 13 28  1  6
 13 14  1  0
 15 16  1  0
 16 17  2  0
 16 18  1  0
 17 19  1  0
 18 20  2  0
 19 21  2  0
 20 21  1  0
 21 22  1  0
 22 24  1  0
 22 23  2  0
 23 25  1  0
 24 26  2  0
 25 27  2  0
 26 27  1  0
 28 29  1  0
 29 30  1  0
 30 32  1  0
 30 31  2  0
 31 33  1  0
 32 34  2  0
 33 35  2  0
 34 35  1  0
M  END
>  <vina_dock>  (160) 
-10.53

$$$$
O14757_PocketFlow_idx-in-all-generaetd-875
     RDKit          3D

 29 31  0  0  0  0  0  0  0  0999 V2000
    3.0990   -6.5370   45.7560 C   0  0  0  0  0  0  0  0  0  0  0  0
    1.9590   -7.5200   45.4760 C   0  0  0  0  0  0  0  0  0  0  0  0
    0.7350   -6.9290   44.7650 C   0  0  0  0  0  0  0  0  0  0  0  0
   -0.5390   -7.6960   45.0150 C   0  0  0  0  0  0  0  0  0  0  0  0
   -1.7970   -9.3220   46.3660 C   0  0  0  0  0  0  0  0  0  0  0  0
   -0.6400   -8.5670   46.1130 C   0  0  0  0  0  0  0  0  0  0  0  0
   -2.8890   -9.1260   45.5170 C   0  0  0  0  0  0  0  0  0  0  0  0
   -2.8100   -8.2620   44.4210 C   0  0  0  0  0  0  0  0  0  0  0  0
   -1.6380   -7.5530   44.1680 C   0  0  0  0  0  0  0  0  0  0  0  0
   -1.8350  -10.1170   47.5110 N   0  0  0  0  0  0  0  0  0  0  0  0
   -1.3950   -9.6120   48.8060 C   0  0  0  0  0  0  0  0  0  0  0  0
   -2.3180  -10.0720   49.9220 C   0  0  0  0  0  0  0  0  0  0  0  0
    3.7520   -5.8370   44.5530 C   0  0  0  0  0  0  0  0  0  0  0  0
    3.4760   -4.3310   44.3120 C   0  0  1  0  0  0  0  0  0  0  0  0
    2.1680   -3.8490   44.9100 C   0  0  0  0  0  0  0  0  0  0  0  0
    1.1430   -3.2650   44.2660 C   0  0  0  0  0  0  0  0  0  0  0  0
    1.0920   -2.9490   42.8350 C   0  0  0  0  0  0  0  0  0  0  0  0
    0.3900   -3.7220   41.8990 C   0  0  0  0  0  0  0  0  0  0  0  0
    1.8140   -1.8360   42.3810 C   0  0  0  0  0  0  0  0  0  0  0  0
    0.4130   -3.3970   40.5430 C   0  0  0  0  0  0  0  0  0  0  0  0
    1.8320   -1.5060   41.0230 C   0  0  0  0  0  0  0  0  0  0  0  0
    1.1350   -2.2890   40.1030 C   0  0  0  0  0  0  0  0  0  0  0  0
   -0.3430   -4.8240   42.2400 O   0  0  0  0  0  0  0  0  0  0  0  0
    4.6670   -3.4390   44.6400 C   0  0  0  0  0  0  0  0  0  0  0  0
    5.4880   -3.7720   45.7300 C   0  0  0  0  0  0  0  0  0  0  0  0
    4.9730   -2.2790   43.9110 C   0  0  0  0  0  0  0  0  0  0  0  0
    6.5830   -2.9790   46.0740 C   0  0  0  0  0  0  0  0  0  0  0  0
    6.0670   -1.4840   44.2610 C   0  0  0  0  0  0  0  0  0  0  0  0
    6.8710   -1.8330   45.3410 C   0  0  0  0  0  0  0  0  0  0  0  0
  1 13  1  0
  1  2  1  0
  2  3  1  0
  3  4  1  0
  4  9  1  0
  4  6  2  0
  5  7  2  0
  5  6  1  0
  5 10  1  0
  7  8  1  0
  8  9  2  0
 10 11  1  0
 11 12  1  0
 14 13  1  1
 14 24  1  0
 14 15  1  0
 15 16  2  3
 16 17  1  0
 17 18  2  0
 17 19  1  0
 18 20  1  0
 18 23  1  0
 19 21  2  0
 20 22  2  0
 21 22  1  0
 24 26  1  0
 24 25  2  0
 25 27  1  0
 26 28  2  0
 27 29  2  0
 28 29  1  0
M  END
>  <vina_dock>  (161) 
-8.155

$$$$
O14757_PocketFlow_idx-in-all-generaetd-889
     RDKit          3D

 33 35  0  0  0  0  0  0  0  0999 V2000
    6.7910   -2.0110   45.4090 C   0  0  0  0  0  0  0  0  0  0  0  0
    5.7890   -1.7470   44.5480 C   0  0  0  0  0  0  0  0  0  0  0  0
    4.7600   -2.6730   44.1270 C   0  0  0  0  0  0  0  0  0  0  0  0
    4.1590   -3.6340   44.8580 C   0  0  0  0  0  0  0  0  0  0  0  0
    4.4720   -3.8990   46.2570 C   0  0  0  0  0  0  0  0  0  0  0  0
    5.6830   -3.7860   46.8240 C   0  0  0  0  0  0  0  0  0  0  0  0
    6.9400   -3.3220   46.1470 C   0  0  0  0  0  0  0  0  0  0  0  0
    7.8440   -0.9600   45.7050 C   0  0  0  0  0  0  0  0  0  0  0  0
    9.2670   -1.5350   45.6410 C   0  0  0  0  0  0  0  0  0  0  0  0
    9.8910   -1.5880   47.0120 C   0  0  0  0  0  0  0  0  0  0  0  0
   10.2220   -6.7090   46.3360 C   0  0  0  0  0  0  0  0  0  0  0  0
    9.7100   -6.3680   47.5920 C   0  0  0  0  0  0  0  0  0  0  0  0
   10.8020   -5.7350   45.5250 C   0  0  0  0  0  0  0  0  0  0  0  0
    9.7800   -5.0400   48.0520 C   0  0  0  0  0  0  0  0  0  0  0  0
   10.8510   -4.4100   45.9650 C   0  0  0  0  0  0  0  0  0  0  0  0
    9.3090   -4.6100   49.4220 C   0  0  0  0  0  0  0  0  0  0  0  0
   10.3150   -4.0490   47.2080 C   0  0  0  0  0  0  0  0  0  0  0  0
   10.3390   -3.6720   50.0780 C   0  0  2  0  0  0  0  0  0  0  0  0
   10.3380   -2.6580   47.7030 C   0  0  0  0  0  0  0  0  0  0  0  0
   10.7670   -2.5120   49.1510 C   0  0  0  0  0  0  0  0  0  0  0  0
   11.5640   -4.4570   50.5670 C   0  0  0  0  0  0  0  0  0  0  0  0
   10.1480   -8.0010   45.8920 O   0  0  0  0  0  0  0  0  0  0  0  0
    9.1340   -7.4250   48.4350 C   0  0  0  0  0  0  0  0  0  0  0  0
    9.6170   -7.9050   49.4410 O   0  0  0  0  0  0  0  0  0  0  0  0
    7.9330   -7.8040   47.9560 O   0  0  0  0  0  0  0  0  0  0  0  0
    3.0560   -4.4980   44.2330 C   0  0  1  0  0  0  0  0  0  0  0  0
    3.2410   -5.9750   44.5960 C   0  0  0  0  0  0  0  0  0  0  0  0
    1.6850   -3.8710   44.4190 C   0  0  0  0  0  0  0  0  0  0  0  0
    0.7490   -3.3970   43.5800 C   0  0  0  0  0  0  0  0  0  0  0  0
    0.7420   -3.4000   42.1360 C   0  0  0  0  0  0  0  0  0  0  0  0
    1.2950   -2.4890   41.3170 C   0  0  0  0  0  0  0  0  0  0  0  0
    2.0490   -1.3110   41.6840 C   0  0  0  0  0  0  0  0  0  0  0  0
    1.5710   -0.0700   41.5280 C   0  0  0  0  0  0  0  0  0  0  0  0
  1  2  2  0
  1  8  1  0
  1  7  1  0
  2  3  1  0
  3  4  2  0
  4 26  1  0
  4  5  1  0
  5  6  2  0
  6  7  1  0
  8  9  1  0
  9 10  1  0
 10 19  2  3
 11 13  2  0
 11 22  1  0
 11 12  1  0
 12 14  2  0
 12 23  1  0
 13 15  1  0
 14 17  1  0
 14 16  1  0
 15 17  2  0
 16 18  1  0
 17 19  1  0
 18 20  1  0
 18 21  1  6
 19 20  1  0
 23 25  1  0
 23 24  2  0
 26 28  1  0
 26 27  1  1
 28 29  2  3
 29 30  1  0
 30 31  2  3
 31 32  1  0
 32 33  2  0
M  END
>  <vina_dock>  (162) 
-8.084

$$$$
O14757_PocketFlow_idx-in-all-generaetd-591
     RDKit          3D

  6  6  0  0  0  0  0  0  0  0999 V2000
    3.4670   -2.2400   43.1390 C   0  0  0  0  0  0  0  0  0  0  0  0
    4.0820   -1.0290   42.8220 C   0  0  0  0  0  0  0  0  0  0  0  0
    4.0440   -3.0880   44.0850 C   0  0  0  0  0  0  0  0  0  0  0  0
    5.2730   -0.6660   43.4500 C   0  0  0  0  0  0  0  0  0  0  0  0
    5.8510   -1.5140   44.3960 C   0  0  0  0  0  0  0  0  0  0  0  0
    5.2350   -2.7250   44.7130 C   0  0  0  0  0  0  0  0  0  0  0  0
  1  2  2  0
  1  3  1  0
  2  4  1  0
  3  6  2  0
  4  5  2  0
  5  6  1  0
M  END
>  <vina_dock>  (163) 
-3.98

$$$$
O14757_PocketFlow_idx-in-all-generaetd-573
     RDKit          3D

  9  9  0  0  0  0  0  0  0  0999 V2000
    2.0360   -2.6010   42.6750 C   0  0  0  0  0  0  0  0  0  0  0  0
    3.3770   -2.1950   43.2410 C   0  0  0  0  0  0  0  0  0  0  0  0
    5.2600   -0.6620   43.3000 C   0  0  0  0  0  0  0  0  0  0  0  0
    4.0270   -1.0450   42.7700 C   0  0  0  0  0  0  0  0  0  0  0  0
    5.8530   -1.4200   44.3090 C   0  0  0  0  0  0  0  0  0  0  0  0
    5.2120   -2.5610   44.7900 C   0  0  0  0  0  0  0  0  0  0  0  0
    3.9780   -2.9450   44.2620 C   0  0  0  0  0  0  0  0  0  0  0  0
    1.6140   -1.7280   41.5270 C   0  0  0  0  0  0  0  0  0  0  0  0
    0.5990   -0.8540   41.5740 C   0  0  0  0  0  0  0  0  0  0  0  0
  1  8  1  0
  1  2  1  0
  2  4  2  0
  2  7  1  0
  3  4  1  0
  3  5  2  0
  5  6  1  0
  6  7  2  0
  8  9  2  0
M  END
>  <vina_dock>  (164) 
-5.372

$$$$
O14757_PocketFlow_idx-in-all-generaetd-576
     RDKit          3D

 13 13  0  0  0  0  0  0  0  0999 V2000
    0.7590   -4.0620   43.3710 C   0  0  0  0  0  0  0  0  0  0  0  0
    0.4590   -5.1780   44.3320 C   0  0  0  0  0  0  0  0  0  0  0  0
    0.0230   -6.3940   43.9650 C   0  0  0  0  0  0  0  0  0  0  0  0
   -0.2820   -7.5000   44.9330 C   0  0  0  0  0  0  0  0  0  0  0  0
   -1.7470   -7.9040   44.8660 C   0  0  0  0  0  0  0  0  0  0  0  0
    2.0680   -3.3530   43.5980 C   0  0  0  0  0  0  0  0  0  0  0  0
    3.1640   -3.8380   44.2080 C   0  0  0  0  0  0  0  0  0  0  0  0
    4.4060   -3.0730   44.3940 C   0  0  0  0  0  0  0  0  0  0  0  0
    4.5960   -1.9000   43.6530 C   0  0  0  0  0  0  0  0  0  0  0  0
    5.3810   -3.4470   45.3290 C   0  0  0  0  0  0  0  0  0  0  0  0
    5.7500   -1.1310   43.8220 C   0  0  0  0  0  0  0  0  0  0  0  0
    6.5350   -2.6760   45.4990 C   0  0  0  0  0  0  0  0  0  0  0  0
    6.7200   -1.5200   44.7430 C   0  0  0  0  0  0  0  0  0  0  0  0
  1  6  1  0
  1  2  1  0
  2  3  2  3
  3  4  1  0
  4  5  1  0
  6  7  2  3
  7  8  1  0
  8  9  2  0
  8 10  1  0
  9 11  1  0
 10 12  2  0
 11 13  2  0
 12 13  1  0
M  END
>  <vina_dock>  (165) 
-6.331

$$$$
O14757_PocketFlow_idx-in-all-generaetd-765
     RDKit          3D

 28 31  0  0  0  0  0  0  0  0999 V2000
   -2.4090   -8.3120   45.4020 C   0  0  0  0  0  0  0  0  0  0  0  0
   -3.0880   -8.6650   44.4420 O   0  0  0  0  0  0  0  0  0  0  0  0
   -1.2840   -7.3510   45.1900 C   0  0  0  0  0  0  0  0  0  0  0  0
    0.8450   -5.5160   44.8410 C   0  0  0  0  0  0  0  0  0  0  0  0
    0.2850   -5.7410   46.1090 C   0  0  0  0  0  0  0  0  0  0  0  0
    0.3160   -6.2280   43.7510 C   0  0  0  0  0  0  0  0  0  0  0  0
   -0.7670   -6.6480   46.2840 C   0  0  0  0  0  0  0  0  0  0  0  0
   -0.7370   -7.1350   43.9200 C   0  0  0  0  0  0  0  0  0  0  0  0
    1.9500   -4.5620   44.6590 C   0  0  0  0  0  0  0  0  0  0  0  0
    7.5530   -1.2980   45.0180 C   0  0  0  0  0  0  0  0  0  0  0  0
    6.3560   -2.0590   45.0720 C   0  0  0  0  0  0  0  0  0  0  0  0
    8.6250   -1.5570   45.8730 C   0  0  0  0  0  0  0  0  0  0  0  0
    5.2190   -1.8440   44.2410 C   0  0  0  0  0  0  0  0  0  0  0  0
    6.2820   -3.1090   46.0080 C   0  0  0  0  0  0  0  0  0  0  0  0
    8.5260   -2.5850   46.7970 C   0  0  0  0  0  0  0  0  0  0  0  0
    5.2100   -0.7200   43.2310 C   0  0  0  0  0  0  0  0  0  0  0  0
    4.1070   -2.7310   44.3390 C   0  0  0  0  0  0  0  0  0  0  0  0
    5.2170   -3.9090   46.1300 N   0  0  0  0  0  0  0  0  0  0  0  0
    7.3600   -3.3470   46.8510 C   0  0  0  0  0  0  0  0  0  0  0  0
    2.9540   -2.6720   43.5190 C   0  0  0  0  0  0  0  0  0  0  0  0
    4.1670   -3.7410   45.3160 C   0  0  0  0  0  0  0  0  0  0  0  0
    1.8960   -3.5690   43.6800 C   0  0  0  0  0  0  0  0  0  0  0  0
    3.1010   -4.6210   45.4590 C   0  0  0  0  0  0  0  0  0  0  0  0
   -2.5940   -8.7350   46.6990 N   0  0  0  0  0  0  0  0  0  0  0  0
   -2.0160   -9.8430   47.0260 C   0  0  0  0  0  0  0  0  0  0  0  0
   -2.1520  -10.3840   48.3970 C   0  0  0  0  0  0  0  0  0  0  0  0
   -1.2780  -10.1870   49.3940 C   0  0  0  0  0  0  0  0  0  0  0  0
   -0.0010   -9.4130   49.3830 C   0  0  0  0  0  0  0  0  0  0  0  0
  1  2  2  0
  1  3  1  0
  1 24  1  0
  3  8  2  0
  3  7  1  0
  4  6  2  0
  4  9  1  0
  4  5  1  0
  5  7  2  0
  6  8  1  0
  9 22  1  0
  9 23  2  0
 10 11  2  0
 10 12  1  0
 11 13  1  0
 11 14  1  0
 12 15  2  0
 13 16  1  0
 13 17  2  0
 14 18  1  0
 14 19  2  0
 15 19  1  0
 17 20  1  0
 17 21  1  0
 18 21  2  0
 20 22  2  0
 21 23  1  0
 24 25  2  3
 25 26  1  0
 26 27  2  3
 27 28  1  0
M  END
>  <vina_dock>  (166) 
-10.148

$$$$
O14757_PocketFlow_idx-in-all-generaetd-347
     RDKit          3D

 26 27  0  0  0  0  0  0  0  0999 V2000
    2.3950   -4.6770   44.3110 C   0  0  0  0  0  0  0  0  0  0  0  0
    2.3340   -3.3910   43.5170 C   0  0  0  0  0  0  0  0  0  0  0  0
    1.2490   -3.0390   42.8060 C   0  0  0  0  0  0  0  0  0  0  0  0
    3.4940   -2.4770   43.5760 C   0  0  0  0  0  0  0  0  0  0  0  0
    5.7130   -0.7630   43.6540 C   0  0  0  0  0  0  0  0  0  0  0  0
    5.6950   -1.8930   44.4870 C   0  0  0  0  0  0  0  0  0  0  0  0
    4.6440   -0.4860   42.7990 C   0  0  0  0  0  0  0  0  0  0  0  0
    4.5740   -2.7410   44.4320 C   0  0  0  0  0  0  0  0  0  0  0  0
    3.5410   -1.3390   42.7620 C   0  0  0  0  0  0  0  0  0  0  0  0
    6.8180   -2.1820   45.3950 C   0  0  0  0  0  0  0  0  0  0  0  0
    6.8580   -3.3670   46.1450 C   0  0  0  0  0  0  0  0  0  0  0  0
    7.8830   -1.2800   45.5370 C   0  0  0  0  0  0  0  0  0  0  0  0
    7.9250   -3.6460   47.0110 C   0  0  0  0  0  0  0  0  0  0  0  0
    8.9490   -1.5580   46.3990 C   0  0  0  0  0  0  0  0  0  0  0  0
    8.9770   -2.7400   47.1400 C   0  0  0  0  0  0  0  0  0  0  0  0
   10.0730   -2.8870   47.9430 O   0  0  0  0  0  0  0  0  0  0  0  0
   10.5890   -1.7090   48.5490 C   0  0  0  0  0  0  0  0  0  0  0  0
    1.7970   -4.5200   45.7160 C   0  0  0  0  0  0  0  0  0  0  0  0
    0.4080   -5.1490   45.8560 C   0  0  0  0  0  0  0  0  0  0  0  0
    0.0860   -6.1400   44.7720 C   0  0  0  0  0  0  0  0  0  0  0  0
   -0.1400   -7.4580   44.8900 C   0  0  0  0  0  0  0  0  0  0  0  0
   -0.1110   -8.2200   46.1200 C   0  0  0  0  0  0  0  0  0  0  0  0
    0.9460   -8.8460   46.6600 C   0  0  0  0  0  0  0  0  0  0  0  0
    2.3440   -8.8560   46.1780 C   0  0  0  0  0  0  0  0  0  0  0  0
    3.0840   -7.7610   46.4910 N   0  0  0  0  0  0  0  0  0  0  0  0
    2.8220   -9.8330   45.6170 O   0  0  0  0  0  0  0  0  0  0  0  0
  1  2  1  0
  1 18  1  0
  2  3  2  0
  2  4  1  0
  4  9  2  0
  4  8  1  0
  5  7  2  0
  5  6  1  0
  6  8  2  0
  6 10  1  0
  7  9  1  0
 10 12  1  0
 10 11  2  0
 11 13  1  0
 12 14  2  0
 13 15  2  0
 14 15  1  0
 15 16  1  0
 16 17  1  0
 18 19  1  0
 19 20  1  0
 20 21  2  3
 21 22  1  0
 22 23  2  3
 23 24  1  0
 24 26  2  0
 24 25  1  0
M  END
>  <vina_dock>  (167) 
-8.517

$$$$
O14757_PocketFlow_idx-in-all-generaetd-72
     RDKit          3D

 28 31  0  0  0  0  0  0  0  0999 V2000
    1.1580   -3.3760   42.9520 C   0  0  0  0  0  0  0  0  0  0  0  0
    2.5070   -2.7740   43.2750 C   0  0  0  0  0  0  0  0  0  0  0  0
    9.0310   -2.0020   46.5800 C   0  0  0  0  0  0  0  0  0  0  0  0
    8.3110   -1.3560   45.5790 C   0  0  0  0  0  0  0  0  0  0  0  0
    8.4290   -3.1190   47.1400 C   0  0  0  0  0  0  0  0  0  0  0  0
    7.0390   -1.8270   45.2100 C   0  0  0  0  0  0  0  0  0  0  0  0
    7.2040   -3.5900   46.7990 N   0  0  0  0  0  0  0  0  0  0  0  0
    6.2800   -1.1970   44.2170 C   0  0  0  0  0  0  0  0  0  0  0  0
    6.5100   -2.9590   45.8520 C   0  0  0  0  0  0  0  0  0  0  0  0
    5.0220   -1.7000   43.8860 C   0  0  0  0  0  0  0  0  0  0  0  0
    5.3070   -3.4370   45.5320 N   0  0  0  0  0  0  0  0  0  0  0  0
    4.2190   -1.1090   42.8960 C   0  0  0  0  0  0  0  0  0  0  0  0
    4.5750   -2.8360   44.5800 C   0  0  0  0  0  0  0  0  0  0  0  0
    2.9680   -1.6440   42.5940 C   0  0  0  0  0  0  0  0  0  0  0  0
    3.3260   -3.3510   44.2610 C   0  0  0  0  0  0  0  0  0  0  0  0
   10.3700   -1.5280   46.9420 C   0  0  0  0  0  0  0  0  0  0  0  0
   11.4910   -1.8320   46.2690 C   0  0  0  0  0  0  0  0  0  0  0  0
   12.8490   -1.3430   46.6580 C   0  0  0  0  0  0  0  0  0  0  0  0
    0.7450   -4.4830   43.8970 C   0  0  0  0  0  0  0  0  0  0  0  0
    0.3640   -5.7360   43.4000 C   0  0  0  0  0  0  0  0  0  0  0  0
    0.7290   -4.2690   45.2810 C   0  0  0  0  0  0  0  0  0  0  0  0
   -0.0240   -6.7580   44.2700 C   0  0  0  0  0  0  0  0  0  0  0  0
    0.3420   -5.2900   46.1530 C   0  0  0  0  0  0  0  0  0  0  0  0
   -0.0320   -6.5480   45.6570 C   0  0  0  0  0  0  0  0  0  0  0  0
   -0.4730   -7.6420   46.5970 C   0  0  0  0  0  0  0  0  0  0  0  0
   -1.1390   -7.1710   47.6890 F   0  0  0  0  0  0  0  0  0  0  0  0
    0.5620   -8.3800   47.0870 F   0  0  0  0  0  0  0  0  0  0  0  0
   -1.3170   -8.5300   46.0010 F   0  0  0  0  0  0  0  0  0  0  0  0
  1  2  1  0
  1 19  1  0
  2 14  2  0
  2 15  1  0
  3  4  2  0
  3 16  1  0
  3  5  1  0
  4  6  1  0
  5  7  2  0
  6  8  1  0
  6  9  2  0
  7  9  1  0
  8 10  1  0
  9 11  1  0
 10 12  2  0
 10 13  1  0
 11 13  1  0
 12 14  1  0
 13 15  2  0
 16 17  2  3
 17 18  1  0
 19 20  2  0
 19 21  1  0
 20 22  1  0
 21 23  2  0
 22 24  2  0
 23 24  1  0
 24 25  1  0
 25 28  1  0
 25 27  1  0
 25 26  1  0
M  END
>  <vina_dock>  (168) 
-9.81

$$$$
O14757_PocketFlow_idx-in-all-generaetd-316
     RDKit          3D

 18 18  0  0  0  0  0  0  0  0999 V2000
    0.7690   -4.2930   43.8130 O   0  0  0  0  0  0  0  0  0  0  0  0
    1.7580   -3.3950   43.5150 C   0  0  0  0  0  0  0  0  0  0  0  0
    3.9260   -2.3190   43.8300 C   0  0  0  0  0  0  0  0  0  0  0  0
    2.9630   -3.2690   44.2140 C   0  0  0  0  0  0  0  0  0  0  0  0
    3.6600   -1.4810   42.7410 C   0  0  0  0  0  0  0  0  0  0  0  0
    2.4620   -1.6030   42.0390 C   0  0  0  0  0  0  0  0  0  0  0  0
    1.5070   -2.5630   42.4110 C   0  0  0  0  0  0  0  0  0  0  0  0
    5.2120   -2.1800   44.6090 C   0  0  0  0  0  0  0  0  0  0  0  0
    5.0410   -1.4850   45.7660 F   0  0  0  0  0  0  0  0  0  0  0  0
    6.1920   -1.5310   43.9210 F   0  0  0  0  0  0  0  0  0  0  0  0
    5.7450   -3.3810   44.9700 F   0  0  0  0  0  0  0  0  0  0  0  0
    0.2090   -2.6640   41.6510 C   0  0  0  0  0  0  0  0  0  0  0  0
   -0.2670   -1.4470   41.2640 F   0  0  0  0  0  0  0  0  0  0  0  0
    0.3260   -3.3890   40.4970 F   0  0  0  0  0  0  0  0  0  0  0  0
    0.8040   -4.9320   45.0900 C   0  0  0  0  0  0  0  0  0  0  0  0
    0.6880   -6.4360   44.9480 C   0  0  0  0  0  0  0  0  0  0  0  0
   -0.4020   -7.0780   44.4930 C   0  0  0  0  0  0  0  0  0  0  0  0
    1.9130   -7.2000   45.3680 C   0  0  0  0  0  0  0  0  0  0  0  0
  1  2  1  0
  1 15  1  0
  2  7  2  0
  2  4  1  0
  3  5  1  0
  3  4  2  0
  3  8  1  0
  5  6  2  0
  6  7  1  0
  7 12  1  0
  8 10  1  0
  8 11  1  0
  8  9  1  0
 12 14  1  0
 12 13  1  0
 15 16  1  0
 16 17  2  0
 16 18  1  0
M  END
>  <vina_dock>  (169) 
-7.426

$$$$
O14757_PocketFlow_idx-in-all-generaetd-138
     RDKit          3D

 10 10  0  0  0  0  0  0  0  0999 V2000
    3.0830   -1.4030   42.3650 C   0  0  0  0  0  0  0  0  0  0  0  0
    1.8610   -2.2790   42.3450 C   0  0  0  0  0  0  0  0  0  0  0  0
   -0.1210   -3.3480   41.2500 C   0  0  0  0  0  0  0  0  0  0  0  0
    1.0920   -2.4780   41.2620 C   0  0  0  0  0  0  0  0  0  0  0  0
    4.1170   -1.8830   43.3560 C   0  0  0  0  0  0  0  0  0  0  0  0
    3.9610   -3.1110   44.0140 C   0  0  0  0  0  0  0  0  0  0  0  0
    5.2380   -1.0940   43.6500 C   0  0  0  0  0  0  0  0  0  0  0  0
    4.9130   -3.5460   44.9370 C   0  0  0  0  0  0  0  0  0  0  0  0
    6.1890   -1.5310   44.5740 C   0  0  0  0  0  0  0  0  0  0  0  0
    6.0270   -2.7560   45.2150 C   0  0  0  0  0  0  0  0  0  0  0  0
  1  2  1  0
  1  5  1  0
  2  4  2  3
  3  4  1  0
  5  7  2  0
  5  6  1  0
  6  8  2  0
  7  9  1  0
  8 10  1  0
  9 10  2  0
M  END
>  <vina_dock>  (170) 
-5.775

$$$$
O14757_PocketFlow_idx-in-all-generaetd-327
     RDKit          3D

 13 14  0  0  0  0  0  0  0  0999 V2000
    3.1030   -4.3740   45.5100 C   0  0  2  0  0  0  0  0  0  0  0  0
    1.6660   -4.1400   45.0090 C   0  0  0  0  0  0  0  0  0  0  0  0
    1.5730   -3.4090   43.6890 C   0  0  0  0  0  0  0  0  0  0  0  0
    0.3540   -3.4260   42.9890 C   0  0  0  0  0  0  0  0  0  0  0  0
    0.2090   -2.7470   41.7730 C   0  0  0  0  0  0  0  0  0  0  0  0
   -1.1070   -2.7530   41.0530 C   0  0  0  0  0  0  0  0  0  0  0  0
    3.9310   -3.0960   45.3290 C   0  0  0  0  0  0  0  0  0  0  0  0
    3.9900   -2.6350   43.8730 C   0  0  0  0  0  0  0  0  0  0  0  0
    2.6520   -2.6690   43.1790 C   0  0  0  0  0  0  0  0  0  0  0  0
    1.2890   -2.0180   41.2710 C   0  0  0  0  0  0  0  0  0  0  0  0
    2.5000   -1.9860   41.9630 C   0  0  0  0  0  0  0  0  0  0  0  0
    3.7430   -5.5700   44.8380 C   0  0  0  0  0  0  0  0  0  0  0  0
    3.1140   -6.7320   44.6160 C   0  0  0  0  0  0  0  0  0  0  0  0
  1 12  1  6
  1  2  1  0
  1  7  1  0
  2  3  1  0
  3  4  1  0
  3  9  2  0
  4  5  2  0
  5  6  1  0
  5 10  1  0
  7  8  1  0
  8  9  1  0
  9 11  1  0
 10 11  2  0
 12 13  2  0
M  END
>  <vina_dock>  (171) 
-6.591

$$$$
O14757_PocketFlow_idx-in-all-generaetd-19
     RDKit          3D

 32 37  0  0  0  0  0  0  0  0999 V2000
    9.1290   -2.7340   47.2030 C   0  0  0  0  0  0  0  0  0  0  0  0
    8.9650   -1.4930   46.5670 C   0  0  0  0  0  0  0  0  0  0  0  0
    8.0800   -3.6560   47.0200 C   0  0  0  0  0  0  0  0  0  0  0  0
    6.9470   -3.3850   46.2210 C   0  0  0  0  0  0  0  0  0  0  0  0
    6.8350   -2.1420   45.5800 C   0  0  0  0  0  0  0  0  0  0  0  0
    7.8500   -1.2000   45.7690 C   0  0  0  0  0  0  0  0  0  0  0  0
    5.9150   -4.3210   46.0640 C   0  0  0  0  0  0  0  0  0  0  0  0
    4.7960   -4.0270   45.2710 C   0  0  0  0  0  0  0  0  0  0  0  0
    3.6670   -5.0100   45.1220 C   0  0  0  0  0  0  0  0  0  0  0  0
    4.6970   -2.8140   44.5680 C   0  0  0  0  0  0  0  0  0  0  0  0
    5.7120   -1.8670   44.7750 C   0  0  0  0  0  0  0  0  0  0  0  0
    2.3880   -4.3630   45.0380 O   0  0  0  0  0  0  0  0  0  0  0  0
    2.3520   -3.3880   44.0640 C   0  0  0  0  0  0  0  0  0  0  0  0
    3.4850   -2.6090   43.7360 C   0  0  0  0  0  0  0  0  0  0  0  0
    1.1130   -3.2130   43.4430 C   0  0  0  0  0  0  0  0  0  0  0  0
    0.9630   -2.2910   42.4050 C   0  0  0  0  0  0  0  0  0  0  0  0
    2.0990   -1.5700   42.0100 C   0  0  0  0  0  0  0  0  0  0  0  0
    3.3510   -1.7130   42.6500 C   0  0  0  0  0  0  0  0  0  0  0  0
   10.2370   -3.0140   48.0070 N   0  0  0  0  0  0  0  0  0  0  0  0
   10.2540   -4.2120   48.8330 C   0  0  0  0  0  0  0  0  0  0  0  0
   11.0080   -1.9310   48.5950 C   0  0  0  0  0  0  0  0  0  0  0  0
   11.4110   -4.4450   49.6920 N   0  0  0  0  0  0  0  0  0  0  0  0
   12.1400   -2.2710   49.4500 N   0  0  0  0  0  0  0  0  0  0  0  0
   11.7030   -3.2400   50.4230 C   0  0  0  0  0  0  0  0  0  0  0  0
    4.4910   -0.9910   42.0560 C   0  0  0  0  0  0  0  0  0  0  0  0
    4.8430    0.2560   42.3980 C   0  0  0  0  0  0  0  0  0  0  0  0
   -0.3310   -2.1050   41.7290 C   0  0  0  0  0  0  0  0  0  0  0  0
   -1.0000   -3.1890   41.1380 C   0  0  0  0  0  0  0  0  0  0  0  0
   -0.9370   -0.8390   41.6540 C   0  0  0  0  0  0  0  0  0  0  0  0
   -2.2300   -3.0160   40.4950 C   0  0  0  0  0  0  0  0  0  0  0  0
   -2.1650   -0.6640   41.0120 C   0  0  0  0  0  0  0  0  0  0  0  0
   -2.8110   -1.7520   40.4330 C   0  0  0  0  0  0  0  0  0  0  0  0
  1  2  2  0
  1  3  1  0
  1 19  1  0
  2  6  1  0
  3  4  2  0
  4  5  1  0
  4  7  1  0
  5 11  1  0
  5  6  2  0
  7  8  2  0
  8 10  1  0
  8  9  1  0
  9 12  1  0
 10 14  1  0
 10 11  2  0
 12 13  1  0
 13 15  1  0
 13 14  2  0
 14 18  1  0
 15 16  2  0
 16 27  1  0
 16 17  1  0
 17 18  2  0
 18 25  1  0
 19 21  1  0
 19 20  1  0
 20 22  1  0
 21 23  1  0
 22 24  1  0
 23 24  1  0
 25 26  2  0
 27 28  2  0
 27 29  1  0
 28 30  1  0
 29 31  2  0
 30 32  2  0
 31 32  1  0
M  END
>  <vina_dock>  (172) 
-8.945

$$$$
O14757_PocketFlow_idx-in-all-generaetd-736
     RDKit          3D

 17 18  0  0  0  0  0  0  0  0999 V2000
    1.0450   -2.4710   42.1360 C   0  0  0  0  0  0  0  0  0  0  0  0
    1.7510   -1.4010   41.5910 C   0  0  0  0  0  0  0  0  0  0  0  0
    3.0300   -1.1050   42.0630 C   0  0  0  0  0  0  0  0  0  0  0  0
    3.6220   -1.8700   43.0810 C   0  0  0  0  0  0  0  0  0  0  0  0
    2.9220   -2.9650   43.6490 C   0  0  0  0  0  0  0  0  0  0  0  0
    1.6270   -3.2410   43.1520 C   0  0  0  0  0  0  0  0  0  0  0  0
    4.9080   -1.5450   43.5390 C   0  0  0  0  0  0  0  0  0  0  0  0
    5.5280   -2.2820   44.5520 C   0  0  0  0  0  0  0  0  0  0  0  0
    4.8400   -3.3580   45.1180 C   0  0  0  0  0  0  0  0  0  0  0  0
    3.5530   -3.7180   44.6790 C   0  0  0  0  0  0  0  0  0  0  0  0
   -0.3190   -2.8300   41.6760 C   0  0  0  0  0  0  0  0  0  0  0  0
   -1.2670   -2.0710   41.5930 O   0  0  0  0  0  0  0  0  0  0  0  0
   -0.4350   -4.1260   41.3410 O   0  0  0  0  0  0  0  0  0  0  0  0
    2.8860   -4.8960   45.3600 C   0  0  0  0  0  0  0  0  0  0  0  0
    3.2780   -6.2220   44.7250 C   0  0  0  0  0  0  0  0  0  0  0  0
    6.9000   -1.9030   45.0470 C   0  0  0  0  0  0  0  0  0  0  0  0
    7.4760   -2.9590   45.9770 C   0  0  0  0  0  0  0  0  0  0  0  0
  1  2  2  0
  1 11  1  0
  1  6  1  0
  2  3  1  0
  3  4  2  0
  4  7  1  0
  4  5  1  0
  5  6  2  0
  5 10  1  0
  7  8  2  0
  8 16  1  0
  8  9  1  0
  9 10  2  0
 10 14  1  0
 11 13  1  0
 11 12  2  0
 14 15  1  0
 16 17  1  0
M  END
>  <vina_dock>  (173) 
-8.311

$$$$
O14757_PocketFlow_idx-in-all-generaetd-668
     RDKit          3D

 33 36  0  0  0  0  0  0  0  0999 V2000
    0.0890   -5.0750   45.6850 C   0  0  0  0  0  0  0  0  0  0  0  0
    1.2960   -4.3630   45.1220 C   0  0  0  0  0  0  0  0  0  0  0  0
    3.5560   -3.0300   44.0540 C   0  0  0  0  0  0  0  0  0  0  0  0
    2.3110   -2.9400   43.3950 C   0  0  0  0  0  0  0  0  0  0  0  0
    3.6490   -3.8050   45.2260 C   0  0  0  0  0  0  0  0  0  0  0  0
    1.2000   -3.6140   43.9400 C   0  0  0  0  0  0  0  0  0  0  0  0
    2.5370   -4.4630   45.7540 C   0  0  0  0  0  0  0  0  0  0  0  0
    4.8110   -2.3410   43.5640 C   0  0  0  0  0  0  0  0  0  0  0  0
    5.3710   -1.2890   44.5230 C   0  0  0  0  0  0  0  0  0  0  0  0
    6.5490   -1.7840   45.3380 C   0  0  0  0  0  0  0  0  0  0  0  0
    7.6560   -1.0780   44.9840 F   0  0  0  0  0  0  0  0  0  0  0  0
    6.8220   -3.0810   45.0610 F   0  0  0  0  0  0  0  0  0  0  0  0
    2.0980   -2.1520   42.1140 C   0  0  0  0  0  0  0  0  0  0  0  0
    0.6600   -1.9910   41.6600 C   0  0  0  0  0  0  0  0  0  0  0  0
    0.0710   -0.7160   41.6850 C   0  0  0  0  0  0  0  0  0  0  0  0
   -0.1320   -3.0850   41.2780 C   0  0  0  0  0  0  0  0  0  0  0  0
   -1.2620   -0.5360   41.3080 C   0  0  0  0  0  0  0  0  0  0  0  0
   -1.4640   -2.9030   40.8990 C   0  0  0  0  0  0  0  0  0  0  0  0
   -2.0290   -1.6300   40.9110 C   0  0  0  0  0  0  0  0  0  0  0  0
    0.4230   -6.3480   46.2390 O   0  0  0  0  0  0  0  0  0  0  0  0
    0.3410   -7.4010   45.2720 C   0  0  0  0  0  0  0  0  0  0  0  0
   -0.9760   -8.1500   45.3590 C   0  0  0  0  0  0  0  0  0  0  0  0
   -2.0200   -7.8860   44.4520 C   0  0  0  0  0  0  0  0  0  0  0  0
   -1.1730   -9.1310   46.3620 C   0  0  0  0  0  0  0  0  0  0  0  0
   -3.2320   -8.5740   44.5280 C   0  0  0  0  0  0  0  0  0  0  0  0
   -2.4040   -9.8150   46.4190 C   0  0  0  0  0  0  0  0  0  0  0  0
   -3.4250   -9.5390   45.5110 C   0  0  0  0  0  0  0  0  0  0  0  0
   -0.1330   -9.4600   47.3480 C   0  0  0  0  0  0  0  0  0  0  0  0
    1.0140  -10.1730   46.9670 C   0  0  0  0  0  0  0  0  0  0  0  0
   -0.2680   -9.0680   48.6890 C   0  0  0  0  0  0  0  0  0  0  0  0
    1.9970  -10.4950   47.9060 C   0  0  0  0  0  0  0  0  0  0  0  0
    0.7160   -9.3900   49.6290 C   0  0  0  0  0  0  0  0  0  0  0  0
    1.8470  -10.1040   49.2360 C   0  0  0  0  0  0  0  0  0  0  0  0
  1  2  1  0
  1 20  1  0
  2  6  2  0
  2  7  1  0
  3  4  2  0
  3  8  1  0
  3  5  1  0
  4 13  1  0
  4  6  1  0
  5  7  2  0
  8  9  1  0
  9 10  1  0
 10 11  1  0
 10 12  1  0
 13 14  1  0
 14 16  1  0
 14 15  2  0
 15 17  1  0
 16 18  2  0
 17 19  2  0
 18 19  1  0
 20 21  1  0
 21 22  1  0
 22 23  2  0
 22 24  1  0
 23 25  1  0
 24 26  2  0
 24 28  1  0
 25 27  2  0
 26 27  1  0
 28 29  2  0
 28 30  1  0
 29 31  1  0
 30 32  2  0
 31 33  2  0
 32 33  1  0
M  END
>  <vina_dock>  (174) 
-9.457

$$$$
O14757_PocketFlow_idx-in-all-generaetd-53
     RDKit          3D

  9  9  0  0  0  0  0  0  0  0999 V2000
    4.5160   -0.7640   43.0690 C   0  0  0  0  0  0  0  0  0  0  0  0
    5.6640   -0.7480   43.8560 C   0  0  0  0  0  0  0  0  0  0  0  0
    5.9570   -1.8590   44.6450 C   0  0  0  0  0  0  0  0  0  0  0  0
    3.6730   -1.8700   43.0680 C   0  0  0  0  0  0  0  0  0  0  0  0
    5.1150   -2.9750   44.6490 C   0  0  0  0  0  0  0  0  0  0  0  0
    3.9660   -2.9800   43.8550 C   0  0  0  0  0  0  0  0  0  0  0  0
    7.5120   -1.8570   45.7200 Br  0  0  0  0  0  0  0  0  0  0  0  0
    4.2290    0.3020   42.3080 F   0  0  0  0  0  0  0  0  0  0  0  0
    2.5700   -1.8780   42.3070 F   0  0  0  0  0  0  0  0  0  0  0  0
  1  8  1  0
  1  4  2  0
  1  2  1  0
  2  3  2  0
  3  5  1  0
  3  7  1  0
  4  9  1  0
  4  6  1  0
  5  6  2  0
M  END
>  <vina_dock>  (175) 
-5.1

$$$$
O14757_PocketFlow_idx-in-all-generaetd-373
     RDKit          3D

 29 32  0  0  0  0  0  0  0  0999 V2000
    0.9570   -2.5770   42.2230 C   0  0  0  0  0  0  0  0  0  0  0  0
    1.8400   -1.6600   41.6550 C   0  0  0  0  0  0  0  0  0  0  0  0
    3.1120   -1.4950   42.2000 C   0  0  0  0  0  0  0  0  0  0  0  0
    3.5240   -2.2400   43.3180 C   0  0  0  0  0  0  0  0  0  0  0  0
    2.6440   -3.1770   43.9130 C   0  0  0  0  0  0  0  0  0  0  0  0
    1.3570   -3.3260   43.3400 C   0  0  0  0  0  0  0  0  0  0  0  0
    4.8130   -2.0540   43.8420 C   0  0  0  0  0  0  0  0  0  0  0  0
    5.2720   -2.7780   44.9490 C   0  0  0  0  0  0  0  0  0  0  0  0
    4.4010   -3.7040   45.5350 C   0  0  0  0  0  0  0  0  0  0  0  0
    3.0970   -3.9120   45.0430 C   0  0  0  0  0  0  0  0  0  0  0  0
   -0.3870   -2.7270   41.6140 C   0  0  0  0  0  0  0  0  0  0  0  0
   -1.2650   -1.8850   41.6080 O   0  0  0  0  0  0  0  0  0  0  0  0
   -0.5680   -3.9280   41.0360 O   0  0  0  0  0  0  0  0  0  0  0  0
    2.2430   -4.9500   45.7460 C   0  0  0  0  0  0  0  0  0  0  0  0
    2.1710   -6.2510   44.9500 C   0  0  0  0  0  0  0  0  0  0  0  0
    0.7440   -6.7250   44.8230 C   0  0  0  0  0  0  0  0  0  0  0  0
   -0.0930   -5.9040   45.4940 F   0  0  0  0  0  0  0  0  0  0  0  0
    0.3480   -6.7470   43.5320 F   0  0  0  0  0  0  0  0  0  0  0  0
    0.5930   -7.9660   45.3270 F   0  0  0  0  0  0  0  0  0  0  0  0
    6.6280   -2.5710   45.4810 C   0  0  0  0  0  0  0  0  0  0  0  0
    7.2930   -1.3490   45.3090 C   0  0  0  0  0  0  0  0  0  0  0  0
    7.2950   -3.5950   46.1760 C   0  0  0  0  0  0  0  0  0  0  0  0
    8.5810   -1.1530   45.8170 C   0  0  0  0  0  0  0  0  0  0  0  0
    8.5910   -3.4160   46.6930 C   0  0  0  0  0  0  0  0  0  0  0  0
    9.2420   -2.1760   46.5100 C   0  0  0  0  0  0  0  0  0  0  0  0
    9.2530   -4.4420   47.3850 C   0  0  0  0  0  0  0  0  0  0  0  0
   10.5360   -1.9950   47.0250 C   0  0  0  0  0  0  0  0  0  0  0  0
   10.5390   -4.2480   47.8910 C   0  0  0  0  0  0  0  0  0  0  0  0
   11.1790   -3.0250   47.7120 C   0  0  0  0  0  0  0  0  0  0  0  0
  1 11  1  0
  1  2  2  0
  1  6  1  0
  2  3  1  0
  3  4  2  0
  4  7  1  0
  4  5  1  0
  5  6  2  0
  5 10  1  0
  7  8  2  0
  8 20  1  0
  8  9  1  0
  9 10  2  0
 10 14  1  0
 11 13  1  0
 11 12  2  0
 14 15  1  0
 15 16  1  0
 16 18  1  0
 16 19  1  0
 16 17  1  0
 20 21  2  0
 20 22  1  0
 21 23  1  0
 22 24  2  0
 23 25  2  0
 24 25  1  0
 24 26  1  0
 25 27  1  0
 26 28  2  0
 27 29  2  0
 28 29  1  0
M  END
>  <vina_dock>  (176) 
-10.553

$$$$
O14757_PocketFlow_idx-in-all-generaetd-355
     RDKit          3D

 15 16  0  0  0  0  0  0  0  0999 V2000
    1.9720   -4.7110   44.6140 C   0  0  0  0  0  0  0  0  0  0  0  0
    0.7380   -4.6180   45.2640 C   0  0  0  0  0  0  0  0  0  0  0  0
    0.2180   -5.7410   45.8920 C   0  0  0  0  0  0  0  0  0  0  0  0
    0.8500   -6.9240   45.9140 N   0  0  0  0  0  0  0  0  0  0  0  0
    2.6320   -5.9410   44.6180 C   0  0  0  0  0  0  0  0  0  0  0  0
    2.0390   -7.0020   45.2770 C   0  0  0  0  0  0  0  0  0  0  0  0
    2.5300   -3.5270   43.9160 C   0  0  0  0  0  0  0  0  0  0  0  0
    1.8020   -2.9590   42.9350 C   0  0  0  0  0  0  0  0  0  0  0  0
    3.8510   -2.9310   44.2340 C   0  0  0  0  0  0  0  0  0  0  0  0
    5.8250   -2.7600   45.6430 C   0  0  0  0  0  0  0  0  0  0  0  0
    4.5930   -3.3490   45.3480 C   0  0  0  0  0  0  0  0  0  0  0  0
    6.3240   -1.7440   44.8320 C   0  0  0  0  0  0  0  0  0  0  0  0
    5.5930   -1.3130   43.7270 C   0  0  0  0  0  0  0  0  0  0  0  0
    4.3610   -1.9010   43.4310 C   0  0  0  0  0  0  0  0  0  0  0  0
   -0.9970   -5.6740   46.5680 N   0  0  0  0  0  0  0  0  0  0  0  0
  1  7  1  0
  1  5  1  0
  1  2  2  0
  2  3  1  0
  3  4  2  0
  3 15  1  0
  4  6  1  0
  5  6  2  0
  7  8  2  0
  7  9  1  0
  9 14  1  0
  9 11  2  0
 10 12  2  0
 10 11  1  0
 12 13  1  0
 13 14  2  0
M  END
>  <vina_dock>  (177) 
-7.376

$$$$
O14757_PocketFlow_idx-in-all-generaetd-191
     RDKit          3D

 35 38  0  0  0  0  0  0  0  0999 V2000
    3.2770   -4.0940   46.0710 C   0  0  0  0  0  0  0  0  0  0  0  0
    2.0490   -4.5010   45.2210 C   0  0  2  0  0  0  0  0  0  0  0  0
    0.4730   -6.4220   46.0580 C   0  0  1  0  0  0  0  0  0  0  0  0
    1.7830   -7.2600   46.0220 C   0  0  2  0  0  0  0  0  0  0  0  0
    0.8720   -4.9330   46.1340 C   0  0  0  0  0  0  0  0  0  0  0  0
    2.5660   -6.9790   44.7240 C   0  0  0  0  0  0  0  0  0  0  0  0
    2.3950   -5.5640   44.1710 C   0  0  0  0  0  0  0  0  0  0  0  0
   -0.5520   -6.8340   45.0120 C   0  0  0  0  0  0  0  0  0  0  0  0
   -1.6450   -7.6040   45.0600 C   0  0  0  0  0  0  0  0  0  0  0  0
   -2.3390   -8.3350   46.0760 C   0  0  0  0  0  0  0  0  0  0  0  0
   -2.4690   -7.8820   43.8550 C   0  0  0  0  0  0  0  0  0  0  0  0
   -3.3860   -8.9110   45.4640 C   0  0  0  0  0  0  0  0  0  0  0  0
   -3.4870   -8.6530   44.1100 N   0  0  0  0  0  0  0  0  0  0  0  0
    1.6340   -8.7870   46.2240 C   0  0  0  0  0  0  0  0  0  0  0  0
    2.9250   -9.5370   46.5900 C   0  0  0  0  0  0  0  0  0  0  0  0
    3.2160   -9.6190   48.0850 C   0  0  0  0  0  0  0  0  0  0  0  0
    4.5360   -8.9560   48.5020 C   0  0  0  0  0  0  0  0  0  0  0  0
    5.0000   -7.8240   47.5800 C   0  0  0  0  0  0  0  0  0  0  0  0
    5.6650   -6.6830   48.3370 C   0  0  0  0  0  0  0  0  0  0  0  0
    4.6410   -4.1800   45.3570 C   0  0  0  0  0  0  0  0  0  0  0  0
    5.3430   -2.8420   45.0700 C   0  0  2  0  0  0  0  0  0  0  0  0
    6.5950   -2.6220   45.5380 C   0  0  0  0  0  0  0  0  0  0  0  0
    7.4400   -1.4580   45.4090 C   0  0  0  0  0  0  0  0  0  0  0  0
    7.4040   -3.6130   46.3670 C   0  0  0  0  0  0  0  0  0  0  0  0
    8.6020   -1.5990   46.0530 C   0  0  0  0  0  0  0  0  0  0  0  0
    8.7160   -2.9170   46.7270 C   0  0  0  0  0  0  0  0  0  0  0  0
    4.4260   -1.8940   44.2930 C   0  0  0  0  0  0  0  0  0  0  0  0
    4.4200   -1.8470   42.7620 C   0  0  0  0  0  0  0  0  0  0  0  0
    3.4320   -0.8110   42.2040 C   0  0  0  0  0  0  0  0  0  0  0  0
    2.0370   -1.3420   41.9840 C   0  0  0  0  0  0  0  0  0  0  0  0
    1.7430   -2.6910   42.2250 C   0  0  0  0  0  0  0  0  0  0  0  0
    1.0150   -0.4950   41.5350 C   0  0  0  0  0  0  0  0  0  0  0  0
    0.4540   -3.1840   42.0170 C   0  0  0  0  0  0  0  0  0  0  0  0
   -0.2730   -0.9890   41.3260 C   0  0  0  0  0  0  0  0  0  0  0  0
   -0.5540   -2.3330   41.5660 C   0  0  0  0  0  0  0  0  0  0  0  0
  2  1  1  1
  1 20  1  0
  2  7  1  0
  2  5  1  0
  3  8  1  6
  3  4  1  0
  3  5  1  0
  4  6  1  0
  4 14  1  6
  6  7  1  0
  8  9  1  0
  9 11  2  0
  9 10  1  0
 10 12  1  0
 11 13  1  0
 12 13  2  0
 14 15  1  0
 15 16  1  0
 16 17  1  0
 17 18  1  0
 18 19  1  0
 21 20  1  1
 21 27  1  0
 21 22  1  0
 22 23  2  0
 22 24  1  0
 23 25  1  0
 24 26  1  0
 25 26  2  0
 27 28  1  0
 28 29  1  0
 29 30  1  0
 30 32  1  0
 30 31  2  0
 31 33  1  0
 32 34  2  0
 33 35  2  0
 34 35  1  0
M  END
>  <vina_dock>  (178) 
-8.336

$$$$
O14757_PocketFlow_idx-in-all-generaetd-176
     RDKit          3D

 16 17  0  0  0  0  0  0  0  0999 V2000
    4.5070   -1.8020   43.1190 C   0  0  0  0  0  0  0  0  0  0  0  0
    3.0600   -1.9230   42.7080 C   0  0  0  0  0  0  0  0  0  0  0  0
    1.1310   -1.0950   41.4880 C   0  0  0  0  0  0  0  0  0  0  0  0
    2.4670   -0.9650   41.8760 C   0  0  0  0  0  0  0  0  0  0  0  0
    0.3760   -2.1850   41.9240 C   0  0  0  0  0  0  0  0  0  0  0  0
    0.9570   -3.1450   42.7490 C   0  0  0  0  0  0  0  0  0  0  0  0
    2.2890   -3.0090   43.1310 C   0  0  0  0  0  0  0  0  0  0  0  0
    2.8350   -3.9480   43.9180 F   0  0  0  0  0  0  0  0  0  0  0  0
    4.6960   -1.1900   44.5130 C   0  0  0  0  0  0  0  0  0  0  0  0
    5.4130   -2.1020   45.4770 C   0  0  0  0  0  0  0  0  0  0  0  0
    4.6990   -2.9010   46.3800 C   0  0  0  0  0  0  0  0  0  0  0  0
    6.8090   -2.1830   45.4730 C   0  0  0  0  0  0  0  0  0  0  0  0
    5.3740   -3.7530   47.2570 C   0  0  0  0  0  0  0  0  0  0  0  0
    7.5180   -1.4390   44.6120 F   0  0  0  0  0  0  0  0  0  0  0  0
    7.4870   -3.0320   46.3440 C   0  0  0  0  0  0  0  0  0  0  0  0
    6.7680   -3.8180   47.2400 C   0  0  0  0  0  0  0  0  0  0  0  0
  1  2  1  0
  1  9  1  0
  2  4  1  0
  2  7  2  0
  3  4  2  0
  3  5  1  0
  5  6  2  0
  6  7  1  0
  7  8  1  0
  9 10  1  0
 10 12  1  0
 10 11  2  0
 11 13  1  0
 12 14  1  0
 12 15  2  0
 13 16  2  0
 15 16  1  0
M  END
>  <vina_dock>  (179) 
-7.318

$$$$
O14757_PocketFlow_idx-in-all-generaetd-264
     RDKit          3D

 35 36  0  0  0  0  0  0  0  0999 V2000
    4.9810   -2.4800   44.6940 C   0  0  0  0  0  0  0  0  0  0  0  0
    5.4990   -1.5040   44.1670 O   0  0  0  0  0  0  0  0  0  0  0  0
    5.4680   -3.2120   45.7580 N   0  0  0  0  0  0  0  0  0  0  0  0
    3.6570   -2.9340   44.1810 C   0  0  0  0  0  0  0  0  0  0  0  0
    1.8260   -4.5370   44.3110 C   0  0  0  0  0  0  0  0  0  0  0  0
    1.1730   -3.8420   43.2800 C   0  0  0  0  0  0  0  0  0  0  0  0
    3.0710   -4.0680   44.7570 C   0  0  0  0  0  0  0  0  0  0  0  0
    1.7350   -2.6870   42.7100 C   0  0  0  0  0  0  0  0  0  0  0  0
    2.9850   -2.2390   43.1670 C   0  0  0  0  0  0  0  0  0  0  0  0
    1.2130   -5.7810   44.9450 C   0  0  2  0  0  0  0  0  0  0  0  0
    2.2580   -6.8760   45.0840 C   0  0  0  0  0  0  0  0  0  0  0  0
    3.0460   -7.2400   44.2250 O   0  0  0  0  0  0  0  0  0  0  0  0
    2.2620   -7.4410   46.3070 O   0  0  0  0  0  0  0  0  0  0  0  0
   -0.0210   -6.2600   44.1480 C   0  0  0  0  0  0  0  0  0  0  0  0
   -0.9510   -7.1770   44.9430 C   0  0  0  0  0  0  0  0  0  0  0  0
   -1.0100   -6.8210   46.4000 C   0  0  0  0  0  0  0  0  0  0  0  0
   -0.6920   -7.5500   47.3250 O   0  0  0  0  0  0  0  0  0  0  0  0
   -1.5040   -5.5900   46.6150 O   0  0  0  0  0  0  0  0  0  0  0  0
    1.0210   -1.9550   41.5980 C   0  0  0  0  0  0  0  0  0  0  0  0
   -0.1710   -2.5270   41.2680 F   0  0  0  0  0  0  0  0  0  0  0  0
    1.7400   -1.8960   40.4430 F   0  0  0  0  0  0  0  0  0  0  0  0
    0.7360   -0.6670   41.9340 F   0  0  0  0  0  0  0  0  0  0  0  0
    6.7080   -3.0610   46.4310 C   0  0  0  0  0  0  0  0  0  0  0  0
    6.9420   -3.8190   47.5990 C   0  0  0  0  0  0  0  0  0  0  0  0
    7.7080   -2.1910   45.9790 C   0  0  0  0  0  0  0  0  0  0  0  0
    8.1520   -3.6750   48.2910 C   0  0  0  0  0  0  0  0  0  0  0  0
    8.9300   -2.0570   46.6620 C   0  0  0  0  0  0  0  0  0  0  0  0
    9.1330   -2.7970   47.8310 C   0  0  0  0  0  0  0  0  0  0  0  0
    5.9670   -4.7700   48.1530 C   0  0  0  0  0  0  0  0  0  0  0  0
    6.2820   -5.6180   49.1400 C   0  0  0  0  0  0  0  0  0  0  0  0
    9.9600   -1.0740   46.1600 C   0  0  0  0  0  0  0  0  0  0  0  0
   11.1630   -1.7560   45.7950 O   0  0  0  0  0  0  0  0  0  0  0  0
   12.2870   -1.2550   46.5280 C   0  0  0  0  0  0  0  0  0  0  0  0
   13.5150   -1.3540   45.6290 C   0  0  0  0  0  0  0  0  0  0  0  0
   13.1040   -1.4390   44.2640 O   0  0  0  0  0  0  0  0  0  0  0  0
  1  2  2  0
  1  4  1  0
  1  3  1  0
  3 23  1  0
  4  9  1  0
  4  7  2  0
  5  6  2  0
  5  7  1  0
  5 10  1  0
  6  8  1  0
  8 19  1  0
  8  9  2  0
 10 14  1  6
 10 11  1  0
 11 12  2  0
 11 13  1  0
 14 15  1  0
 15 16  1  0
 16 18  1  0
 16 17  2  0
 19 21  1  0
 19 20  1  0
 19 22  1  0
 23 25  1  0
 23 24  2  0
 24 29  1  0
 24 26  1  0
 25 27  2  0
 26 28  2  0
 27 31  1  0
 27 28  1  0
 29 30  2  0
 31 32  1  0
 32 33  1  0
 33 34  1  0
 34 35  1  0
M  END
>  <vina_dock>  (180) 
-8.404

$$$$
O14757_PocketFlow_idx-in-all-generaetd-270
     RDKit          3D

 21 23  0  0  0  0  0  0  0  0999 V2000
    2.5730   -4.9510   45.3820 C   0  0  0  0  0  0  0  0  0  0  0  0
    2.9210   -3.8140   44.4500 C   0  0  0  0  0  0  0  0  0  0  0  0
    2.2740   -2.2490   42.6950 C   0  0  0  0  0  0  0  0  0  0  0  0
    1.9570   -3.2960   43.5720 C   0  0  0  0  0  0  0  0  0  0  0  0
    3.5740   -1.7300   42.6820 C   0  0  0  0  0  0  0  0  0  0  0  0
    4.5380   -2.2390   43.5530 C   0  0  0  0  0  0  0  0  0  0  0  0
    4.2130   -3.2720   44.4350 C   0  0  0  0  0  0  0  0  0  0  0  0
    1.2100   -1.7470   41.7860 C   0  0  0  0  0  0  0  0  0  0  0  0
   -0.0570   -2.2230   41.9720 N   0  0  0  0  0  0  0  0  0  0  0  0
    1.4590   -0.9630   40.8790 O   0  0  0  0  0  0  0  0  0  0  0  0
    2.1880   -6.2240   44.6320 C   0  0  1  0  0  0  0  0  0  0  0  0
    2.3870   -7.4560   45.4760 C   0  0  0  0  0  0  0  0  0  0  0  0
    0.7080   -6.3900   44.4810 C   0  0  0  0  0  0  0  0  0  0  0  0
    1.3260   -8.1360   45.7720 N   0  0  0  0  0  0  0  0  0  0  0  0
    0.2910   -7.4720   45.1540 C   0  0  0  0  0  0  0  0  0  0  0  0
   -1.0990   -7.9660   45.2360 C   0  0  0  0  0  0  0  0  0  0  0  0
   -1.9510   -7.8310   44.1280 C   0  0  0  0  0  0  0  0  0  0  0  0
   -1.6090   -8.5940   46.3830 C   0  0  0  0  0  0  0  0  0  0  0  0
   -3.2700   -8.2930   44.1680 C   0  0  0  0  0  0  0  0  0  0  0  0
   -2.9280   -9.0570   46.4260 C   0  0  0  0  0  0  0  0  0  0  0  0
   -3.7590   -8.9060   45.3180 C   0  0  0  0  0  0  0  0  0  0  0  0
  1  2  1  0
 11  1  1  1
  2  4  2  0
  2  7  1  0
  3  8  1  0
  3  5  2  0
  3  4  1  0
  5  6  1  0
  6  7  2  0
  8 10  2  0
  8  9  1  0
 11 13  1  0
 11 12  1  0
 12 14  2  0
 13 15  2  0
 14 15  1  0
 15 16  1  0
 16 17  2  0
 16 18  1  0
 17 19  1  0
 18 20  2  0
 19 21  2  0
 20 21  1  0
M  END
>  <vina_dock>  (181) 
-8.791

$$$$
O14757_PocketFlow_idx-in-all-generaetd-255
     RDKit          3D

 35 38  0  0  0  0  0  0  0  0999 V2000
   10.5130   -1.5910   46.5120 C   0  0  0  0  0  0  0  0  0  0  0  0
    9.4670   -0.7420   46.1450 C   0  0  0  0  0  0  0  0  0  0  0  0
   10.2370   -2.9310   46.8010 C   0  0  0  0  0  0  0  0  0  0  0  0
    8.1630   -1.2430   46.0370 C   0  0  0  0  0  0  0  0  0  0  0  0
    7.8720   -2.5960   46.2940 C   0  0  0  0  0  0  0  0  0  0  0  0
    8.9280   -3.4370   46.6920 C   0  0  0  0  0  0  0  0  0  0  0  0
    6.5000   -3.1250   46.1500 C   0  0  0  0  0  0  0  0  0  0  0  0
    5.7290   -2.7680   45.0220 C   0  0  0  0  0  0  0  0  0  0  0  0
    4.4160   -3.2400   44.8290 C   0  0  0  0  0  0  0  0  0  0  0  0
    3.8260   -4.0850   45.7830 C   0  0  0  0  0  0  0  0  0  0  0  0
    4.5950   -4.4680   46.8920 C   0  0  0  0  0  0  0  0  0  0  0  0
    5.9150   -4.0090   47.0750 C   0  0  0  0  0  0  0  0  0  0  0  0
    6.5880   -4.4750   48.3180 C   0  0  0  0  0  0  0  0  0  0  0  0
    5.9420   -4.5420   49.3580 O   0  0  0  0  0  0  0  0  0  0  0  0
    7.8760   -4.8880   48.2640 O   0  0  0  0  0  0  0  0  0  0  0  0
    8.6410   -4.8660   47.0520 C   0  0  0  0  0  0  0  0  0  0  0  0
   11.9190   -1.1120   46.6450 C   0  0  0  0  0  0  0  0  0  0  0  0
   12.1200    0.2490   46.5310 N   0  0  0  0  0  0  0  0  0  0  0  0
   12.8280   -1.9170   46.8090 O   0  0  0  0  0  0  0  0  0  0  0  0
   13.4570    0.7900   46.5360 C   0  0  0  0  0  0  0  0  0  0  0  0
    3.6660   -2.7920   43.6240 C   0  0  0  0  0  0  0  0  0  0  0  0
    2.5330   -3.1350   43.3400 O   0  0  0  0  0  0  0  0  0  0  0  0
    4.4590   -1.9680   42.8910 O   0  0  0  0  0  0  0  0  0  0  0  0
    3.9490   -0.6400   42.7650 C   0  0  0  0  0  0  0  0  0  0  0  0
    2.4700   -4.6360   45.6260 C   0  0  0  0  0  0  0  0  0  0  0  0
    2.2260   -5.9370   45.3980 C   0  0  0  0  0  0  0  0  0  0  0  0
    0.8760   -6.5010   45.2670 C   0  0  0  0  0  0  0  0  0  0  0  0
    0.2780   -6.5360   43.9990 C   0  0  0  0  0  0  0  0  0  0  0  0
    0.1880   -7.0540   46.3540 C   0  0  0  0  0  0  0  0  0  0  0  0
   -0.9950   -7.0870   43.8200 C   0  0  0  0  0  0  0  0  0  0  0  0
   -1.0880   -7.6020   46.1740 C   0  0  0  0  0  0  0  0  0  0  0  0
   -1.6820   -7.6190   44.9090 C   0  0  0  0  0  0  0  0  0  0  0  0
   -1.8180   -8.1690   47.3250 C   0  0  0  0  0  0  0  0  0  0  0  0
   -2.9860   -8.5200   47.3020 O   0  0  0  0  0  0  0  0  0  0  0  0
   -1.1490   -8.3170   48.4780 F   0  0  0  0  0  0  0  0  0  0  0  0
  1  2  2  0
  1 17  1  0
  1  3  1  0
  2  4  1  0
  3  6  2  0
  4  5  2  0
  5  7  1  0
  5  6  1  0
  6 16  1  0
  7  8  2  0
  7 12  1  0
  8  9  1  0
  9 21  1  0
  9 10  2  0
 10 25  1  0
 10 11  1  0
 11 12  2  0
 12 13  1  0
 13 15  1  0
 13 14  2  0
 15 16  1  0
 17 18  1  0
 17 19  2  0
 18 20  1  0
 21 23  1  0
 21 22  2  0
 23 24  1  0
 25 26  2  3
 26 27  1  0
 27 28  2  0
 27 29  1  0
 28 30  1  0
 29 31  2  0
 30 32  2  0
 31 32  1  0
 31 33  1  0
 33 34  2  0
 33 35  1  0
M  END
>  <vina_dock>  (182) 
-9.782

$$$$
O14757_PocketFlow_idx-in-all-generaetd-38
     RDKit          3D

 35 40  0  0  0  0  0  0  0  0999 V2000
    0.7900   -5.7200   43.7970 C   0  0  0  0  0  0  0  0  0  0  0  0
    1.5670   -4.4160   43.7350 C   0  0  0  0  0  0  0  0  0  0  0  0
    7.0070   -3.3660   47.2190 C   0  0  0  0  0  0  0  0  0  0  0  0
    5.7370   -3.8020   47.6230 C   0  0  0  0  0  0  0  0  0  0  0  0
    7.1060   -2.8110   45.9320 C   0  0  0  0  0  0  0  0  0  0  0  0
    4.6280   -3.7190   46.7720 C   0  0  0  0  0  0  0  0  0  0  0  0
    5.9930   -2.7180   45.0660 C   0  0  0  0  0  0  0  0  0  0  0  0
    4.7280   -3.1960   45.4700 C   0  0  0  0  0  0  0  0  0  0  0  0
    6.1620   -2.0370   43.7270 C   0  0  0  0  0  0  0  0  0  0  0  0
    3.5330   -3.1770   44.5730 C   0  0  0  0  0  0  0  0  0  0  0  0
    5.3090   -0.8040   43.6810 C   0  0  0  0  0  0  0  0  0  0  0  0
    3.1680   -2.0850   43.7410 C   0  0  0  0  0  0  0  0  0  0  0  0
    2.7230   -4.3260   44.5280 C   0  0  0  0  0  0  0  0  0  0  0  0
    3.9690   -0.8350   43.7370 C   0  0  0  0  0  0  0  0  0  0  0  0
    2.0040   -2.1580   42.8980 C   0  0  0  0  0  0  0  0  0  0  0  0
    1.6150   -1.1090   42.0210 C   0  0  0  0  0  0  0  0  0  0  0  0
    1.1990   -3.3310   42.9050 C   0  0  0  0  0  0  0  0  0  0  0  0
    0.4850   -1.1830   41.2060 C   0  0  0  0  0  0  0  0  0  0  0  0
    0.0580   -3.3770   42.0670 C   0  0  0  0  0  0  0  0  0  0  0  0
   -0.2980   -2.3190   41.2330 C   0  0  0  0  0  0  0  0  0  0  0  0
    8.1670   -3.4670   48.1340 C   0  0  0  0  0  0  0  0  0  0  0  0
   12.8650   -3.5680   49.7920 C   0  0  0  0  0  0  0  0  0  0  0  0
   13.9970   -3.6410   50.5040 F   0  0  0  0  0  0  0  0  0  0  0  0
   12.9280   -3.3560   48.4240 C   0  0  0  0  0  0  0  0  0  0  0  0
   11.6410   -3.7040   50.4330 C   0  0  0  0  0  0  0  0  0  0  0  0
   11.7430   -3.2800   47.6860 C   0  0  0  0  0  0  0  0  0  0  0  0
   10.4540   -3.6270   49.6870 C   0  0  0  0  0  0  0  0  0  0  0  0
   10.5000   -3.4110   48.2920 C   0  0  0  0  0  0  0  0  0  0  0  0
    9.2000   -3.7560   50.2890 C   0  0  0  0  0  0  0  0  0  0  0  0
    9.3880   -3.3290   47.5400 N   0  0  0  0  0  0  0  0  0  0  0  0
    8.0540   -3.6750   49.5070 C   0  0  0  0  0  0  0  0  0  0  0  0
    6.8630   -3.7810   50.1140 F   0  0  0  0  0  0  0  0  0  0  0  0
    1.1710   -6.5540   45.0240 C   0  0  0  0  0  0  0  0  0  0  0  0
    0.0730   -7.5270   45.4570 C   0  0  0  0  0  0  0  0  0  0  0  0
   -1.1620   -7.4810   44.5720 C   0  0  0  0  0  0  0  0  0  0  0  0
  1  2  1  0
  1 33  1  0
  2 17  2  0
  2 13  1  0
  3  5  1  0
  3  4  2  0
  3 21  1  0
  4  6  1  0
  5  7  2  0
  6  8  2  0
  7  9  1  0
  7  8  1  0
  8 10  1  0
  9 11  1  0
 10 12  1  0
 10 13  2  0
 11 14  2  0
 12 15  2  0
 12 14  1  0
 15 16  1  0
 15 17  1  0
 16 18  2  0
 17 19  1  0
 18 20  1  0
 19 20  2  0
 21 30  2  0
 21 31  1  0
 22 24  2  0
 22 25  1  0
 22 23  1  0
 24 26  1  0
 25 27  2  0
 26 28  2  0
 27 28  1  0
 27 29  1  0
 28 30  1  0
 29 31  2  0
 31 32  1  0
 33 34  1  0
 34 35  1  0
M  END
>  <vina_dock>  (183) 
-9.273

$$$$
O14757_PocketFlow_idx-in-all-generaetd-4
     RDKit          3D

 20 22  0  0  0  0  0  0  0  0999 V2000
    0.8160   -5.2490   45.3170 C   0  0  0  0  0  0  0  0  0  0  0  0
    1.9330   -4.3210   44.8980 C   0  0  0  0  0  0  0  0  0  0  0  0
    7.8720   -3.3640   47.6090 C   0  0  0  0  0  0  0  0  0  0  0  0
    9.3450   -3.3030   48.4930 Cl  0  0  0  0  0  0  0  0  0  0  0  0
    6.8660   -4.2330   47.9990 C   0  0  0  0  0  0  0  0  0  0  0  0
    7.6890   -2.5400   46.5050 C   0  0  0  0  0  0  0  0  0  0  0  0
    5.6710   -4.2740   47.2730 C   0  0  0  0  0  0  0  0  0  0  0  0
    6.4900   -2.5760   45.7700 C   0  0  0  0  0  0  0  0  0  0  0  0
    5.4390   -3.4520   46.1380 C   0  0  0  0  0  0  0  0  0  0  0  0
    6.3410   -1.7350   44.6670 C   0  0  0  0  0  0  0  0  0  0  0  0
    4.2250   -3.4580   45.3590 C   0  0  0  0  0  0  0  0  0  0  0  0
    5.1700   -1.7290   43.9000 C   0  0  0  0  0  0  0  0  0  0  0  0
    3.1200   -4.3020   45.6530 C   0  0  0  0  0  0  0  0  0  0  0  0
    4.1000   -2.5910   44.2400 C   0  0  0  0  0  0  0  0  0  0  0  0
    5.1010   -0.7840   42.7250 C   0  0  0  0  0  0  0  0  0  0  0  0
    2.9000   -2.6100   43.4930 C   0  0  0  0  0  0  0  0  0  0  0  0
    1.8360   -3.4540   43.8130 C   0  0  0  0  0  0  0  0  0  0  0  0
    0.4210   -3.3710   42.8250 Cl  0  0  0  0  0  0  0  0  0  0  0  0
    0.8900   -6.5930   44.5910 C   0  0  0  0  0  0  0  0  0  0  0  0
   -0.4950   -7.1020   44.2240 C   0  0  0  0  0  0  0  0  0  0  0  0
  1 19  1  0
  1  2  1  0
  2 17  2  0
  2 13  1  0
  3  6  1  0
  3  5  2  0
  3  4  1  0
  5  7  1  0
  6  8  2  0
  7  9  2  0
  8 10  1  0
  8  9  1  0
  9 11  1  0
 10 12  2  0
 11 14  1  0
 11 13  2  0
 12 15  1  0
 12 14  1  0
 14 16  2  0
 16 17  1  0
 17 18  1  0
 19 20  1  0
M  END
>  <vina_dock>  (184) 
-8.888

$$$$
O14757_PocketFlow_idx-in-all-generaetd-683
     RDKit          3D

 19 20  0  0  0  0  0  0  0  0999 V2000
    1.4880   -4.1130   44.2630 C   0  0  0  0  0  0  0  0  0  0  0  0
    0.7070   -3.5420   43.2490 C   0  0  0  0  0  0  0  0  0  0  0  0
    1.2580   -2.6080   42.3720 C   0  0  0  0  0  0  0  0  0  0  0  0
    2.5940   -2.2300   42.5030 C   0  0  0  0  0  0  0  0  0  0  0  0
    3.3900   -2.7760   43.5170 C   0  0  0  0  0  0  0  0  0  0  0  0
    2.8300   -3.7190   44.3900 C   0  0  0  0  0  0  0  0  0  0  0  0
    0.9030   -5.1370   45.2180 C   0  0  2  0  0  0  0  0  0  0  0  0
    1.6640   -5.1970   46.3560 F   0  0  0  0  0  0  0  0  0  0  0  0
    0.8180   -6.5590   44.6010 C   0  0  1  0  0  0  0  0  0  0  0  0
    1.0440   -7.6940   45.6280 C   0  0  2  0  0  0  0  0  0  0  0  0
   -0.0140   -7.6780   46.7460 C   0  0  0  0  0  0  0  0  0  0  0  0
   -1.4240   -7.3300   46.2480 C   0  0  0  0  0  0  0  0  0  0  0  0
   -0.5350   -6.8080   43.8890 C   0  0  0  0  0  0  0  0  0  0  0  0
   -1.5710   -7.4910   44.7590 C   0  0  0  0  0  0  0  0  0  0  0  0
   -2.5400   -8.2490   44.2210 C   0  0  0  0  0  0  0  0  0  0  0  0
    2.3990   -7.7000   46.1820 N   0  0  0  0  0  0  0  0  0  0  0  0
    4.8360   -2.3690   43.6460 C   0  0  0  0  0  0  0  0  0  0  0  0
    4.9660   -0.9930   44.2420 C   0  0  0  0  0  0  0  0  0  0  0  0
    5.1910    0.0480   43.5110 N   0  0  0  0  0  0  0  0  0  0  0  0
  1  2  2  0
  1  6  1  0
  1  7  1  0
  2  3  1  0
  3  4  2  0
  4  5  1  0
  5 17  1  0
  5  6  2  0
  7  9  1  0
  7  8  1  1
  9 13  1  1
  9 10  1  0
 10 16  1  1
 10 11  1  0
 11 12  1  0
 12 14  1  0
 13 14  1  0
 14 15  2  0
 17 18  1  0
 18 19  2  3
M  END
>  <vina_dock>  (185) 
-8.239

$$$$
O14757_PocketFlow_idx-in-all-generaetd-554
     RDKit          3D

 35 37  0  0  0  0  0  0  0  0999 V2000
    4.7090   -2.6080   45.1670 C   0  0  0  0  0  0  0  0  0  0  0  0
    3.8620   -2.8940   44.0730 C   0  0  0  0  0  0  0  0  0  0  0  0
    3.9400   -2.0780   42.9240 C   0  0  0  0  0  0  0  0  0  0  0  0
    4.8200   -0.9990   42.8570 C   0  0  0  0  0  0  0  0  0  0  0  0
    5.6430   -0.7130   43.9400 C   0  0  0  0  0  0  0  0  0  0  0  0
    5.5870   -1.5090   45.0830 C   0  0  0  0  0  0  0  0  0  0  0  0
    4.7130   -3.4090   46.4510 C   0  0  0  0  0  0  0  0  0  0  0  0
    6.0610   -4.0960   46.6850 C   0  0  0  0  0  0  0  0  0  0  0  0
    6.4580   -4.0490   48.1340 C   0  0  0  0  0  0  0  0  0  0  0  0
    6.1590   -4.9350   49.0940 C   0  0  0  0  0  0  0  0  0  0  0  0
    5.3810   -6.0480   48.8940 N   0  0  0  0  0  0  0  0  0  0  0  0
    5.9000   -7.2790   48.5280 C   0  0  0  0  0  0  0  0  0  0  0  0
    7.0970   -7.5130   48.3870 O   0  0  0  0  0  0  0  0  0  0  0  0
    4.9070   -8.3760   48.3510 C   0  0  0  0  0  0  0  0  0  0  0  0
    3.2410   -9.5660   47.0350 C   0  0  0  0  0  0  0  0  0  0  0  0
    3.0850  -10.4710   48.0900 C   0  0  0  0  0  0  0  0  0  0  0  0
    4.1940   -8.5510   47.1550 C   0  0  0  0  0  0  0  0  0  0  0  0
    3.8050  -10.3200   49.2770 C   0  0  0  0  0  0  0  0  0  0  0  0
    4.7120   -9.2700   49.4100 C   0  0  0  0  0  0  0  0  0  0  0  0
    2.6190   -9.8100   45.8060 N   0  0  0  0  0  0  0  0  0  0  0  0
    2.8720   -4.0440   44.0490 C   0  0  0  0  0  0  0  0  0  0  0  0
    1.5050   -3.6430   44.5340 C   0  0  0  0  0  0  0  0  0  0  0  0
    0.6960   -4.2810   45.3980 C   0  0  0  0  0  0  0  0  0  0  0  0
    0.9540   -5.5560   46.0320 C   0  0  0  0  0  0  0  0  0  0  0  0
    0.6380   -6.7770   45.5700 C   0  0  0  0  0  0  0  0  0  0  0  0
   -0.0740   -7.1020   44.3520 C   0  0  0  0  0  0  0  0  0  0  0  0
   -1.3610   -7.4770   44.2550 C   0  0  0  0  0  0  0  0  0  0  0  0
   -2.3740   -7.6580   45.3520 C   0  0  0  0  0  0  0  0  0  0  0  0
   -2.8280   -9.1200   45.4400 C   0  0  0  0  0  0  0  0  0  0  0  0
   -2.3980   -9.8180   46.7450 C   0  0  0  0  0  0  0  0  0  0  0  0
   -3.0440   -9.1090   47.9480 C   0  0  0  0  0  0  0  0  0  0  0  0
   -0.8700   -9.8690   46.9100 C   0  0  0  0  0  0  0  0  0  0  0  0
   -2.6340   -9.7470   49.2740 C   0  0  0  0  0  0  0  0  0  0  0  0
   -0.4620  -10.4950   48.2430 C   0  0  0  0  0  0  0  0  0  0  0  0
   -1.1180   -9.7940   49.4270 C   0  0  0  0  0  0  0  0  0  0  0  0
  1  2  1  0
  1  6  2  0
  1  7  1  0
  2  3  2  0
  2 21  1  0
  3  4  1  0
  4  5  2  0
  5  6  1  0
  7  8  1  0
  8  9  1  0
  9 10  2  3
 10 11  1  0
 11 12  1  0
 12 14  1  0
 12 13  2  0
 14 17  1  0
 14 19  2  0
 15 20  1  0
 15 17  2  0
 15 16  1  0
 16 18  2  0
 18 19  1  0
 21 22  1  0
 22 23  2  3
 23 24  1  0
 24 25  2  3
 25 26  1  0
 26 27  2  3
 27 28  1  0
 28 29  1  0
 29 30  1  0
 30 32  1  0
 30 31  1  0
 31 33  1  0
 32 34  1  0
 33 35  1  0
 34 35  1  0
M  END
>  <vina_dock>  (186) 
-8.209

$$$$
O14757_PocketFlow_idx-in-all-generaetd-585
     RDKit          3D

 15 15  0  0  0  0  0  0  0  0999 V2000
    1.1440   -6.6280   44.6860 C   0  0  0  0  0  0  0  0  0  0  0  0
    0.2000   -7.6290   45.3230 C   0  0  0  0  0  0  0  0  0  0  0  0
   -1.2560   -7.4510   44.9770 C   0  0  0  0  0  0  0  0  0  0  0  0
    0.5890   -8.6060   46.1690 C   0  0  0  0  0  0  0  0  0  0  0  0
    1.9760   -8.9090   46.6400 C   0  0  0  0  0  0  0  0  0  0  0  0
    2.6290   -9.8140   45.7050 N   0  0  0  0  0  0  0  0  0  0  0  0
    0.8140   -5.1540   44.9740 C   0  0  0  0  0  0  0  0  0  0  0  0
    2.0230   -4.2610   45.0270 C   0  0  0  0  0  0  0  0  0  0  0  0
    2.6190   -3.7430   43.9400 C   0  0  0  0  0  0  0  0  0  0  0  0
    3.8010   -2.8710   43.9830 C   0  0  0  0  0  0  0  0  0  0  0  0
    3.8710   -1.7830   43.1020 C   0  0  0  0  0  0  0  0  0  0  0  0
    4.8350   -3.0540   44.9100 C   0  0  0  0  0  0  0  0  0  0  0  0
    4.9640   -0.9140   43.1300 C   0  0  0  0  0  0  0  0  0  0  0  0
    5.9280   -2.1850   44.9380 C   0  0  0  0  0  0  0  0  0  0  0  0
    5.9940   -1.1170   44.0460 C   0  0  0  0  0  0  0  0  0  0  0  0
  1  7  1  0
  1  2  1  0
  2  3  1  0
  2  4  2  3
  4  5  1  0
  5  6  1  0
  7  8  1  0
  8  9  2  3
  9 10  1  0
 10 11  2  0
 10 12  1  0
 11 13  1  0
 12 14  2  0
 13 15  2  0
 14 15  1  0
M  END
>  <vina_dock>  (187) 
-6.724

$$$$
O14757_PocketFlow_idx-in-all-generaetd-510
     RDKit          3D

 14 14  0  0  0  0  0  0  0  0999 V2000
    1.5620   -5.2630   45.0150 C   0  0  0  0  0  0  0  0  0  0  0  0
    0.3170   -6.0800   44.6870 C   0  0  0  0  0  0  0  0  0  0  0  0
   -0.3600   -6.5500   45.9430 C   0  0  0  0  0  0  0  0  0  0  0  0
   -0.2520   -7.6530   46.4510 O   0  0  0  0  0  0  0  0  0  0  0  0
   -1.1410   -5.6050   46.5000 O   0  0  0  0  0  0  0  0  0  0  0  0
    1.4420   -3.7840   44.6320 C   0  0  0  0  0  0  0  0  0  0  0  0
    2.0780   -3.3900   43.2820 C   0  0  1  0  0  0  0  0  0  0  0  0
    1.1100   -2.6240   42.3730 C   0  0  0  0  0  0  0  0  0  0  0  0
    3.3570   -2.5960   43.5110 C   0  0  0  0  0  0  0  0  0  0  0  0
    4.2990   -2.9770   44.4790 C   0  0  0  0  0  0  0  0  0  0  0  0
    3.6200   -1.4590   42.7320 C   0  0  0  0  0  0  0  0  0  0  0  0
    5.4690   -2.2370   44.6670 C   0  0  0  0  0  0  0  0  0  0  0  0
    4.7900   -0.7190   42.9210 C   0  0  0  0  0  0  0  0  0  0  0  0
    5.7130   -1.1080   43.8880 C   0  0  0  0  0  0  0  0  0  0  0  0
  1  6  1  0
  1  2  1  0
  2  3  1  0
  3  4  2  0
  3  5  1  0
  6  7  1  0
  7  8  1  6
  7  9  1  0
  9 11  2  0
  9 10  1  0
 10 12  2  0
 11 13  1  0
 12 14  1  0
 13 14  2  0
M  END
>  <vina_dock>  (188) 
-6.367

$$$$
O14757_PocketFlow_idx-in-all-generaetd-884
     RDKit          3D

 18 19  0  0  0  0  0  0  0  0999 V2000
   -0.0980   -2.9670   41.6790 C   0  0  0  0  0  0  0  0  0  0  0  0
    1.1560   -3.0050   42.5270 C   0  0  0  0  0  0  0  0  0  0  0  0
    5.6690   -1.8900   44.5920 C   0  0  0  0  0  0  0  0  0  0  0  0
    5.4990   -0.9950   43.5340 C   0  0  0  0  0  0  0  0  0  0  0  0
    4.6790   -2.8400   44.8650 C   0  0  0  0  0  0  0  0  0  0  0  0
    4.3420   -1.0510   42.7530 C   0  0  0  0  0  0  0  0  0  0  0  0
    3.5140   -2.9080   44.0830 C   0  0  0  0  0  0  0  0  0  0  0  0
    3.3420   -2.0000   43.0190 C   0  0  0  0  0  0  0  0  0  0  0  0
    2.5110   -3.8600   44.3370 C   0  0  0  0  0  0  0  0  0  0  0  0
    2.1650   -2.0580   42.2590 C   0  0  0  0  0  0  0  0  0  0  0  0
    1.3620   -3.9590   43.5380 C   0  0  0  0  0  0  0  0  0  0  0  0
    6.8550   -1.8350   45.3970 C   0  0  0  0  0  0  0  0  0  0  0  0
    7.8140   -1.7910   46.0470 N   0  0  0  0  0  0  0  0  0  0  0  0
    0.3650   -4.8740   43.9120 N   0  0  0  0  0  0  0  0  0  0  0  0
   -0.6850   -1.5860   41.5930 C   0  0  0  0  0  0  0  0  0  0  0  0
   -1.9560   -1.3340   41.2410 C   0  0  0  0  0  0  0  0  0  0  0  0
   -2.4990    0.0000   41.1690 C   0  0  0  0  0  0  0  0  0  0  0  0
   -3.7600    0.2550   40.8030 C   0  0  0  0  0  0  0  0  0  0  0  0
  1 15  1  0
  1  2  1  0
  2 10  2  0
  2 11  1  0
  3  4  2  0
  3  5  1  0
  3 12  1  0
  4  6  1  0
  5  7  2  0
  6  8  2  0
  7  8  1  0
  7  9  1  0
  8 10  1  0
  9 11  2  0
 11 14  1  0
 12 13  3  0
 15 16  2  3
 16 17  1  0
 17 18  2  0
M  END
>  <vina_dock>  (189) 
-7.921

$$$$
O14757_PocketFlow_idx-in-all-generaetd-346
     RDKit          3D

 35 38  0  0  0  0  0  0  0  0999 V2000
    4.4940   -5.1460   45.6110 C   0  0  0  0  0  0  0  0  0  0  0  0
    3.0600   -5.0310   45.1450 C   0  0  0  0  0  0  0  0  0  0  0  0
    1.3420   -3.9490   43.7960 C   0  0  0  0  0  0  0  0  0  0  0  0
    0.3950   -4.8350   44.3250 C   0  0  0  0  0  0  0  0  0  0  0  0
    2.6700   -4.0430   44.2320 C   0  0  0  0  0  0  0  0  0  0  0  0
    0.7560   -5.8230   45.2550 C   0  0  0  0  0  0  0  0  0  0  0  0
    2.0990   -5.9220   45.6390 C   0  0  0  0  0  0  0  0  0  0  0  0
    0.9880   -2.8940   42.8360 C   0  0  0  0  0  0  0  0  0  0  0  0
    1.8750   -2.2150   42.0880 C   0  0  0  0  0  0  0  0  0  0  0  0
    1.4900   -1.1190   41.1350 C   0  0  0  0  0  0  0  0  0  0  0  0
    2.0420    0.2300   41.5960 C   0  0  0  0  0  0  0  0  0  0  0  0
    3.3160    0.0620   42.4090 C   0  0  0  0  0  0  0  0  0  0  0  0
   -0.4700   -6.9190   45.8990 P   0  0  0  0  0  0  0  0  0  0  0  0
   -1.1130   -7.8700   44.9420 O   0  0  0  0  0  0  0  0  0  0  0  0
   -1.5320   -5.9740   46.6500 O   0  0  0  0  0  0  0  0  0  0  0  0
    0.1780   -7.6440   47.1810 O   0  0  0  0  0  0  0  0  0  0  0  0
    5.1150   -3.7760   45.9920 C   0  0  2  0  0  0  0  0  0  0  0  0
    5.2140   -2.8780   44.7420 C   0  0  0  0  0  0  0  0  0  0  0  0
    6.4080   -4.0020   46.6630 N   0  0  0  0  0  0  0  0  0  0  0  0
    6.0800   -1.6650   45.0410 C   0  0  0  0  0  0  0  0  0  0  0  0
    7.6020   -3.5370   45.9400 C   0  0  1  0  0  0  0  0  0  0  0  0
    7.5170   -2.0970   45.3580 C   0  0  2  0  0  0  0  0  0  0  0  0
    8.9340   -3.8420   46.6110 C   0  0  0  0  0  0  0  0  0  0  0  0
    8.2180   -1.0360   46.2040 C   0  0  0  0  0  0  0  0  0  0  0  0
    9.2590   -5.1800   46.9160 C   0  0  0  0  0  0  0  0  0  0  0  0
    9.8730   -2.8370   46.9020 C   0  0  0  0  0  0  0  0  0  0  0  0
    9.6680   -1.4050   46.4830 C   0  0  0  0  0  0  0  0  0  0  0  0
   10.4650   -5.5090   47.5320 C   0  0  0  0  0  0  0  0  0  0  0  0
   11.0890   -3.1830   47.5170 C   0  0  0  0  0  0  0  0  0  0  0  0
   11.3780   -4.5080   47.8380 C   0  0  0  0  0  0  0  0  0  0  0  0
    6.3630   -3.9950   48.1260 C   0  0  1  0  0  0  0  0  0  0  0  0
    6.3830   -5.3670   48.7920 C   0  0  0  0  0  0  0  0  0  0  0  0
    7.4900   -3.2680   48.6530 O   0  0  0  0  0  0  0  0  0  0  0  0
    7.8350   -3.6260   49.9900 C   0  0  0  0  0  0  0  0  0  0  0  0
    8.9280   -2.7210   50.5300 C   0  0  0  0  0  0  0  0  0  0  0  0
  1  2  1  0
 17  1  1  6
  2  5  1  0
  2  7  2  0
  3  8  1  0
  3  5  2  0
  3  4  1  0
  4  6  2  0
  6  7  1  0
  6 13  1  0
  8  9  2  3
  9 10  1  0
 10 11  1  0
 11 12  1  0
 13 14  2  0
 13 15  1  0
 13 16  1  0
 17 18  1  0
 17 19  1  0
 18 20  1  0
 21 19  1  1
 19 31  1  0
 22 20  1  1
 21 22  1  0
 21 23  1  0
 22 24  1  0
 23 26  2  0
 23 25  1  0
 24 27  1  0
 25 28  2  0
 26 27  1  0
 26 29  1  0
 28 30  1  0
 29 30  2  0
 31 33  1  0
 31 32  1  1
 33 34  1  0
 34 35  1  0
M  END
>  <vina_dock>  (190) 
-8.424

$$$$
O14757_PocketFlow_idx-in-all-generaetd-742
     RDKit          3D

 23 25  0  0  0  0  0  0  0  0999 V2000
    1.5290   -4.2660   43.5600 C   0  0  0  0  0  0  0  0  0  0  0  0
    2.7870   -4.1460   44.1840 C   0  0  0  0  0  0  0  0  0  0  0  0
    3.5730   -2.9980   43.9310 C   0  0  0  0  0  0  0  0  0  0  0  0
    1.0510   -3.2900   42.6840 C   0  0  0  0  0  0  0  0  0  0  0  0
    1.8030   -2.1410   42.4340 C   0  0  0  0  0  0  0  0  0  0  0  0
    3.0520   -2.0110   43.0580 C   0  0  0  0  0  0  0  0  0  0  0  0
    3.2560   -5.1570   45.0500 N   0  0  0  0  0  0  0  0  0  0  0  0
    0.6990   -5.3430   43.7350 O   0  0  0  0  0  0  0  0  0  0  0  0
    0.9810   -6.1280   44.8810 C   0  0  1  0  0  0  0  0  0  0  0  0
    2.4090   -6.0800   45.3740 C   0  0  0  0  0  0  0  0  0  0  0  0
    0.0080   -5.8570   46.0210 C   0  0  0  0  0  0  0  0  0  0  0  0
   -1.0920   -6.3700   46.1700 O   0  0  0  0  0  0  0  0  0  0  0  0
    0.4230   -4.9040   46.8820 O   0  0  0  0  0  0  0  0  0  0  0  0
    4.9030   -2.7680   44.5380 C   0  0  0  0  0  0  0  0  0  0  0  0
    5.7200   -1.6840   44.2150 C   0  0  0  0  0  0  0  0  0  0  0  0
    5.2690   -3.6700   45.4890 N   0  0  0  0  0  0  0  0  0  0  0  0
    6.9480   -1.5340   44.8580 C   0  0  0  0  0  0  0  0  0  0  0  0
    6.4660   -3.5040   46.0940 C   0  0  0  0  0  0  0  0  0  0  0  0
    7.3330   -2.4630   45.8140 C   0  0  0  0  0  0  0  0  0  0  0  0
    1.3020   -1.0830   41.4850 C   0  0  0  0  0  0  0  0  0  0  0  0
    1.5170   -1.4160   40.1830 F   0  0  0  0  0  0  0  0  0  0  0  0
    1.8960    0.1290   41.6650 F   0  0  0  0  0  0  0  0  0  0  0  0
   -0.0370   -0.8590   41.5950 F   0  0  0  0  0  0  0  0  0  0  0  0
  1  4  2  0
  1  8  1  0
  1  2  1  0
  2  3  2  0
  2  7  1  0
  3  6  1  0
  3 14  1  0
  4  5  1  0
  5 20  1  0
  5  6  2  0
  7 10  2  0
  8  9  1  0
  9 10  1  0
  9 11  1  1
 11 12  2  0
 11 13  1  0
 14 15  2  0
 14 16  1  0
 15 17  1  0
 16 18  2  0
 17 19  2  0
 18 19  1  0
 20 21  1  0
 20 23  1  0
 20 22  1  0
M  END
>  <vina_dock>  (191) 
-9.039

$$$$
O14757_PocketFlow_idx-in-all-generaetd-666
     RDKit          3D

 35 38  0  0  0  0  0  0  0  0999 V2000
    6.8090   -2.2290   45.7220 C   0  0  0  0  0  0  0  0  0  0  0  0
    6.5500   -1.1360   44.7200 C   0  0  0  0  0  0  0  0  0  0  0  0
    5.6420   -1.1420   43.7290 C   0  0  0  0  0  0  0  0  0  0  0  0
    4.7120   -2.2600   43.3490 C   0  0  0  0  0  0  0  0  0  0  0  0
    3.4160   -1.7500   42.7630 C   0  0  0  0  0  0  0  0  0  0  0  0
    1.0950   -2.1070   42.1320 C   0  0  0  0  0  0  0  0  0  0  0  0
    1.0150   -0.7930   41.6620 C   0  0  0  0  0  0  0  0  0  0  0  0
    2.2930   -2.5860   42.6750 C   0  0  0  0  0  0  0  0  0  0  0  0
    2.1300    0.0400   41.7360 C   0  0  0  0  0  0  0  0  0  0  0  0
    3.3240   -0.4360   42.2810 C   0  0  0  0  0  0  0  0  0  0  0  0
   -0.0790   -3.0130   42.0370 C   0  0  0  0  0  0  0  0  0  0  0  0
   -0.0450   -4.2460   42.4310 N   0  0  0  0  0  0  0  0  0  0  0  0
   -1.2600   -2.5540   41.5330 N   0  0  0  0  0  0  0  0  0  0  0  0
    5.6670   -2.4140   46.7340 C   0  0  0  0  0  0  0  0  0  0  0  0
    5.5760   -3.8230   47.2820 C   0  0  0  0  0  0  0  0  0  0  0  0
    6.2790   -4.1160   48.4650 C   0  0  0  0  0  0  0  0  0  0  0  0
    4.8640   -4.8580   46.6400 C   0  0  0  0  0  0  0  0  0  0  0  0
    6.2880   -5.4030   49.0060 C   0  0  0  0  0  0  0  0  0  0  0  0
    4.8920   -6.1520   47.1990 C   0  0  0  0  0  0  0  0  0  0  0  0
    5.5880   -6.4380   48.3820 C   0  0  0  0  0  0  0  0  0  0  0  0
    4.0580   -4.6570   45.3700 C   0  0  0  0  0  0  0  0  0  0  0  0
    2.7260   -5.3760   45.3670 C   0  0  0  0  0  0  0  0  0  0  0  0
    2.6430   -6.7210   44.9870 C   0  0  0  0  0  0  0  0  0  0  0  0
    1.5530   -4.7130   45.7470 C   0  0  0  0  0  0  0  0  0  0  0  0
    1.4120   -7.3870   44.9880 C   0  0  0  0  0  0  0  0  0  0  0  0
    0.3250   -5.3820   45.7490 C   0  0  0  0  0  0  0  0  0  0  0  0
    0.2320   -6.7300   45.3710 C   0  0  0  0  0  0  0  0  0  0  0  0
   -1.0600   -7.4350   45.3800 C   0  0  0  0  0  0  0  0  0  0  0  0
   -1.8050   -7.6000   44.2010 C   0  0  0  0  0  0  0  0  0  0  0  0
   -1.5860   -7.9650   46.5720 C   0  0  0  0  0  0  0  0  0  0  0  0
   -3.0330   -8.2690   44.2120 C   0  0  0  0  0  0  0  0  0  0  0  0
   -2.8130   -8.6340   46.5830 C   0  0  0  0  0  0  0  0  0  0  0  0
   -3.5360   -8.7860   45.4030 C   0  0  0  0  0  0  0  0  0  0  0  0
    5.6370   -7.8370   48.9440 C   0  0  0  0  0  0  0  0  0  0  0  0
    4.4730   -8.1520   49.7670 N   0  0  0  0  0  0  0  0  0  0  0  0
  1  2  1  0
  1 14  1  0
  2  3  2  3
  3  4  1  0
  4  5  1  0
  5 10  1  0
  5  8  2  0
  6  7  2  0
  6 11  1  0
  6  8  1  0
  7  9  1  0
  9 10  2  0
 11 13  1  0
 11 12  2  3
 14 15  1  0
 15 17  1  0
 15 16  2  0
 16 18  1  0
 17 21  1  0
 17 19  2  0
 18 20  2  0
 19 20  1  0
 20 34  1  0
 21 22  1  0
 22 23  2  0
 22 24  1  0
 23 25  1  0
 24 26  2  0
 25 27  2  0
 26 27  1  0
 27 28  1  0
 28 29  2  0
 28 30  1  0
 29 31  1  0
 30 32  2  0
 31 33  2  0
 32 33  1  0
 34 35  1  0
M  END
>  <vina_dock>  (192) 
-9.444

$$$$
O14757_PocketFlow_idx-in-all-generaetd-915
     RDKit          3D

 18 19  0  0  0  0  0  0  0  0999 V2000
    2.3640   -0.6620   41.8990 C   0  0  0  0  0  0  0  0  0  0  0  0
    1.6350   -1.7120   41.0540 C   0  0  0  0  0  0  0  0  0  0  0  0
    0.2190   -2.0030   41.5520 C   0  0  0  0  0  0  0  0  0  0  0  0
   -0.0890   -3.4890   41.5230 C   0  0  0  0  0  0  0  0  0  0  0  0
    0.3170   -4.0410   42.6970 F   0  0  0  0  0  0  0  0  0  0  0  0
    3.4620   -1.2350   42.7610 C   0  0  0  0  0  0  0  0  0  0  0  0
    4.5470   -0.4420   43.1520 C   0  0  0  0  0  0  0  0  0  0  0  0
    3.4060   -2.5720   43.1870 C   0  0  0  0  0  0  0  0  0  0  0  0
    5.5560   -0.9730   43.9540 C   0  0  0  0  0  0  0  0  0  0  0  0
    4.4170   -3.1160   43.9930 C   0  0  0  0  0  0  0  0  0  0  0  0
    5.4920   -2.3020   44.3740 C   0  0  0  0  0  0  0  0  0  0  0  0
    4.3440   -4.5550   44.4510 C   0  0  0  0  0  0  0  0  0  0  0  0
    2.9610   -5.0080   44.8580 C   0  0  0  0  0  0  0  0  0  0  0  0
    2.1170   -4.1590   45.5890 C   0  0  0  0  0  0  0  0  0  0  0  0
    2.5010   -6.2890   44.5180 C   0  0  0  0  0  0  0  0  0  0  0  0
    0.8410   -4.5800   45.9690 C   0  0  0  0  0  0  0  0  0  0  0  0
    1.2250   -6.7090   44.9010 C   0  0  0  0  0  0  0  0  0  0  0  0
    0.3970   -5.8550   45.6250 C   0  0  0  0  0  0  0  0  0  0  0  0
  1  2  1  0
  1  6  1  0
  2  3  1  0
  3  4  1  0
  4  5  1  0
  6  7  2  0
  6  8  1  0
  7  9  1  0
  8 10  2  0
  9 11  2  0
 10 11  1  0
 10 12  1  0
 12 13  1  0
 13 15  1  0
 13 14  2  0
 14 16  1  0
 15 17  2  0
 16 18  2  0
 17 18  1  0
M  END
>  <vina_dock>  (193) 
-7.324

$$$$
O14757_PocketFlow_idx-in-all-generaetd-437
     RDKit          3D

 29 32  0  0  0  0  0  0  0  0999 V2000
    0.7630   -5.6830   45.0890 C   0  0  0  0  0  0  0  0  0  0  0  0
    0.2650   -6.6390   44.1910 C   0  0  0  0  0  0  0  0  0  0  0  0
   -0.8140   -7.4590   44.5390 C   0  0  0  0  0  0  0  0  0  0  0  0
   -1.4460   -7.3340   45.7880 C   0  0  0  0  0  0  0  0  0  0  0  0
   -0.9490   -6.3730   46.6810 C   0  0  0  0  0  0  0  0  0  0  0  0
    0.1360   -5.5600   46.3370 C   0  0  0  0  0  0  0  0  0  0  0  0
    1.9080   -4.8280   44.7320 C   0  0  0  0  0  0  0  0  0  0  0  0
    0.6320   -2.5800   41.9230 C   0  0  1  0  0  0  0  0  0  0  0  0
    1.5270   -1.3630   42.1280 C   0  0  0  0  0  0  0  0  0  0  0  0
    0.4620   -3.3490   43.2350 C   0  0  0  0  0  0  0  0  0  0  0  0
    2.8440   -1.7590   42.7500 C   0  0  0  0  0  0  0  0  0  0  0  0
    1.7970   -3.7180   43.8590 C   0  0  0  0  0  0  0  0  0  0  0  0
    2.9260   -2.8980   43.5860 C   0  0  0  0  0  0  0  0  0  0  0  0
    3.9720   -0.9570   42.5250 C   0  0  0  0  0  0  0  0  0  0  0  0
    4.1750   -3.2200   44.1670 C   0  0  0  0  0  0  0  0  0  0  0  0
    5.1940   -1.2880   43.0990 C   0  0  0  0  0  0  0  0  0  0  0  0
    3.1650   -5.1250   45.2800 C   0  0  0  0  0  0  0  0  0  0  0  0
    5.2960   -2.4140   43.9110 C   0  0  0  0  0  0  0  0  0  0  0  0
    4.2820   -4.3370   45.0010 C   0  0  0  0  0  0  0  0  0  0  0  0
   -0.7110   -2.1400   41.3960 C   0  0  0  0  0  0  0  0  0  0  0  0
   -1.1550   -1.0050   41.3640 O   0  0  0  0  0  0  0  0  0  0  0  0
   -1.4440   -3.1700   40.9260 O   0  0  0  0  0  0  0  0  0  0  0  0
   -2.5990   -8.2500   46.1610 C   0  0  1  0  0  0  0  0  0  0  0  0
   -3.7600   -7.9910   45.3710 O   0  0  0  0  0  0  0  0  0  0  0  0
   -2.2580   -9.7210   46.1040 C   0  0  0  0  0  0  0  0  0  0  0  0
   -1.3590  -10.4260   46.8130 C   0  0  0  0  0  0  0  0  0  0  0  0
   -0.5220   -9.9110   47.8710 C   0  0  0  0  0  0  0  0  0  0  0  0
    0.7500   -9.4930   47.7480 C   0  0  0  0  0  0  0  0  0  0  0  0
    1.5920   -9.4200   46.5140 C   0  0  0  0  0  0  0  0  0  0  0  0
  1  2  2  0
  1  7  1  0
  1  6  1  0
  2  3  1  0
  3  4  2  0
  4 23  1  0
  4  5  1  0
  5  6  2  0
  7 12  2  0
  7 17  1  0
  8 20  1  1
  8  9  1  0
  8 10  1  0
  9 11  1  0
 10 12  1  0
 11 14  1  0
 11 13  2  0
 12 13  1  0
 13 15  1  0
 14 16  2  0
 15 18  2  0
 15 19  1  0
 16 18  1  0
 17 19  2  0
 20 22  1  0
 20 21  2  0
 23 24  1  6
 23 25  1  0
 25 26  2  3
 26 27  1  0
 27 28  2  3
 28 29  1  0
M  END
>  <vina_dock>  (194) 
-9.882

$$$$
O14757_PocketFlow_idx-in-all-generaetd-783
     RDKit          3D

 35 37  0  0  0  0  0  0  0  0999 V2000
   -0.0480   -7.0790   44.2620 C   0  0  0  0  0  0  0  0  0  0  0  0
   -1.1820   -7.4860   44.8550 C   0  0  0  0  0  0  0  0  0  0  0  0
    1.0740   -6.3020   44.8900 C   0  0  0  0  0  0  0  0  0  0  0  0
    0.7390   -4.8190   45.0410 C   0  0  0  0  0  0  0  0  0  0  0  0
    0.8310   -4.2140   43.7480 O   0  0  0  0  0  0  0  0  0  0  0  0
    1.8820   -3.3650   43.5190 C   0  0  0  0  0  0  0  0  0  0  0  0
    3.0850   -3.3730   44.2340 C   0  0  0  0  0  0  0  0  0  0  0  0
    1.7030   -2.4440   42.4720 C   0  0  0  0  0  0  0  0  0  0  0  0
    4.1250   -2.4780   43.9270 C   0  0  0  0  0  0  0  0  0  0  0  0
    0.4240   -2.4130   41.6800 C   0  0  0  0  0  0  0  0  0  0  0  0
    2.7410   -1.5600   42.1500 C   0  0  0  0  0  0  0  0  0  0  0  0
    3.9350   -1.5750   42.8710 C   0  0  0  0  0  0  0  0  0  0  0  0
    5.3790   -2.4850   44.6940 C   0  0  0  0  0  0  0  0  0  0  0  0
    5.6280   -3.4770   45.6630 C   0  0  0  0  0  0  0  0  0  0  0  0
    6.3600   -1.5050   44.4750 C   0  0  0  0  0  0  0  0  0  0  0  0
    6.8210   -3.4900   46.3910 C   0  0  0  0  0  0  0  0  0  0  0  0
    7.5550   -1.5160   45.1940 C   0  0  0  0  0  0  0  0  0  0  0  0
    7.7810   -2.5060   46.1460 C   0  0  0  0  0  0  0  0  0  0  0  0
    7.1670   -4.3960   47.3560 O   0  0  0  0  0  0  0  0  0  0  0  0
    7.8050   -3.8860   48.5210 C   0  0  0  0  0  0  0  0  0  0  0  0
   -1.5780   -7.2950   46.2960 C   0  0  0  0  0  0  0  0  0  0  0  0
   -2.3930   -8.4810   46.8630 C   0  0  1  0  0  0  0  0  0  0  0  0
   -2.6100   -9.5650   45.8000 C   0  0  0  0  0  0  0  0  0  0  0  0
   -1.6620   -9.0440   48.1050 C   0  0  0  0  0  0  0  0  0  0  0  0
   -0.7650  -10.2630   47.8450 C   0  0  0  0  0  0  0  0  0  0  0  0
    0.7060   -9.9330   47.8000 C   0  0  0  0  0  0  0  0  0  0  0  0
    1.3360   -9.6400   46.5850 C   0  0  0  0  0  0  0  0  0  0  0  0
    1.4700   -9.9330   48.9740 C   0  0  0  0  0  0  0  0  0  0  0  0
    2.7030   -9.3520   46.5430 C   0  0  0  0  0  0  0  0  0  0  0  0
    2.8360   -9.6460   48.9330 C   0  0  0  0  0  0  0  0  0  0  0  0
    3.4650   -9.3480   47.7190 C   0  0  0  0  0  0  0  0  0  0  0  0
    4.9440   -9.0560   47.6750 C   0  0  0  0  0  0  0  0  0  0  0  0
    5.3100   -7.7340   48.3220 C   0  0  0  0  0  0  0  0  0  0  0  0
    5.1850   -6.6340   47.5200 N   0  0  0  0  0  0  0  0  0  0  0  0
    5.6700   -7.6090   49.4880 O   0  0  0  0  0  0  0  0  0  0  0  0
  1  2  2  3
  1  3  1  0
  2 21  1  0
  3  4  1  0
  4  5  1  0
  5  6  1  0
  6  8  1  0
  6  7  2  0
  7  9  1  0
  8 10  1  0
  8 11  2  0
  9 12  2  0
  9 13  1  0
 11 12  1  0
 13 15  1  0
 13 14  2  0
 14 16  1  0
 15 17  2  0
 16 18  2  0
 16 19  1  0
 17 18  1  0
 19 20  1  0
 21 22  1  0
 22 23  1  6
 22 24  1  0
 24 25  1  0
 25 26  1  0
 26 27  2  0
 26 28  1  0
 27 29  1  0
 28 30  2  0
 29 31  2  0
 30 31  1  0
 31 32  1  0
 32 33  1  0
 33 34  1  0
 33 35  2  0
M  END
>  <vina_dock>  (195) 
-8.457

$$$$
O14757_PocketFlow_idx-in-all-generaetd-643
     RDKit          3D

 30 33  0  0  0  0  0  0  0  0999 V2000
   -0.6160   -2.2070   41.6110 C   0  0  0  0  0  0  0  0  0  0  0  0
   -0.0390   -3.2570   42.2260 N   0  0  0  0  0  0  0  0  0  0  0  0
    1.2550   -3.1400   42.5800 C   0  0  0  0  0  0  0  0  0  0  0  0
    1.9980   -2.0040   42.3780 C   0  0  0  0  0  0  0  0  0  0  0  0
    1.3060   -0.9880   41.7670 C   0  0  0  0  0  0  0  0  0  0  0  0
    0.0190   -1.0520   41.3960 N   0  0  0  0  0  0  0  0  0  0  0  0
    1.9460    0.1680   41.5250 F   0  0  0  0  0  0  0  0  0  0  0  0
   -1.9590   -2.3840   41.2910 N   0  0  0  0  0  0  0  0  0  0  0  0
   -2.8230   -1.4160   40.9080 C   0  0  0  0  0  0  0  0  0  0  0  0
   -2.8810   -0.2010   41.3150 N   0  0  0  0  0  0  0  0  0  0  0  0
   -3.6870   -1.8700   39.9620 N   0  0  0  0  0  0  0  0  0  0  0  0
    3.4380   -1.8900   42.7620 C   0  0  0  0  0  0  0  0  0  0  0  0
    3.7750   -2.6240   44.0380 C   0  0  0  0  0  0  0  0  0  0  0  0
    4.5660   -2.0220   45.0240 C   0  0  0  0  0  0  0  0  0  0  0  0
    3.2760   -3.9190   44.2620 C   0  0  0  0  0  0  0  0  0  0  0  0
    4.8540   -2.7010   46.2060 C   0  0  0  0  0  0  0  0  0  0  0  0
    3.5520   -4.6190   45.4500 C   0  0  0  0  0  0  0  0  0  0  0  0
    4.3500   -3.9860   46.4160 C   0  0  0  0  0  0  0  0  0  0  0  0
    3.0140   -5.9720   45.6750 C   0  0  0  0  0  0  0  0  0  0  0  0
    1.6600   -6.2650   45.4300 C   0  0  0  0  0  0  0  0  0  0  0  0
    3.8380   -7.0090   46.1400 C   0  0  0  0  0  0  0  0  0  0  0  0
    1.1240   -7.5510   45.6350 C   0  0  0  0  0  0  0  0  0  0  0  0
    3.3290   -8.2900   46.3510 C   0  0  0  0  0  0  0  0  0  0  0  0
    1.9830   -8.5570   46.0990 C   0  0  0  0  0  0  0  0  0  0  0  0
   -0.2980   -7.8290   45.3720 C   0  0  0  0  0  0  0  0  0  0  0  0
   -0.9010   -7.4370   44.1650 C   0  0  0  0  0  0  0  0  0  0  0  0
   -1.0930   -8.4940   46.3200 C   0  0  0  0  0  0  0  0  0  0  0  0
   -2.2500   -7.7000   43.9150 C   0  0  0  0  0  0  0  0  0  0  0  0
   -2.4430   -8.7590   46.0710 C   0  0  0  0  0  0  0  0  0  0  0  0
   -3.0210   -8.3620   44.8680 C   0  0  0  0  0  0  0  0  0  0  0  0
  1  8  1  0
  1  6  2  0
  1  2  1  0
  2  3  2  0
  3  4  1  0
  4  5  2  0
  4 12  1  0
  5  6  1  0
  5  7  1  0
  8  9  1  0
  9 11  1  0
  9 10  2  3
 12 13  1  0
 13 15  1  0
 13 14  2  0
 14 16  1  0
 15 17  2  0
 16 18  2  0
 17 19  1  0
 17 18  1  0
 19 20  2  0
 19 21  1  0
 20 22  1  0
 21 23  2  0
 22 25  1  0
 22 24  2  0
 23 24  1  0
 25 26  2  0
 25 27  1  0
 26 28  1  0
 27 29  2  0
 28 30  2  0
 29 30  1  0
M  END
>  <vina_dock>  (196) 
-10.277

$$$$
O14757_PocketFlow_idx-in-all-generaetd-814
     RDKit          3D

 18 19  0  0  0  0  0  0  0  0999 V2000
    2.4520   -3.7110   44.3020 C   0  0  0  0  0  0  0  0  0  0  0  0
    2.3240   -2.8980   43.2320 C   0  0  0  0  0  0  0  0  0  0  0  0
    3.3800   -2.0210   42.7870 C   0  0  0  0  0  0  0  0  0  0  0  0
    4.4460   -1.7650   43.5570 C   0  0  0  0  0  0  0  0  0  0  0  0
    4.6000   -2.4020   44.9190 C   0  0  1  0  0  0  0  0  0  0  0  0
    3.7490   -3.6960   45.1010 C   0  0  1  0  0  0  0  0  0  0  0  0
    3.5210   -3.8300   46.4400 F   0  0  0  0  0  0  0  0  0  0  0  0
    6.0770   -2.6340   45.2500 C   0  0  0  0  0  0  0  0  0  0  0  0
    1.3390   -4.5970   44.6470 C   0  0  0  0  0  0  0  0  0  0  0  0
    1.3600   -5.9380   44.7240 C   0  0  0  0  0  0  0  0  0  0  0  0
    0.1960   -6.7690   45.0770 C   0  0  0  0  0  0  0  0  0  0  0  0
   -0.0720   -7.1640   46.3960 C   0  0  0  0  0  0  0  0  0  0  0  0
   -1.2060   -7.9280   46.6950 C   0  0  0  0  0  0  0  0  0  0  0  0
   -2.0930   -8.2960   45.6840 C   0  0  0  0  0  0  0  0  0  0  0  0
   -0.7190   -7.1340   44.0810 C   0  0  0  0  0  0  0  0  0  0  0  0
   -1.8500   -7.8940   44.3730 C   0  0  0  0  0  0  0  0  0  0  0  0
   -0.5210   -6.7530   42.8100 F   0  0  0  0  0  0  0  0  0  0  0  0
    4.4890   -4.8580   44.7550 O   0  0  0  0  0  0  0  0  0  0  0  0
  1  2  2  0
  1  9  1  0
  1  6  1  0
  2  3  1  0
  3  4  2  0
  4  5  1  0
  5  6  1  0
  5  8  1  6
  6 18  1  6
  6  7  1  0
  9 10  2  3
 10 11  1  0
 11 15  1  0
 11 12  2  0
 12 13  1  0
 13 14  2  0
 14 16  1  0
 15 17  1  0
 15 16  2  0
M  END
>  <vina_dock>  (197) 
-7.999

$$$$
O14757_PocketFlow_idx-in-all-generaetd-2
     RDKit          3D

 30 32  0  0  0  0  0  0  0  0999 V2000
    6.0880   -1.8930   45.2080 C   0  0  0  0  0  0  0  0  0  0  0  0
    5.3930   -2.6750   44.0860 C   0  0  0  0  0  0  0  0  0  0  0  0
    4.6510   -1.8060   43.0480 C   0  0  2  0  0  0  0  0  0  0  0  0
    4.9040   -0.3070   43.2570 C   0  0  0  0  0  0  0  0  0  0  0  0
    3.1820   -2.1870   42.9320 C   0  0  0  0  0  0  0  0  0  0  0  0
    1.0190   -1.8100   41.9110 C   0  0  0  0  0  0  0  0  0  0  0  0
    0.2490   -1.1090   41.0690 F   0  0  0  0  0  0  0  0  0  0  0  0
    0.4660   -2.8650   42.6270 C   0  0  0  0  0  0  0  0  0  0  0  0
    2.3600   -1.4700   42.0530 C   0  0  0  0  0  0  0  0  0  0  0  0
    1.2560   -3.6110   43.5100 C   0  0  0  0  0  0  0  0  0  0  0  0
    2.6150   -3.2570   43.6480 C   0  0  0  0  0  0  0  0  0  0  0  0
    0.6880   -4.7370   44.2700 C   0  0  0  0  0  0  0  0  0  0  0  0
    0.2760   -5.9130   43.6220 C   0  0  0  0  0  0  0  0  0  0  0  0
    0.5410   -4.6670   45.6660 C   0  0  0  0  0  0  0  0  0  0  0  0
   -0.2630   -6.9830   44.3430 C   0  0  0  0  0  0  0  0  0  0  0  0
    0.0000   -5.7350   46.3880 C   0  0  0  0  0  0  0  0  0  0  0  0
   -0.4000   -6.8930   45.7260 C   0  0  0  0  0  0  0  0  0  0  0  0
    6.9450   -2.7980   46.0700 C   0  0  0  0  0  0  0  0  0  0  0  0
    6.4020   -3.6800   47.0330 C   0  0  0  0  0  0  0  0  0  0  0  0
    8.3400   -2.7380   45.9030 C   0  0  0  0  0  0  0  0  0  0  0  0
    7.2820   -4.4900   47.7810 C   0  0  0  0  0  0  0  0  0  0  0  0
    9.1920   -3.5420   46.6600 C   0  0  0  0  0  0  0  0  0  0  0  0
    8.6630   -4.4200   47.5970 C   0  0  0  0  0  0  0  0  0  0  0  0
    4.9080   -3.8230   47.2830 C   0  0  1  0  0  0  0  0  0  0  0  0
    4.2530   -2.6240   47.2300 F   0  0  0  0  0  0  0  0  0  0  0  0
    4.1800   -4.8020   46.3920 C   0  0  0  0  0  0  0  0  0  0  0  0
    4.0860   -6.1360   46.5290 C   0  0  0  0  0  0  0  0  0  0  0  0
    3.3620   -6.9650   45.5930 C   0  0  0  0  0  0  0  0  0  0  0  0
    2.9250   -8.2150   45.8090 C   0  0  0  0  0  0  0  0  0  0  0  0
    3.0740   -9.0590   47.0340 C   0  0  0  0  0  0  0  0  0  0  0  0
  1  2  1  0
  1 18  1  0
  2  3  1  0
  3  5  1  0
  3  4  1  1
  5  9  1  0
  5 11  2  0
  6  7  1  0
  6  9  2  0
  6  8  1  0
  8 10  2  0
 10 11  1  0
 10 12  1  0
 12 13  2  0
 12 14  1  0
 13 15  1  0
 14 16  2  0
 15 17  2  0
 16 17  1  0
 18 20  1  0
 18 19  2  0
 19 24  1  0
 19 21  1  0
 20 22  2  0
 21 23  2  0
 22 23  1  0
 24 26  1  0
 24 25  1  6
 26 27  2  3
 27 28  1  0
 28 29  2  3
 29 30  1  0
M  END
>  <vina_dock>  (198) 
-8.716

$$$$
O14757_PocketFlow_idx-in-all-generaetd-808
     RDKit          3D

 11 11  0  0  0  0  0  0  0  0999 V2000
    0.7520   -3.6130   43.1650 C   0  0  0  0  0  0  0  0  0  0  0  0
    0.3150   -2.9280   41.8710 C   0  0  0  0  0  0  0  0  0  0  0  0
   -1.0690   -2.5970   41.9300 O   0  0  0  0  0  0  0  0  0  0  0  0
    2.1970   -3.3300   43.5140 C   0  0  0  0  0  0  0  0  0  0  0  0
    2.8330   -2.1800   43.0240 C   0  0  0  0  0  0  0  0  0  0  0  0
    2.9250   -4.2210   44.3160 C   0  0  0  0  0  0  0  0  0  0  0  0
    4.1700   -1.9280   43.3430 C   0  0  0  0  0  0  0  0  0  0  0  0
    4.2620   -3.9660   44.6300 C   0  0  0  0  0  0  0  0  0  0  0  0
    4.8880   -2.8170   44.1460 C   0  0  0  0  0  0  0  0  0  0  0  0
    4.8430   -0.7150   42.8350 C   0  0  0  0  0  0  0  0  0  0  0  0
    4.3190    0.3920   42.8610 O   0  0  0  0  0  0  0  0  0  0  0  0
  1  2  1  0
  1  4  1  0
  2  3  1  0
  4  5  2  0
  4  6  1  0
  5  7  1  0
  6  8  2  0
  7 10  1  0
  7  9  2  0
  8  9  1  0
 10 11  2  0
M  END
>  <vina_dock>  (199) 
-5.791

$$$$
O14757_PocketFlow_idx-in-all-generaetd-332
     RDKit          3D

 14 15  0  0  0  0  0  0  0  0999 V2000
    0.5220   -2.6190   42.0190 C   0  0  0  0  0  0  0  0  0  0  0  0
    0.7300   -3.4930   43.0870 C   0  0  0  0  0  0  0  0  0  0  0  0
    1.9550   -3.4780   43.7630 C   0  0  0  0  0  0  0  0  0  0  0  0
    2.9840   -2.5970   43.3860 C   0  0  0  0  0  0  0  0  0  0  0  0
    2.7490   -1.7270   42.3080 C   0  0  0  0  0  0  0  0  0  0  0  0
    1.5280   -1.7360   41.6260 C   0  0  0  0  0  0  0  0  0  0  0  0
   -0.7720   -2.6370   41.3090 C   0  0  0  0  0  0  0  0  0  0  0  0
   -1.7140   -1.9320   41.6500 O   0  0  0  0  0  0  0  0  0  0  0  0
    4.2700   -2.5850   44.1030 C   0  0  0  0  0  0  0  0  0  0  0  0
    4.5750   -3.5700   45.0580 C   0  0  0  0  0  0  0  0  0  0  0  0
    5.2290   -1.5900   43.8540 C   0  0  0  0  0  0  0  0  0  0  0  0
    5.7950   -3.5600   45.7380 C   0  0  0  0  0  0  0  0  0  0  0  0
    6.4500   -1.5780   44.5340 C   0  0  0  0  0  0  0  0  0  0  0  0
    6.7320   -2.5640   45.4750 C   0  0  0  0  0  0  0  0  0  0  0  0
  1  7  1  0
  1  6  2  0
  1  2  1  0
  2  3  2  0
  3  4  1  0
  4  5  2  0
  4  9  1  0
  5  6  1  0
  7  8  2  0
  9 11  1  0
  9 10  2  0
 10 12  1  0
 11 13  2  0
 12 14  2  0
 13 14  1  0
M  END
>  <vina_dock>  (200) 
-7.544

$$$$
O14757_PocketFlow_idx-in-all-generaetd-813
     RDKit          3D

 35 36  0  0  0  0  0  0  0  0999 V2000
    4.4390   -3.4680   47.0250 C   0  0  0  0  0  0  0  0  0  0  0  0
    4.1300   -4.7370   46.2840 C   0  0  0  0  0  0  0  0  0  0  0  0
    3.6240   -4.8740   45.0400 C   0  0  0  0  0  0  0  0  0  0  0  0
    3.3290   -3.7130   44.1840 C   0  0  0  0  0  0  0  0  0  0  0  0
    1.7740   -2.4740   42.7890 C   0  0  0  0  0  0  0  0  0  0  0  0
    2.7710   -1.5330   42.5070 C   0  0  0  0  0  0  0  0  0  0  0  0
    2.0560   -3.5630   43.6230 C   0  0  0  0  0  0  0  0  0  0  0  0
    4.0390   -1.6870   43.0640 C   0  0  0  0  0  0  0  0  0  0  0  0
    5.2650   -0.5300   42.7170 Cl  0  0  0  0  0  0  0  0  0  0  0  0
    4.3210   -2.7670   43.8990 C   0  0  0  0  0  0  0  0  0  0  0  0
    0.4060   -2.3570   42.2310 C   0  0  0  0  0  0  0  0  0  0  0  0
   -0.0480   -1.3780   41.6680 O   0  0  0  0  0  0  0  0  0  0  0  0
   -0.3280   -3.4690   42.4090 O   0  0  0  0  0  0  0  0  0  0  0  0
    3.3910   -6.2350   44.4250 C   0  0  0  0  0  0  0  0  0  0  0  0
    2.3310   -7.0460   45.1730 C   0  0  0  0  0  0  0  0  0  0  0  0
    2.5690   -8.1410   45.6920 O   0  0  0  0  0  0  0  0  0  0  0  0
    0.9790   -6.3750   45.3530 C   0  0  0  0  0  0  0  0  0  0  0  0
    0.0210   -6.6910   44.2040 C   0  0  0  0  0  0  0  0  0  0  0  0
   -1.1200   -7.5860   44.6470 C   0  0  0  0  0  0  0  0  0  0  0  0
   -2.2450   -7.7700   43.8310 C   0  0  0  0  0  0  0  0  0  0  0  0
   -1.0820   -8.2190   45.8970 C   0  0  0  0  0  0  0  0  0  0  0  0
   -3.3050   -8.5770   44.2530 C   0  0  0  0  0  0  0  0  0  0  0  0
   -2.1410   -9.0300   46.3170 C   0  0  0  0  0  0  0  0  0  0  0  0
   -3.2530   -9.2100   45.4950 C   0  0  0  0  0  0  0  0  0  0  0  0
    5.5330   -3.7140   47.9070 O   0  0  0  0  0  0  0  0  0  0  0  0
    5.8680   -5.1020   48.0160 C   0  0  0  0  0  0  0  0  0  0  0  0
    7.0290   -5.2710   49.0040 C   0  0  2  0  0  0  0  0  0  0  0  0
    7.2440   -3.7710   49.9790 Cl  0  0  0  0  0  0  0  0  0  0  0  0
    8.3480   -5.6530   48.3120 C   0  0  0  0  0  0  0  0  0  0  0  0
    8.8260   -4.6970   47.2470 C   0  0  0  0  0  0  0  0  0  0  0  0
    9.8300   -3.8230   47.4180 C   0  0  0  0  0  0  0  0  0  0  0  0
   10.2920   -2.8500   46.3670 C   0  0  0  0  0  0  0  0  0  0  0  0
    9.7070   -1.4840   46.6000 C   0  0  0  0  0  0  0  0  0  0  0  0
    8.5140   -1.0110   46.1950 C   0  0  0  0  0  0  0  0  0  0  0  0
    7.4590   -1.7350   45.4200 C   0  0  0  0  0  0  0  0  0  0  0  0
  1  2  1  0
  1 25  1  0
  2  3  2  3
  3  4  1  0
  3 14  1  0
  4  7  2  0
  4 10  1  0
  5 11  1  0
  5  6  2  0
  5  7  1  0
  6  8  1  0
  8  9  1  0
  8 10  2  0
 11 12  2  0
 11 13  1  0
 14 15  1  0
 15 17  1  0
 15 16  2  0
 17 18  1  0
 18 19  1  0
 19 20  2  0
 19 21  1  0
 20 22  1  0
 21 23  2  0
 22 24  2  0
 23 24  1  0
 25 26  1  0
 26 27  1  0
 27 29  1  0
 27 28  1  6
 29 30  1  0
 30 31  2  3
 31 32  1  0
 32 33  1  0
 33 34  2  3
 34 35  1  0
M  END
>  <vina_dock>  (201) 
-8.45

$$$$
O14757_PocketFlow_idx-in-all-generaetd-37
     RDKit          3D

 35 39  0  0  0  0  0  0  0  0999 V2000
    2.1960   -5.0740   45.1100 C   0  0  0  0  0  0  0  0  0  0  0  0
    2.3230   -3.8510   44.5420 C   0  0  0  0  0  0  0  0  0  0  0  0
    3.5910   -3.1230   44.6710 C   0  0  0  0  0  0  0  0  0  0  0  0
    4.0020   -2.2340   43.7330 C   0  0  0  0  0  0  0  0  0  0  0  0
    3.1040   -1.8650   42.6470 C   0  0  0  0  0  0  0  0  0  0  0  0
    1.8270   -2.2810   42.6110 C   0  0  0  0  0  0  0  0  0  0  0  0
    1.2610   -3.2060   43.6590 C   0  0  0  0  0  0  0  0  0  0  0  0
    3.3510   -5.6910   45.8690 C   0  0  0  0  0  0  0  0  0  0  0  0
    5.3450   -1.6650   43.8390 C   0  0  0  0  0  0  0  0  0  0  0  0
    6.2780   -2.1960   44.6440 C   0  0  0  0  0  0  0  0  0  0  0  0
    5.9600   -3.3600   45.5400 C   0  0  0  0  0  0  0  0  0  0  0  0
    4.4600   -3.3950   45.8920 C   0  0  2  0  0  0  0  0  0  0  0  0
    4.0900   -4.6480   46.6950 C   0  0  0  0  0  0  0  0  0  0  0  0
    0.9740   -5.8810   45.0560 C   0  0  0  0  0  0  0  0  0  0  0  0
   -1.1520   -6.7740   46.2210 C   0  0  0  0  0  0  0  0  0  0  0  0
    0.1940   -6.0060   46.1690 C   0  0  0  0  0  0  0  0  0  0  0  0
   -1.4740   -7.4170   44.8780 C   0  0  0  0  0  0  0  0  0  0  0  0
   -0.6130   -7.1640   43.9430 C   0  0  0  0  0  0  0  0  0  0  0  0
    0.5040   -6.5250   43.8150 C   0  0  0  0  0  0  0  0  0  0  0  0
   -1.1110   -7.8600   47.3110 C   0  0  0  0  0  0  0  0  0  0  0  0
   -2.0790   -8.1000   48.0370 O   0  0  0  0  0  0  0  0  0  0  0  0
    0.1610   -8.6510   47.5160 C   0  0  0  0  0  0  0  0  0  0  0  0
    2.7800   -9.8980   47.6600 C   0  0  2  0  0  0  0  0  0  0  0  0
    1.8260  -10.3090   46.5390 C   0  0  0  0  0  0  0  0  0  0  0  0
    1.9860   -9.6160   48.9480 C   0  0  0  0  0  0  0  0  0  0  0  0
    0.7720   -9.2310   46.2620 C   0  0  0  0  0  0  0  0  0  0  0  0
    0.7040   -8.8530   48.7310 C   0  0  0  0  0  0  0  0  0  0  0  0
    3.4970   -8.7370   47.2140 O   0  0  0  0  0  0  0  0  0  0  0  0
    4.7610   -8.5700   47.8430 C   0  0  0  0  0  0  0  0  0  0  0  0
    0.8710   -1.8430   41.5620 C   0  0  0  0  0  0  0  0  0  0  0  0
    1.1320   -0.9670   40.7520 O   0  0  0  0  0  0  0  0  0  0  0  0
   -0.2850   -2.5480   41.6220 O   0  0  0  0  0  0  0  0  0  0  0  0
   -1.5060   -1.8090   41.4570 C   0  0  0  0  0  0  0  0  0  0  0  0
   -2.4520   -2.5680   40.5340 C   0  0  0  0  0  0  0  0  0  0  0  0
   -3.6300   -1.7190   40.0780 C   0  0  0  0  0  0  0  0  0  0  0  0
  1  2  2  0
  1 14  1  0
  1  8  1  0
  2  7  1  0
  2  3  1  0
  3  4  2  0
  3 12  1  0
  4  5  1  0
  4  9  1  0
  5  6  2  0
  6 30  1  0
  6  7  1  0
  8 13  1  0
  9 10  2  0
 10 11  1  0
 12 11  1  6
 12 13  1  0
 14 19  1  0
 14 16  2  0
 15 17  2  0
 15 16  1  0
 15 20  1  0
 17 18  1  0
 18 19  2  0
 20 22  1  0
 20 21  2  0
 22 26  1  0
 22 27  2  0
 23 24  1  0
 23 28  1  6
 23 25  1  0
 24 26  1  0
 25 27  1  0
 28 29  1  0
 30 31  2  0
 30 32  1  0
 32 33  1  0
 33 34  1  0
 34 35  1  0
M  END
>  <vina_dock>  (202) 
-9.357

$$$$
O14757_PocketFlow_idx-in-all-generaetd-400
     RDKit          3D

 15 16  0  0  0  0  0  0  0  0999 V2000
    1.9600   -4.7140   45.9490 N   0  0  0  0  0  0  0  0  0  0  0  0
    0.7430   -4.2390   46.0710 C   0  0  0  0  0  0  0  0  0  0  0  0
    2.3600   -4.3790   44.6690 C   0  0  0  0  0  0  0  0  0  0  0  0
    1.3480   -3.6960   44.0070 C   0  0  0  0  0  0  0  0  0  0  0  0
    0.3310   -3.6190   44.9280 N   0  0  0  0  0  0  0  0  0  0  0  0
    3.7120   -4.7780   44.1840 C   0  0  0  0  0  0  0  0  0  0  0  0
    4.6550   -3.6740   44.5950 C   0  0  0  0  0  0  0  0  0  0  0  0
    4.8230   -2.5370   43.7990 C   0  0  0  0  0  0  0  0  0  0  0  0
    5.3870   -3.7620   45.7850 C   0  0  0  0  0  0  0  0  0  0  0  0
    5.7060   -1.5540   44.2210 C   0  0  0  0  0  0  0  0  0  0  0  0
    6.2430   -2.7250   46.1210 C   0  0  0  0  0  0  0  0  0  0  0  0
    6.4220   -1.6220   45.3630 N   0  0  0  0  0  0  0  0  0  0  0  0
    1.2130   -3.1750   42.6980 C   0  0  0  0  0  0  0  0  0  0  0  0
    1.6250   -1.9490   42.3420 C   0  0  0  0  0  0  0  0  0  0  0  0
    1.4980   -1.4150   40.9500 C   0  0  0  0  0  0  0  0  0  0  0  0
  1  3  1  0
  1  2  2  0
  2  5  1  0
  3  4  2  0
  3  6  1  0
  4 13  1  0
  4  5  1  0
  6  7  1  0
  7  8  2  0
  7  9  1  0
  8 10  1  0
  9 11  2  0
 10 12  2  0
 11 12  1  0
 13 14  2  3
 14 15  1  0
M  END
>  <vina_dock>  (203) 
-6.369

$$$$
O14757_PocketFlow_idx-in-all-generaetd-942
     RDKit          3D

 20 19  0  0  0  0  0  0  0  0999 V2000
    0.3590   -3.3660   42.1100 C   0  0  0  0  0  0  0  0  0  0  0  0
    1.1030   -2.3440   41.2450 C   0  0  0  0  0  0  0  0  0  0  0  0
    0.7450   -0.8940   41.5930 C   0  0  0  0  0  0  0  0  0  0  0  0
    1.9410    0.0610   41.5710 C   0  0  0  0  0  0  0  0  0  0  0  0
    3.1040   -0.5430   42.2410 C   0  0  0  0  0  0  0  0  0  0  0  0
    4.0330   -1.0260   42.8290 C   0  0  0  0  0  0  0  0  0  0  0  0
    5.1090   -1.5770   43.5760 C   0  0  0  0  0  0  0  0  0  0  0  0
    5.0260   -1.7520   44.9040 C   0  0  0  0  0  0  0  0  0  0  0  0
    6.1490   -2.2980   45.7400 C   0  0  0  0  0  0  0  0  0  0  0  0
    7.4740   -1.6440   45.3800 C   0  0  0  0  0  0  0  0  0  0  0  0
    0.7780   -3.3500   43.5840 C   0  0  0  0  0  0  0  0  0  0  0  0
    2.2270   -3.8180   43.7890 C   0  0  0  0  0  0  0  0  0  0  0  0
    2.4540   -4.5200   45.1460 C   0  0  2  0  0  0  0  0  0  0  0  0
    3.5140   -5.6220   44.9830 C   0  0  0  0  0  0  0  0  0  0  0  0
    1.1680   -5.1640   45.7160 C   0  0  0  0  0  0  0  0  0  0  0  0
    0.9880   -6.6410   45.3630 C   0  0  0  0  0  0  0  0  0  0  0  0
   -0.0150   -6.8190   44.2560 C   0  0  0  0  0  0  0  0  0  0  0  0
   -1.1920   -7.4660   44.2970 C   0  0  0  0  0  0  0  0  0  0  0  0
   -1.7360   -8.1800   45.4280 C   0  0  0  0  0  0  0  0  0  0  0  0
   -2.8770   -8.8790   45.3630 C   0  0  0  0  0  0  0  0  0  0  0  0
  1  2  1  0
  1 11  1  0
  2  3  1  0
  3  4  1  0
  4  5  1  0
  5  6  3  0
  6  7  1  0
  7  8  2  3
  8  9  1  0
  9 10  1  0
 11 12  1  0
 12 13  1  0
 13 14  1  6
 13 15  1  0
 15 16  1  0
 16 17  1  0
 17 18  2  3
 18 19  1  0
 19 20  2  0
M  END
>  <vina_dock>  (204) 
-6.565

$$$$
O14757_PocketFlow_idx-in-all-generaetd-745
     RDKit          3D

 27 30  0  0  0  0  0  0  0  0999 V2000
    4.4900   -3.5880   44.6410 C   0  0  2  0  0  0  0  0  0  0  0  0
    3.3320   -4.2850   44.1630 O   0  0  0  0  0  0  0  0  0  0  0  0
    2.0890   -3.7110   44.5860 C   0  0  1  0  0  0  0  0  0  0  0  0
    0.3670   -4.6290   43.1940 O   0  0  0  0  0  0  0  0  0  0  0  0
    0.7180   -5.5690   44.2060 C   0  0  1  0  0  0  0  0  0  0  0  0
    1.1310   -3.4290   43.4300 C   0  0  0  0  0  0  0  0  0  0  0  0
    1.3270   -4.7720   45.3470 C   0  0  0  0  0  0  0  0  0  0  0  0
   -0.4690   -6.2910   44.6040 N   0  0  0  0  0  0  0  0  0  0  0  0
    4.6440   -3.9680   46.0880 C   0  0  0  0  0  0  0  0  0  0  0  0
    5.6840   -3.7730   46.9280 C   0  0  0  0  0  0  0  0  0  0  0  0
    6.9420   -3.0810   46.5780 C   0  0  0  0  0  0  0  0  0  0  0  0
    5.6840   -4.4750   48.2750 C   0  0  0  0  0  0  0  0  0  0  0  0
    6.9890   -1.8810   45.8610 C   0  0  0  0  0  0  0  0  0  0  0  0
    8.1430   -3.6650   47.0330 C   0  0  0  0  0  0  0  0  0  0  0  0
    6.9750   -4.5990   48.8750 O   0  0  0  0  0  0  0  0  0  0  0  0
    8.2140   -1.3110   45.5230 C   0  0  0  0  0  0  0  0  0  0  0  0
    8.0050   -4.8740   47.9230 C   0  0  0  0  0  0  0  0  0  0  0  0
    9.3890   -3.1150   46.6670 C   0  0  0  0  0  0  0  0  0  0  0  0
    9.4020   -1.9330   45.9080 C   0  0  0  0  0  0  0  0  0  0  0  0
   10.6660   -3.7280   47.0520 C   0  0  0  0  0  0  0  0  0  0  0  0
   11.3580   -3.2910   48.1900 C   0  0  0  0  0  0  0  0  0  0  0  0
   11.2230   -4.7640   46.2850 C   0  0  0  0  0  0  0  0  0  0  0  0
   12.5730   -3.8760   48.5560 C   0  0  0  0  0  0  0  0  0  0  0  0
   12.4380   -5.3490   46.6500 C   0  0  0  0  0  0  0  0  0  0  0  0
   13.1110   -4.9040   47.7860 C   0  0  0  0  0  0  0  0  0  0  0  0
    4.2310   -2.0810   44.5170 C   0  0  0  0  0  0  0  0  0  0  0  0
    4.6160   -1.5430   43.1440 C   0  0  0  0  0  0  0  0  0  0  0  0
  1  2  1  0
  1 26  1  1
  1  9  1  0
  3  2  1  6
  3  6  1  0
  3  7  1  0
  4  6  1  0
  4  5  1  0
  5  8  1  1
  5  7  1  0
  9 10  2  3
 10 11  1  0
 10 12  1  0
 11 13  1  0
 11 14  2  0
 12 15  1  0
 13 16  2  0
 14 18  1  0
 14 17  1  0
 15 17  1  0
 16 19  1  0
 18 19  2  0
 18 20  1  0
 20 22  1  0
 20 21  2  0
 21 23  1  0
 22 24  2  0
 23 25  2  0
 24 25  1  0
 26 27  1  0
M  END
>  <vina_dock>  (205) 
-7.187

$$$$
O14757_PocketFlow_idx-in-all-generaetd-644
     RDKit          3D

 13 13  0  0  0  0  0  0  0  0999 V2000
    0.1460   -3.4030   41.9170 C   0  0  0  0  0  0  0  0  0  0  0  0
    1.0140   -2.3730   41.1840 C   0  0  0  0  0  0  0  0  0  0  0  0
    0.6730   -0.9130   41.4940 C   0  0  0  0  0  0  0  0  0  0  0  0
    1.8770    0.0040   41.6140 C   0  0  0  0  0  0  0  0  0  0  0  0
    0.7600   -3.8680   43.2420 C   0  0  0  0  0  0  0  0  0  0  0  0
    2.0700   -3.1790   43.5020 C   0  0  0  0  0  0  0  0  0  0  0  0
    3.0910   -3.7470   44.1640 C   0  0  0  0  0  0  0  0  0  0  0  0
    4.3720   -3.0790   44.4360 C   0  0  0  0  0  0  0  0  0  0  0  0
    4.6610   -1.8760   43.7810 C   0  0  0  0  0  0  0  0  0  0  0  0
    5.2900   -3.5760   45.3710 C   0  0  0  0  0  0  0  0  0  0  0  0
    5.8550   -1.1950   44.0350 C   0  0  0  0  0  0  0  0  0  0  0  0
    6.4840   -2.8950   45.6260 C   0  0  0  0  0  0  0  0  0  0  0  0
    6.7670   -1.7070   44.9560 C   0  0  0  0  0  0  0  0  0  0  0  0
  1  2  1  0
  1  5  1  0
  2  3  1  0
  3  4  1  0
  5  6  1  0
  6  7  2  3
  7  8  1  0
  8  9  2  0
  8 10  1  0
  9 11  1  0
 10 12  2  0
 11 13  2  0
 12 13  1  0
M  END
>  <vina_dock>  (206) 
-6.448

$$$$
O14757_PocketFlow_idx-in-all-generaetd-690
     RDKit          3D

 22 24  0  0  0  0  0  0  0  0999 V2000
    2.9330   -5.5670   45.0970 C   0  0  0  0  0  0  0  0  0  0  0  0
    2.3360   -6.7140   45.4570 C   0  0  0  0  0  0  0  0  0  0  0  0
    2.3460   -4.5250   44.2380 C   0  0  0  0  0  0  0  0  0  0  0  0
    4.4480   -1.0340   43.0520 C   0  0  0  0  0  0  0  0  0  0  0  0
    3.1300   -1.2240   42.6130 C   0  0  0  0  0  0  0  0  0  0  0  0
    5.0760   -1.9660   43.8660 C   0  0  0  0  0  0  0  0  0  0  0  0
    2.4780   -0.1900   41.7280 C   0  0  0  0  0  0  0  0  0  0  0  0
    2.4210   -2.3980   43.0100 C   0  0  0  0  0  0  0  0  0  0  0  0
    4.3860   -3.1110   44.2570 C   0  0  0  0  0  0  0  0  0  0  0  0
    1.0920   -2.6550   42.6020 C   0  0  0  0  0  0  0  0  0  0  0  0
    3.0580   -3.3570   43.8460 C   0  0  0  0  0  0  0  0  0  0  0  0
    0.4060   -3.8040   42.9900 C   0  0  0  0  0  0  0  0  0  0  0  0
    1.0300   -4.7360   43.8060 C   0  0  0  0  0  0  0  0  0  0  0  0
    5.1280    0.0890   42.6700 O   0  0  0  0  0  0  0  0  0  0  0  0
    1.0140   -7.1480   45.0520 C   0  0  0  0  0  0  0  0  0  0  0  0
    0.1710   -7.7780   45.8850 C   0  0  0  0  0  0  0  0  0  0  0  0
   -1.1730   -8.2400   45.5060 C   0  0  0  0  0  0  0  0  0  0  0  0
   -1.7600   -7.7270   44.3420 C   0  0  0  0  0  0  0  0  0  0  0  0
   -1.8670   -9.2150   46.2370 C   0  0  0  0  0  0  0  0  0  0  0  0
   -3.0240   -8.1600   43.9310 C   0  0  0  0  0  0  0  0  0  0  0  0
   -3.1310   -9.6470   45.8250 C   0  0  0  0  0  0  0  0  0  0  0  0
   -3.7100   -9.1180   44.6740 C   0  0  0  0  0  0  0  0  0  0  0  0
  1  3  1  0
  1  2  2  3
  2 15  1  0
  3 13  1  0
  3 11  2  0
  4  5  2  0
  4 14  1  0
  4  6  1  0
  5  7  1  0
  5  8  1  0
  6  9  2  0
  8 10  2  0
  8 11  1  0
  9 11  1  0
 10 12  1  0
 12 13  2  0
 15 16  2  3
 16 17  1  0
 17 18  2  0
 17 19  1  0
 18 20  1  0
 19 21  2  0
 20 22  2  0
 21 22  1  0
M  END
>  <vina_dock>  (207) 
-9.349

$$$$
O14757_PocketFlow_idx-in-all-generaetd-675
     RDKit          3D

 18 20  0  0  0  0  0  0  0  0999 V2000
    1.5800   -2.2940   42.3470 C   0  0  0  0  0  0  0  0  0  0  0  0
    1.6520   -3.3930   43.2070 C   0  0  0  0  0  0  0  0  0  0  0  0
    2.7800   -3.5890   44.0090 C   0  0  0  0  0  0  0  0  0  0  0  0
    3.8600   -2.6950   43.9640 C   0  0  0  0  0  0  0  0  0  0  0  0
    3.7980   -1.5850   43.0950 C   0  0  0  0  0  0  0  0  0  0  0  0
    2.6590   -1.3990   42.2940 C   0  0  0  0  0  0  0  0  0  0  0  0
    4.8780   -0.6920   43.0500 C   0  0  0  0  0  0  0  0  0  0  0  0
    6.0040   -0.8920   43.8550 C   0  0  0  0  0  0  0  0  0  0  0  0
    6.0860   -1.9880   44.7250 C   0  0  0  0  0  0  0  0  0  0  0  0
    5.0010   -2.8810   44.7660 C   0  0  0  0  0  0  0  0  0  0  0  0
    0.3740   -2.0890   41.4670 C   0  0  0  0  0  0  0  0  0  0  0  0
   -0.3590   -3.3940   41.1990 C   0  0  0  0  0  0  0  0  0  0  0  0
    7.2720   -2.1990   45.5700 C   0  0  0  0  0  0  0  0  0  0  0  0
    7.4850   -3.4230   46.2270 C   0  0  0  0  0  0  0  0  0  0  0  0
    8.2260   -1.1830   45.7450 C   0  0  0  0  0  0  0  0  0  0  0  0
    8.6110   -3.6250   47.0290 C   0  0  0  0  0  0  0  0  0  0  0  0
    9.3520   -1.3820   46.5480 C   0  0  0  0  0  0  0  0  0  0  0  0
    9.5440   -2.6040   47.1890 C   0  0  0  0  0  0  0  0  0  0  0  0
  1 11  1  0
  1  6  2  0
  1  2  1  0
  2  3  2  0
  3  4  1  0
  4  5  2  0
  4 10  1  0
  5  6  1  0
  5  7  1  0
  7  8  2  0
  8  9  1  0
  9 10  2  0
  9 13  1  0
 11 12  1  0
 13 15  1  0
 13 14  2  0
 14 16  1  0
 15 17  2  0
 16 18  2  0
 17 18  1  0
M  END
>  <vina_dock>  (208) 
-9.124

$$$$
O14757_PocketFlow_idx-in-all-generaetd-171
     RDKit          3D

 14 14  0  0  0  0  0  0  0  0999 V2000
    0.1450   -2.8730   41.7010 C   0  0  0  0  0  0  0  0  0  0  0  0
    0.3800   -3.6740   42.8240 C   0  0  0  0  0  0  0  0  0  0  0  0
    1.5800   -3.5710   43.5370 C   0  0  0  0  0  0  0  0  0  0  0  0
    2.5640   -2.6590   43.1410 C   0  0  0  0  0  0  0  0  0  0  0  0
    2.3270   -1.8610   42.0150 C   0  0  0  0  0  0  0  0  0  0  0  0
    1.1260   -1.9640   41.3040 C   0  0  0  0  0  0  0  0  0  0  0  0
   -1.0900   -3.0270   41.0440 N   0  0  0  0  0  0  0  0  0  0  0  0
   -2.1490   -2.1590   41.0360 C   0  0  0  0  0  0  0  0  0  0  0  0
   -2.2250   -1.0420   41.5230 O   0  0  0  0  0  0  0  0  0  0  0  0
   -3.2220   -2.6810   40.3730 N   0  0  0  0  0  0  0  0  0  0  0  0
    3.8690   -2.5500   43.8940 C   0  0  0  0  0  0  0  0  0  0  0  0
    4.6920   -1.3780   43.4390 C   0  0  0  0  0  0  0  0  0  0  0  0
    5.9150   -1.0160   43.8580 C   0  0  0  0  0  0  0  0  0  0  0  0
    6.7580   -1.6750   44.9010 C   0  0  0  0  0  0  0  0  0  0  0  0
  1  7  1  0
  1  6  2  0
  1  2  1  0
  2  3  2  0
  3  4  1  0
  4  5  2  0
  4 11  1  0
  5  6  1  0
  7  8  1  0
  8 10  1  0
  8  9  2  0
 11 12  1  0
 12 13  2  3
 13 14  1  0
M  END
>  <vina_dock>  (209) 
-6.978

$$$$
O14757_PocketFlow_idx-in-all-generaetd-810
     RDKit          3D

 16 17  0  0  0  0  0  0  0  0999 V2000
    4.0040   -4.0150   46.7750 C   0  0  0  0  0  0  0  0  0  0  0  0
    4.9690   -3.1300   46.0150 C   0  0  0  0  0  0  0  0  0  0  0  0
    5.3910   -1.3670   44.3890 C   0  0  0  0  0  0  0  0  0  0  0  0
    4.4960   -2.1830   45.0920 C   0  0  0  0  0  0  0  0  0  0  0  0
    6.7660   -1.4940   44.6040 C   0  0  0  0  0  0  0  0  0  0  0  0
    7.2450   -2.4310   45.5190 C   0  0  0  0  0  0  0  0  0  0  0  0
    6.3520   -3.2440   46.2180 C   0  0  0  0  0  0  0  0  0  0  0  0
    4.8950   -0.4020   43.4510 C   0  0  0  0  0  0  0  0  0  0  0  0
    4.4910    0.3790   42.6940 N   0  0  0  0  0  0  0  0  0  0  0  0
    3.0950   -4.8390   45.8860 C   0  0  0  0  0  0  0  0  0  0  0  0
    2.0440   -4.1720   45.2250 C   0  0  0  0  0  0  0  0  0  0  0  0
    3.2380   -6.2300   45.7150 C   0  0  0  0  0  0  0  0  0  0  0  0
    1.1270   -4.8690   44.4410 C   0  0  0  0  0  0  0  0  0  0  0  0
    2.2660   -6.9220   44.9740 C   0  0  0  0  0  0  0  0  0  0  0  0
    1.2320   -6.2490   44.3240 C   0  0  0  0  0  0  0  0  0  0  0  0
    4.1840   -6.9850   46.4310 N   0  0  0  0  0  0  0  0  0  0  0  0
  1 10  1  0
  1  2  1  0
  2  4  2  0
  2  7  1  0
  3  8  1  0
  3  5  2  0
  3  4  1  0
  5  6  1  0
  6  7  2  0
  8  9  3  0
 10 11  2  0
 10 12  1  0
 11 13  1  0
 12 14  2  0
 12 16  1  0
 13 15  2  0
 14 15  1  0
M  END
>  <vina_dock>  (210) 
-6.822

$$$$
O14757_PocketFlow_idx-in-all-generaetd-386
     RDKit          3D

 17 19  0  0  0  0  0  0  0  0999 V2000
   -1.0880   -2.1590   41.6100 O   0  0  0  0  0  0  0  0  0  0  0  0
    0.0620   -2.3870   41.9810 C   0  0  0  0  0  0  0  0  0  0  0  0
    1.2630   -1.7780   41.2990 C   0  0  0  0  0  0  0  0  0  0  0  0
    2.3920   -1.5200   42.2790 C   0  0  0  0  0  0  0  0  0  0  0  0
    2.6610   -2.7300   43.1320 C   0  0  0  0  0  0  0  0  0  0  0  0
    3.9360   -2.9600   43.6600 C   0  0  0  0  0  0  0  0  0  0  0  0
    4.1490   -4.0300   44.5260 C   0  0  0  0  0  0  0  0  0  0  0  0
    3.0880   -4.8640   44.8840 C   0  0  0  0  0  0  0  0  0  0  0  0
    1.7940   -4.6490   44.3780 C   0  0  0  0  0  0  0  0  0  0  0  0
    1.5970   -3.5720   43.4890 C   0  0  0  0  0  0  0  0  0  0  0  0
    0.3200   -3.2960   42.9700 N   0  0  0  0  0  0  0  0  0  0  0  0
    0.7080   -5.5550   44.7800 C   0  0  0  0  0  0  0  0  0  0  0  0
    0.1440   -6.4550   43.8610 C   0  0  0  0  0  0  0  0  0  0  0  0
    0.2070   -5.5350   46.0910 C   0  0  0  0  0  0  0  0  0  0  0  0
   -0.8940   -7.3070   44.2410 C   0  0  0  0  0  0  0  0  0  0  0  0
   -0.8320   -6.3880   46.4710 C   0  0  0  0  0  0  0  0  0  0  0  0
   -1.3820   -7.2740   45.5460 C   0  0  0  0  0  0  0  0  0  0  0  0
  1  2  2  0
  2  3  1  0
  2 11  1  0
  3  4  1  0
  4  5  1  0
  5 10  2  0
  5  6  1  0
  6  7  2  0
  7  8  1  0
  8  9  2  0
  9 10  1  0
  9 12  1  0
 10 11  1  0
 12 13  2  0
 12 14  1  0
 13 15  1  0
 14 16  2  0
 15 17  2  0
 16 17  1  0
M  END
>  <vina_dock>  (211) 
-8.721

$$$$
O14757_PocketFlow_idx-in-all-generaetd-456
     RDKit          3D

 29 30  0  0  0  0  0  0  0  0999 V2000
    1.3930   -3.2450   43.6380 C   0  0  0  0  0  0  0  0  0  0  0  0
    1.7730   -4.5800   44.2480 C   0  0  0  0  0  0  0  0  0  0  0  0
    0.9870   -6.7590   45.0630 C   0  0  0  0  0  0  0  0  0  0  0  0
    2.3040   -7.1090   45.3560 C   0  0  0  0  0  0  0  0  0  0  0  0
    0.7360   -5.5030   44.4950 C   0  0  0  0  0  0  0  0  0  0  0  0
    3.3450   -6.2100   45.1140 C   0  0  0  0  0  0  0  0  0  0  0  0
    3.0990   -4.9400   44.5650 C   0  0  0  0  0  0  0  0  0  0  0  0
   -0.0860   -7.7340   45.3110 C   0  0  0  0  0  0  0  0  0  0  0  0
   -1.3850   -7.4740   45.0830 C   0  0  0  0  0  0  0  0  0  0  0  0
   -2.4980   -8.3940   45.3010 C   0  0  0  0  0  0  0  0  0  0  0  0
   -3.4760   -8.5710   44.3920 C   0  0  0  0  0  0  0  0  0  0  0  0
   -2.5280   -9.1910   46.5820 C   0  0  0  0  0  0  0  0  0  0  0  0
   -3.6730   -7.9580   43.1760 N   0  0  0  0  0  0  0  0  0  0  0  0
    4.2820   -4.0120   44.3720 C   0  0  0  0  0  0  0  0  0  0  0  0
    4.4580   -2.9900   45.5060 C   0  0  0  0  0  0  0  0  0  0  0  0
    5.8960   -2.8150   45.9560 C   0  0  0  0  0  0  0  0  0  0  0  0
    6.6800   -1.8400   45.3110 C   0  0  0  0  0  0  0  0  0  0  0  0
    6.4800   -3.5950   46.9790 C   0  0  0  0  0  0  0  0  0  0  0  0
    8.0150   -1.6380   45.6630 C   0  0  0  0  0  0  0  0  0  0  0  0
    5.7050   -4.6400   47.7340 C   0  0  0  0  0  0  0  0  0  0  0  0
    7.8250   -3.3750   47.3230 C   0  0  0  0  0  0  0  0  0  0  0  0
    8.5880   -2.4070   46.6690 C   0  0  0  0  0  0  0  0  0  0  0  0
    0.3280   -3.3420   42.5360 C   0  0  0  0  0  0  0  0  0  0  0  0
    0.8410   -2.9740   41.1700 C   0  0  0  0  0  0  0  0  0  0  0  0
    1.3950   -1.8120   40.7860 C   0  0  0  0  0  0  0  0  0  0  0  0
    1.6680   -0.5990   41.6380 C   0  0  0  0  0  0  0  0  0  0  0  0
    3.1630   -0.3570   41.8880 C   0  0  2  0  0  0  0  0  0  0  0  0
    3.6460   -1.3810   42.6360 F   0  0  0  0  0  0  0  0  0  0  0  0
    3.4380    0.8490   42.6520 N   0  0  0  0  0  0  0  0  0  0  0  0
  1 23  1  0
  1  2  1  0
  2  5  2  0
  2  7  1  0
  3  5  1  0
  3  8  1  0
  3  4  2  0
  4  6  1  0
  6  7  2  0
  7 14  1  0
  8  9  2  3
  9 10  1  0
 10 11  2  3
 10 12  1  0
 11 13  1  0
 14 15  1  0
 15 16  1  0
 16 17  2  0
 16 18  1  0
 17 19  1  0
 18 21  2  0
 18 20  1  0
 19 22  2  0
 21 22  1  0
 23 24  1  0
 24 25  2  3
 25 26  1  0
 26 27  1  0
 27 28  1  0
 27 29  1  1
M  END
>  <vina_dock>  (212) 
-8.932

$$$$
O14757_PocketFlow_idx-in-all-generaetd-28
     RDKit          3D

 23 22  0  0  0  0  0  0  0  0999 V2000
    3.7240   -5.5010   45.6900 C   0  0  0  0  0  0  0  0  0  0  0  0
    2.6930   -6.2530   44.8390 C   0  0  0  0  0  0  0  0  0  0  0  0
    1.2240   -5.9500   45.2240 C   0  0  2  0  0  0  0  0  0  0  0  0
    0.2820   -6.6680   44.2280 C   0  0  0  0  0  0  0  0  0  0  0  0
   -0.7910   -7.4800   44.9010 C   0  0  0  0  0  0  0  0  0  0  0  0
   -1.9510   -7.8150   44.3140 C   0  0  0  0  0  0  0  0  0  0  0  0
   -3.0170   -8.6260   44.9750 C   0  0  0  0  0  0  0  0  0  0  0  0
    0.9130   -4.4430   45.3550 C   0  0  0  0  0  0  0  0  0  0  0  0
    1.0370   -3.7070   44.0870 C   0  0  0  0  0  0  0  0  0  0  0  0
    1.1370   -3.1030   43.0530 C   0  0  0  0  0  0  0  0  0  0  0  0
    1.2580   -2.3700   41.7860 C   0  0  0  0  0  0  0  0  0  0  0  0
    2.2680   -1.2700   41.9260 C   0  0  0  0  0  0  0  0  0  0  0  0
    3.4300   -1.3870   42.5900 C   0  0  0  0  0  0  0  0  0  0  0  0
    4.4280   -0.2830   42.7250 C   0  0  0  0  0  0  0  0  0  0  0  0
    4.4130   -4.3580   44.9360 C   0  0  0  0  0  0  0  0  0  0  0  0
    4.3960   -3.0530   45.6850 C   0  0  0  0  0  0  0  0  0  0  0  0
    5.3870   -2.1500   45.7470 C   0  0  0  0  0  0  0  0  0  0  0  0
    6.7050   -2.2120   45.0330 C   0  0  0  0  0  0  0  0  0  0  0  0
    7.8390   -1.4410   45.7190 C   0  0  0  0  0  0  0  0  0  0  0  0
    8.6790   -2.2580   46.7090 C   0  0  0  0  0  0  0  0  0  0  0  0
    8.5380   -3.7750   46.5240 C   0  0  0  0  0  0  0  0  0  0  0  0
    7.9490   -4.5370   47.6830 C   0  0  0  0  0  0  0  0  0  0  0  0
    6.7780   -4.3200   48.2950 C   0  0  0  0  0  0  0  0  0  0  0  0
  1  2  1  0
  1 15  1  0
  3  2  1  6
  3  4  1  0
  3  8  1  0
  4  5  1  0
  5  6  2  3
  6  7  1  0
  8  9  1  0
  9 10  3  0
 10 11  1  0
 11 12  1  0
 12 13  2  3
 13 14  1  0
 15 16  1  0
 16 17  2  3
 17 18  1  0
 18 19  1  0
 19 20  1  0
 20 21  1  0
 21 22  1  0
 22 23  2  0
M  END
>  <vina_dock>  (213) 
-6.609

$$$$
O14757_PocketFlow_idx-in-all-generaetd-924
     RDKit          3D

 26 29  0  0  0  0  0  0  0  0999 V2000
    0.1250   -2.8920   41.7910 C   0  0  0  0  0  0  0  0  0  0  0  0
    0.5080   -3.6050   42.9220 C   0  0  0  0  0  0  0  0  0  0  0  0
    1.7660   -3.3800   43.5050 C   0  0  0  0  0  0  0  0  0  0  0  0
    1.0380   -1.9700   41.2920 C   0  0  0  0  0  0  0  0  0  0  0  0
    2.1840   -4.0820   44.6460 C   0  0  0  0  0  0  0  0  0  0  0  0
    3.4390   -3.8370   45.2040 C   0  0  0  0  0  0  0  0  0  0  0  0
    4.3020   -2.8890   44.6380 C   0  0  0  0  0  0  0  0  0  0  0  0
    2.2580   -1.7250   41.8270 N   0  0  0  0  0  0  0  0  0  0  0  0
    2.6160   -2.4210   42.9180 C   0  0  0  0  0  0  0  0  0  0  0  0
    3.8600   -2.1970   43.4950 C   0  0  0  0  0  0  0  0  0  0  0  0
   -1.1090   -3.0480   41.1380 N   0  0  0  0  0  0  0  0  0  0  0  0
   -2.1450   -2.1750   41.0960 C   0  0  0  0  0  0  0  0  0  0  0  0
   -2.2680   -1.0610   41.5660 O   0  0  0  0  0  0  0  0  0  0  0  0
   -3.1540   -2.7260   40.4010 O   0  0  0  0  0  0  0  0  0  0  0  0
    5.6270   -2.6220   45.2210 C   0  0  0  0  0  0  0  0  0  0  0  0
    6.1350   -3.4130   46.2620 C   0  0  0  0  0  0  0  0  0  0  0  0
    6.4250   -1.5670   44.7550 C   0  0  0  0  0  0  0  0  0  0  0  0
    7.3950   -3.1580   46.8170 C   0  0  0  0  0  0  0  0  0  0  0  0
    7.6850   -1.3120   45.3100 C   0  0  0  0  0  0  0  0  0  0  0  0
    8.1920   -2.1030   46.3500 C   0  0  0  0  0  0  0  0  0  0  0  0
    9.5170   -1.8360   46.9330 C   0  0  0  0  0  0  0  0  0  0  0  0
   10.6630   -1.7640   46.1230 C   0  0  0  0  0  0  0  0  0  0  0  0
    9.6750   -1.6450   48.3160 C   0  0  0  0  0  0  0  0  0  0  0  0
   11.9220   -1.5100   46.6750 C   0  0  0  0  0  0  0  0  0  0  0  0
   10.9330   -1.3910   48.8700 C   0  0  0  0  0  0  0  0  0  0  0  0
   12.0560   -1.3240   48.0490 C   0  0  0  0  0  0  0  0  0  0  0  0
  1 11  1  0
  1  4  2  0
  1  2  1  0
  2  3  2  0
  3  9  1  0
  3  5  1  0
  4  8  1  0
  5  6  2  0
  6  7  1  0
  7 10  2  0
  7 15  1  0
  8  9  2  0
  9 10  1  0
 11 12  1  0
 12 14  1  0
 12 13  2  0
 15 17  1  0
 15 16  2  0
 16 18  1  0
 17 19  2  0
 18 20  2  0
 19 20  1  0
 20 21  1  0
 21 22  2  0
 21 23  1  0
 22 24  1  0
 23 25  2  0
 24 26  2  0
 25 26  1  0
M  END
>  <vina_dock>  (214) 
-9.766

$$$$
O14757_PocketFlow_idx-in-all-generaetd-439
     RDKit          3D

 16 18  0  0  0  0  0  0  0  0999 V2000
    0.4570   -5.6350   44.4980 N   0  0  0  0  0  0  0  0  0  0  0  0
    1.3620   -4.6210   44.3490 C   0  0  0  0  0  0  0  0  0  0  0  0
    0.7850   -3.3400   43.8320 C   0  0  0  0  0  0  0  0  0  0  0  0
    1.4450   -3.0010   42.5080 C   0  0  0  0  0  0  0  0  0  0  0  0
    2.6950   -2.1620   42.7010 C   0  0  0  0  0  0  0  0  0  0  0  0
    3.7720   -2.5930   43.6750 C   0  0  0  0  0  0  0  0  0  0  0  0
    4.8730   -1.6960   43.7180 C   0  0  0  0  0  0  0  0  0  0  0  0
    5.9560   -1.9060   44.5580 C   0  0  0  0  0  0  0  0  0  0  0  0
    5.9890   -3.0040   45.3860 C   0  0  0  0  0  0  0  0  0  0  0  0
    4.9170   -3.8990   45.3580 C   0  0  0  0  0  0  0  0  0  0  0  0
    3.7810   -3.7360   44.5120 C   0  0  0  0  0  0  0  0  0  0  0  0
    2.7280   -4.7880   44.5990 C   0  0  0  0  0  0  0  0  0  0  0  0
    6.9700   -1.0320   44.5660 F   0  0  0  0  0  0  0  0  0  0  0  0
    0.9480   -6.8240   44.8990 C   0  0  0  0  0  0  0  0  0  0  0  0
    3.1900   -6.0110   44.9990 N   0  0  0  0  0  0  0  0  0  0  0  0
    2.2890   -7.0090   45.1400 C   0  0  0  0  0  0  0  0  0  0  0  0
  1  2  2  0
  1 14  1  0
  2  3  1  0
  2 12  1  0
  3  4  1  0
  4  5  1  0
  5  6  1  0
  6  7  1  0
  6 11  2  0
  7  8  2  0
  8 13  1  0
  8  9  1  0
  9 10  2  0
 10 11  1  0
 11 12  1  0
 12 15  2  0
 14 16  2  0
 15 16  1  0
M  END
>  <vina_dock>  (215) 
-7.762

$$$$
O14757_PocketFlow_idx-in-all-generaetd-313
     RDKit          3D

 35 36  0  0  0  0  0  0  0  0999 V2000
    8.2010   -1.3230   45.8980 C   0  0  0  0  0  0  0  0  0  0  0  0
    7.1000   -1.8940   45.0000 C   0  0  0  0  0  0  0  0  0  0  0  0
    5.7310   -1.5040   45.4890 C   0  0  0  0  0  0  0  0  0  0  0  0
    4.5630   -1.6660   44.8440 C   0  0  0  0  0  0  0  0  0  0  0  0
    4.3380   -2.3270   43.5120 C   0  0  0  0  0  0  0  0  0  0  0  0
    3.1450   -1.7570   42.7810 C   0  0  0  0  0  0  0  0  0  0  0  0
    0.8850   -2.0250   41.9060 C   0  0  0  0  0  0  0  0  0  0  0  0
    0.9280   -0.7200   41.4060 C   0  0  0  0  0  0  0  0  0  0  0  0
    1.9940   -2.5380   42.5910 C   0  0  0  0  0  0  0  0  0  0  0  0
    2.0700    0.0620   41.5840 C   0  0  0  0  0  0  0  0  0  0  0  0
    3.1740   -0.4550   42.2660 C   0  0  0  0  0  0  0  0  0  0  0  0
   -0.3050   -2.8830   41.7300 C   0  0  0  0  0  0  0  0  0  0  0  0
   -1.4970   -2.4650   41.5000 N   0  0  0  0  0  0  0  0  0  0  0  0
   -0.0520   -4.1930   41.8290 O   0  0  0  0  0  0  0  0  0  0  0  0
    8.9660   -2.3910   46.6690 C   0  0  0  0  0  0  0  0  0  0  0  0
    8.6680   -3.6950   46.4750 C   0  0  0  0  0  0  0  0  0  0  0  0
   10.0940   -1.8790   47.5460 C   0  0  0  0  0  0  0  0  0  0  0  0
    9.7730   -1.6920   49.0080 C   0  0  0  0  0  0  0  0  0  0  0  0
   10.4120   -2.1960   50.0710 C   0  0  0  0  0  0  0  0  0  0  0  0
    9.3150   -4.8220   47.1170 C   0  0  0  0  0  0  0  0  0  0  0  0
    9.0360   -5.3530   48.3200 C   0  0  0  0  0  0  0  0  0  0  0  0
    8.0080   -4.9370   49.2490 C   0  0  0  0  0  0  0  0  0  0  0  0
    6.6830   -5.0980   49.0970 C   0  0  0  0  0  0  0  0  0  0  0  0
    5.9320   -5.7650   47.9620 C   0  0  2  0  0  0  0  0  0  0  0  0
    4.9030   -4.8070   47.3110 C   0  0  0  0  0  0  0  0  0  0  0  0
    4.5500   -5.0150   45.8290 C   0  0  0  0  0  0  0  0  0  0  0  0
    3.1040   -5.3140   45.5230 C   0  0  0  0  0  0  0  0  0  0  0  0
    2.1160   -4.3500   45.7650 C   0  0  0  0  0  0  0  0  0  0  0  0
    2.7260   -6.5430   44.9650 C   0  0  0  0  0  0  0  0  0  0  0  0
    0.7760   -4.6200   45.4800 C   0  0  0  0  0  0  0  0  0  0  0  0
    1.3850   -6.8120   44.6830 C   0  0  0  0  0  0  0  0  0  0  0  0
    0.4110   -5.8520   44.9430 C   0  0  0  0  0  0  0  0  0  0  0  0
    5.3150   -7.1160   48.3830 C   0  0  1  0  0  0  0  0  0  0  0  0
    4.8470   -7.7410   47.2610 F   0  0  0  0  0  0  0  0  0  0  0  0
    6.3190   -8.0600   49.0320 C   0  0  0  0  0  0  0  0  0  0  0  0
  1  2  1  0
  1 15  1  0
  2  3  1  0
  3  4  2  3
  4  5  1  0
  5  6  1  0
  6 11  1  0
  6  9  2  0
  7  8  2  0
  7 12  1  0
  7  9  1  0
  8 10  1  0
 10 11  2  0
 12 13  2  3
 12 14  1  0
 15 16  2  3
 15 17  1  0
 16 20  1  0
 17 18  1  0
 18 19  2  0
 20 21  2  3
 21 22  1  0
 22 23  2  3
 23 24  1  0
 24 25  1  1
 24 33  1  0
 25 26  1  0
 26 27  1  0
 27 29  1  0
 27 28  2  0
 28 30  1  0
 29 31  2  0
 30 32  2  0
 31 32  1  0
 33 34  1  0
 33 35  1  6
M  END
>  <vina_dock>  (216) 
-7.457

$$$$
O14757_PocketFlow_idx-in-all-generaetd-738
     RDKit          3D

 10  9  0  0  0  0  0  0  0  0999 V2000
    2.5030   -3.4550   43.5880 C   0  0  0  0  0  0  0  0  0  0  0  0
    1.1680   -3.3120   43.6320 C   0  0  0  0  0  0  0  0  0  0  0  0
    3.3800   -3.5110   44.8070 C   0  0  0  0  0  0  0  0  0  0  0  0
    4.6270   -2.6420   44.6280 C   0  0  0  0  0  0  0  0  0  0  0  0
    4.6830   -1.9340   43.2730 C   0  0  0  0  0  0  0  0  0  0  0  0
    4.7660   -0.4190   43.3810 C   0  0  0  0  0  0  0  0  0  0  0  0
    0.2880   -3.2610   42.4170 C   0  0  0  0  0  0  0  0  0  0  0  0
    1.0680   -2.8600   41.1980 C   0  0  0  0  0  0  0  0  0  0  0  0
    1.5000   -1.6310   40.8670 C   0  0  0  0  0  0  0  0  0  0  0  0
    1.2730   -0.3580   41.6140 C   0  0  0  0  0  0  0  0  0  0  0  0
  1  2  2  3
  1  3  1  0
  2  7  1  0
  3  4  1  0
  4  5  1  0
  5  6  1  0
  7  8  1  0
  8  9  2  3
  9 10  1  0
M  END
>  <vina_dock>  (217) 
-5.098

$$$$
O14757_PocketFlow_idx-in-all-generaetd-315
     RDKit          3D

 11 11  0  0  0  0  0  0  0  0999 V2000
    3.4860   -2.5750   43.2990 C   0  0  0  0  0  0  0  0  0  0  0  0
    2.2970   -3.1720   43.4950 C   0  0  0  0  0  0  0  0  0  0  0  0
    4.7470   -2.7510   44.1190 C   0  0  0  0  0  0  0  0  0  0  0  0
    6.8440   -3.0150   45.9770 C   0  0  0  0  0  0  0  0  0  0  0  0
    5.4490   -3.1800   46.5620 C   0  0  0  0  0  0  0  0  0  0  0  0
    6.9230   -1.8110   45.0370 C   0  0  0  0  0  0  0  0  0  0  0  0
    4.3930   -3.3990   45.4750 C   0  0  0  0  0  0  0  0  0  0  0  0
    5.6000   -1.4930   44.3320 C   0  0  0  0  0  0  0  0  0  0  0  0
    1.0340   -3.0000   42.6900 C   0  0  0  0  0  0  0  0  0  0  0  0
    1.1430   -2.0780   41.5100 C   0  0  0  0  0  0  0  0  0  0  0  0
    0.7970   -0.7840   41.5240 C   0  0  0  0  0  0  0  0  0  0  0  0
  1  2  2  3
  1  3  1  0
  2  9  1  0
  3  8  1  0
  3  7  1  0
  4  6  1  0
  4  5  1  0
  5  7  1  0
  6  8  1  0
  9 10  1  0
 10 11  2  0
M  END
>  <vina_dock>  (218) 
-5.907

$$$$
O14757_PocketFlow_idx-in-all-generaetd-177
     RDKit          3D

 35 40  0  0  0  0  0  0  0  0999 V2000
   -0.0350   -6.5840   44.1540 C   0  0  0  0  0  0  0  0  0  0  0  0
    0.4110   -5.3960   44.5960 C   0  0  0  0  0  0  0  0  0  0  0  0
   -0.5660   -7.6420   45.0260 C   0  0  0  0  0  0  0  0  0  0  0  0
   -0.3640   -9.2220   46.8490 C   0  0  0  0  0  0  0  0  0  0  0  0
   -1.6940   -9.5960   46.7010 C   0  0  0  0  0  0  0  0  0  0  0  0
    0.2050   -8.2490   46.0270 C   0  0  0  0  0  0  0  0  0  0  0  0
   -2.4710   -8.9890   45.7170 C   0  0  0  0  0  0  0  0  0  0  0  0
   -1.9120   -8.0140   44.8880 C   0  0  0  0  0  0  0  0  0  0  0  0
    0.3610   -9.8340   47.8300 O   0  0  0  0  0  0  0  0  0  0  0  0
    0.9410   -4.3530   43.7060 C   0  0  0  0  0  0  0  0  0  0  0  0
    2.1440   -3.6860   43.9790 C   0  0  0  0  0  0  0  0  0  0  0  0
    0.1970   -3.9740   42.5830 C   0  0  0  0  0  0  0  0  0  0  0  0
    2.6210   -2.6700   43.1330 C   0  0  0  0  0  0  0  0  0  0  0  0
    0.6610   -2.9700   41.7300 C   0  0  0  0  0  0  0  0  0  0  0  0
    1.8680   -2.3260   42.0010 C   0  0  0  0  0  0  0  0  0  0  0  0
    3.8810   -1.9830   43.4340 C   0  0  0  0  0  0  0  0  0  0  0  0
    4.1160   -0.7150   42.8740 C   0  0  0  0  0  0  0  0  0  0  0  0
    4.8740   -2.5450   44.2620 C   0  0  0  0  0  0  0  0  0  0  0  0
    5.3030   -0.0240   43.1190 C   0  0  0  0  0  0  0  0  0  0  0  0
    4.7530   -3.9050   44.9140 C   0  0  0  0  0  0  0  0  0  0  0  0
    6.0720   -1.8430   44.5070 C   0  0  0  0  0  0  0  0  0  0  0  0
    6.2840   -0.5900   43.9270 C   0  0  0  0  0  0  0  0  0  0  0  0
    5.1740   -3.8660   46.4060 C   0  0  2  0  0  0  0  0  0  0  0  0
    7.1310   -2.5120   45.3380 C   0  0  0  0  0  0  0  0  0  0  0  0
    6.5600   -3.1800   46.6090 C   0  0  2  0  0  0  0  0  0  0  0  0
    5.2160   -5.2440   46.8230 O   0  0  0  0  0  0  0  0  0  0  0  0
    4.0730   -3.1230   47.1980 C   0  0  0  0  0  0  0  0  0  0  0  0
    7.6010   -4.1670   47.1620 C   0  0  0  0  0  0  0  0  0  0  0  0
    5.6670   -5.4860   48.1600 C   0  0  2  0  0  0  0  0  0  0  0  0
    7.1040   -4.9430   48.4020 C   0  0  1  0  0  0  0  0  0  0  0  0
    5.5450   -6.9990   48.3840 C   0  0  0  0  0  0  0  0  0  0  0  0
    8.1070   -6.0940   48.6800 C   0  0  0  0  0  0  0  0  0  0  0  0
    7.0930   -3.9990   49.6280 C   0  0  0  0  0  0  0  0  0  0  0  0
    6.1780   -7.4230   49.7000 C   0  0  0  0  0  0  0  0  0  0  0  0
    7.6580   -7.0560   49.7800 C   0  0  0  0  0  0  0  0  0  0  0  0
  1  2  2  3
  1  3  1  0
  2 10  1  0
  3  8  2  0
  3  6  1  0
  4  6  2  0
  4  5  1  0
  4  9  1  0
  5  7  2  0
  7  8  1  0
 10 12  1  0
 10 11  2  0
 11 13  1  0
 12 14  2  0
 13 15  2  0
 13 16  1  0
 14 15  1  0
 16 17  2  0
 16 18  1  0
 17 19  1  0
 18 21  2  0
 18 20  1  0
 19 22  2  0
 20 23  1  0
 21 22  1  0
 21 24  1  0
 23 25  1  0
 23 26  1  0
 23 27  1  1
 25 24  1  6
 25 28  1  0
 26 29  1  0
 28 30  1  0
 29 31  1  6
 29 30  1  0
 30 32  1  0
 30 33  1  1
 31 34  1  0
 32 35  1  0
 34 35  1  0
M  END
>  <vina_dock>  (219) 
-11.11

$$$$
O14757_PocketFlow_idx-in-all-generaetd-168
     RDKit          3D

 25 28  0  0  0  0  0  0  0  0999 V2000
   -0.1840   -9.1890   48.6590 C   0  0  0  0  0  0  0  0  0  0  0  0
    0.2710   -8.9670   47.4070 C   0  0  0  0  0  0  0  0  0  0  0  0
    1.7460   -8.9480   47.0410 C   0  0  0  0  0  0  0  0  0  0  0  0
    2.0710   -8.4360   45.6310 C   0  0  0  0  0  0  0  0  0  0  0  0
    1.1630   -7.2870   45.2670 C   0  0  2  0  0  0  0  0  0  0  0  0
    1.5760   -6.0290   45.0430 C   0  0  0  0  0  0  0  0  0  0  0  0
    0.7560   -4.8190   44.8150 C   0  0  0  0  0  0  0  0  0  0  0  0
    1.4740   -3.7470   44.6370 N   0  0  0  0  0  0  0  0  0  0  0  0
    2.7930   -4.1760   44.7560 C   0  0  0  0  0  0  0  0  0  0  0  0
    2.9110   -5.4960   44.9970 C   0  0  0  0  0  0  0  0  0  0  0  0
   -0.2500   -7.7290   45.2810 C   0  0  0  0  0  0  0  0  0  0  0  0
   -1.1240   -7.4070   44.2300 C   0  0  0  0  0  0  0  0  0  0  0  0
   -2.4300   -7.8950   44.2190 C   0  0  0  0  0  0  0  0  0  0  0  0
   -2.8650   -8.7310   45.2410 C   0  0  0  0  0  0  0  0  0  0  0  0
   -1.9950   -9.0830   46.2770 C   0  0  0  0  0  0  0  0  0  0  0  0
   -0.6810   -8.5840   46.3210 C   0  0  0  0  0  0  0  0  0  0  0  0
    0.5970   -9.5370   49.8530 C   0  0  0  0  0  0  0  0  0  0  0  0
    1.6840   -9.0010   50.2590 N   0  0  0  0  0  0  0  0  0  0  0  0
    0.0970  -10.4950   50.6280 O   0  0  0  0  0  0  0  0  0  0  0  0
    3.9160   -3.2280   44.6030 C   0  0  0  0  0  0  0  0  0  0  0  0
    3.8970   -2.2900   43.5570 C   0  0  0  0  0  0  0  0  0  0  0  0
    5.0100   -3.2070   45.4830 C   0  0  0  0  0  0  0  0  0  0  0  0
    4.9400   -1.3750   43.3860 C   0  0  0  0  0  0  0  0  0  0  0  0
    6.0540   -2.2910   45.3130 C   0  0  0  0  0  0  0  0  0  0  0  0
    6.0190   -1.3770   44.2630 C   0  0  0  0  0  0  0  0  0  0  0  0
  1  2  2  3
  1 17  1  0
  2 16  1  0
  2  3  1  0
  3  4  1  0
  4  5  1  0
  5  6  1  1
  5 11  1  0
  6  7  2  0
  6 10  1  0
  7  8  1  0
  8  9  2  0
  9 20  1  0
  9 10  1  0
 11 12  2  0
 11 16  1  0
 12 13  1  0
 13 14  2  0
 14 15  1  0
 15 16  2  0
 17 18  2  3
 17 19  1  0
 20 21  2  0
 20 22  1  0
 21 23  1  0
 22 24  2  0
 23 25  2  0
 24 25  1  0
M  END
>  <vina_dock>  (220) 
-9.814

$$$$
O14757_PocketFlow_idx-in-all-generaetd-390
     RDKit          3D

 15 16  0  0  0  0  0  0  0  0999 V2000
    3.3130   -2.9960   43.8990 C   0  0  0  0  0  0  0  0  0  0  0  0
    3.2180   -4.1250   44.7280 C   0  0  0  0  0  0  0  0  0  0  0  0
    4.2570   -4.4670   45.5950 C   0  0  0  0  0  0  0  0  0  0  0  0
    5.4100   -3.6830   45.6480 C   0  0  0  0  0  0  0  0  0  0  0  0
    5.5310   -2.5430   44.8470 C   0  0  0  0  0  0  0  0  0  0  0  0
    4.4840   -2.2190   43.9690 C   0  0  0  0  0  0  0  0  0  0  0  0
    2.2210   -2.6380   42.9780 C   0  0  0  0  0  0  0  0  0  0  0  0
    2.3360   -1.5350   42.1160 C   0  0  0  0  0  0  0  0  0  0  0  0
    1.0350   -3.3880   42.9360 C   0  0  0  0  0  0  0  0  0  0  0  0
    1.2990   -1.1940   41.2410 C   0  0  0  0  0  0  0  0  0  0  0  0
   -0.0020   -3.0490   42.0610 C   0  0  0  0  0  0  0  0  0  0  0  0
    0.1310   -1.9520   41.2150 C   0  0  0  0  0  0  0  0  0  0  0  0
    6.7730   -1.7600   44.9090 C   0  0  0  0  0  0  0  0  0  0  0  0
    7.6530   -1.8190   45.9210 C   0  0  0  0  0  0  0  0  0  0  0  0
    8.9160   -1.0240   45.9670 C   0  0  0  0  0  0  0  0  0  0  0  0
  1  7  1  0
  1  6  1  0
  1  2  2  0
  2  3  1  0
  3  4  2  0
  4  5  1  0
  5  6  2  0
  5 13  1  0
  7  8  2  0
  7  9  1  0
  8 10  1  0
  9 11  2  0
 10 12  2  0
 11 12  1  0
 13 14  2  3
 14 15  1  0
M  END
>  <vina_dock>  (221) 
-7.829

$$$$
O14757_PocketFlow_idx-in-all-generaetd-721
     RDKit          3D

  9  9  0  0  0  0  0  0  0  0999 V2000
    2.1530   -2.9960   43.2290 C   0  0  0  0  0  0  0  0  0  0  0  0
    2.6750   -1.8760   42.5700 C   0  0  0  0  0  0  0  0  0  0  0  0
    4.0100   -1.5110   42.7520 C   0  0  0  0  0  0  0  0  0  0  0  0
    4.8260   -2.2590   43.6010 C   0  0  0  0  0  0  0  0  0  0  0  0
    4.3090   -3.3670   44.2720 C   0  0  0  0  0  0  0  0  0  0  0  0
    2.9730   -3.7350   44.0910 C   0  0  0  0  0  0  0  0  0  0  0  0
    0.7250   -3.3450   43.0020 C   0  0  0  0  0  0  0  0  0  0  0  0
   -0.0260   -2.6120   42.3710 O   0  0  0  0  0  0  0  0  0  0  0  0
    0.2830   -4.5440   43.4900 N   0  0  0  0  0  0  0  0  0  0  0  0
  1  2  2  0
  1  7  1  0
  1  6  1  0
  2  3  1  0
  3  4  2  0
  4  5  1  0
  5  6  2  0
  7  8  2  0
  7  9  1  0
M  END
>  <vina_dock>  (222) 
-5.376

$$$$
O14757_PocketFlow_idx-in-all-generaetd-567
     RDKit          3D

 35 38  0  0  0  0  0  0  0  0999 V2000
    7.9330   -6.4320   49.1670 C   0  0  0  0  0  0  0  0  0  0  0  0
    8.3380   -7.5810   48.4720 C   0  0  0  0  0  0  0  0  0  0  0  0
    7.3830   -8.4630   47.9520 C   0  0  0  0  0  0  0  0  0  0  0  0
    6.0180   -8.1980   48.1180 C   0  0  0  0  0  0  0  0  0  0  0  0
    5.6140   -7.0570   48.8240 C   0  0  0  0  0  0  0  0  0  0  0  0
    6.5670   -6.1740   49.3390 C   0  0  0  0  0  0  0  0  0  0  0  0
    8.9080   -5.4590   49.7280 C   0  0  0  0  0  0  0  0  0  0  0  0
    9.8580   -5.7680   50.4270 O   0  0  0  0  0  0  0  0  0  0  0  0
    8.5910   -4.1980   49.3500 O   0  0  0  0  0  0  0  0  0  0  0  0
    9.2500   -3.7220   48.1570 C   0  0  1  0  0  0  0  0  0  0  0  0
    6.2530   -2.3520   45.2990 C   0  0  0  0  0  0  0  0  0  0  0  0
    5.9790   -3.3990   46.1880 C   0  0  0  0  0  0  0  0  0  0  0  0
    7.5240   -1.7610   45.3520 C   0  0  0  0  0  0  0  0  0  0  0  0
    6.9390   -3.8310   47.1070 C   0  0  0  0  0  0  0  0  0  0  0  0
    8.5020   -2.1900   46.2690 C   0  0  0  0  0  0  0  0  0  0  0  0
    8.2020   -3.2210   47.1750 C   0  0  0  0  0  0  0  0  0  0  0  0
    9.8530   -1.5150   46.2390 C   0  0  0  0  0  0  0  0  0  0  0  0
   10.8430   -2.0580   47.2420 C   0  0  0  0  0  0  0  0  0  0  0  0
   10.2930   -2.6530   48.5110 C   0  0  1  0  0  0  0  0  0  0  0  0
   12.0570   -1.9500   47.0540 O   0  0  0  0  0  0  0  0  0  0  0  0
    9.6260   -1.3180   49.5110 Cl  0  0  0  0  0  0  0  0  0  0  0  0
    5.2410   -1.8900   44.3360 C   0  0  0  0  0  0  0  0  0  0  0  0
    5.4430   -0.7190   43.5840 C   0  0  0  0  0  0  0  0  0  0  0  0
    4.0460   -2.6030   44.1450 C   0  0  0  0  0  0  0  0  0  0  0  0
    4.4820   -0.2740   42.6700 C   0  0  0  0  0  0  0  0  0  0  0  0
    3.0900   -2.1550   43.2300 C   0  0  0  0  0  0  0  0  0  0  0  0
    3.3020   -0.9940   42.4940 C   0  0  0  0  0  0  0  0  0  0  0  0
    1.4890   -3.1340   42.9950 Br  0  0  0  0  0  0  0  0  0  0  0  0
    4.9700   -9.1100   47.5850 C   0  0  0  0  0  0  0  0  0  0  0  0
    5.2320  -10.2880   47.3700 O   0  0  0  0  0  0  0  0  0  0  0  0
    3.7200   -8.5560   47.3970 N   0  0  0  0  0  0  0  0  0  0  0  0
    2.5830   -9.3840   47.0290 C   0  0  0  0  0  0  0  0  0  0  0  0
    1.5540   -8.6270   46.1790 C   0  0  0  0  0  0  0  0  0  0  0  0
    2.0480   -7.4650   45.3490 C   0  0  0  0  0  0  0  0  0  0  0  0
    1.6600   -6.1840   45.4090 C   0  0  0  0  0  0  0  0  0  0  0  0
  1  2  2  0
  1  6  1  0
  1  7  1  0
  2  3  1  0
  3  4  2  0
  4 29  1  0
  4  5  1  0
  5  6  2  0
  7  9  1  0
  7  8  2  0
 10  9  1  1
 10 16  1  0
 10 19  1  0
 11 22  1  0
 11 13  1  0
 11 12  2  0
 12 14  1  0
 13 15  2  0
 14 16  2  0
 15 17  1  0
 15 16  1  0
 17 18  1  0
 18 20  2  0
 18 19  1  0
 19 21  1  1
 22 23  2  0
 22 24  1  0
 23 25  1  0
 24 26  2  0
 25 27  2  0
 26 27  1  0
 26 28  1  0
 29 30  2  0
 29 31  1  0
 31 32  1  0
 32 33  1  0
 33 34  1  0
 34 35  2  0
M  END
>  <vina_dock>  (223) 
-8.199

$$$$
O14757_PocketFlow_idx-in-all-generaetd-441
     RDKit          3D

 20 21  0  0  0  0  0  0  0  0999 V2000
    3.3140   -7.1320   45.8290 C   0  0  0  0  0  0  0  0  0  0  0  0
    2.3790   -8.0890   45.7560 C   0  0  0  0  0  0  0  0  0  0  0  0
    3.1660   -5.7950   46.0900 N   0  0  0  0  0  0  0  0  0  0  0  0
    3.0710   -4.7180   45.1770 C   0  0  0  0  0  0  0  0  0  0  0  0
    1.8450   -1.2910   41.6550 C   0  0  0  0  0  0  0  0  0  0  0  0
    1.8320   -0.2940   40.7600 F   0  0  0  0  0  0  0  0  0  0  0  0
    0.7030   -2.0570   41.8400 C   0  0  0  0  0  0  0  0  0  0  0  0
    3.0020   -1.5390   42.3840 C   0  0  0  0  0  0  0  0  0  0  0  0
    0.7170   -3.0950   42.7700 C   0  0  0  0  0  0  0  0  0  0  0  0
    3.0290   -2.5780   43.3270 C   0  0  0  0  0  0  0  0  0  0  0  0
    1.8750   -3.3700   43.5220 C   0  0  0  0  0  0  0  0  0  0  0  0
    4.1800   -2.8450   44.0840 C   0  0  0  0  0  0  0  0  0  0  0  0
    1.9110   -4.4270   44.4460 C   0  0  0  0  0  0  0  0  0  0  0  0
    4.1850   -3.8550   45.0530 C   0  0  0  0  0  0  0  0  0  0  0  0
    5.3740   -4.1260   45.7740 N   0  0  0  0  0  0  0  0  0  0  0  0
    0.9600   -7.9090   45.9730 C   0  0  0  0  0  0  0  0  0  0  0  0
    0.1290   -7.4760   45.0120 C   0  0  0  0  0  0  0  0  0  0  0  0
   -1.2900   -7.2970   45.2240 C   0  0  0  0  0  0  0  0  0  0  0  0
   -2.2190   -7.9980   44.5580 C   0  0  0  0  0  0  0  0  0  0  0  0
   -3.6900   -7.8320   44.7610 C   0  0  0  0  0  0  0  0  0  0  0  0
  1  2  2  3
  1  3  1  0
  2 16  1  0
  3  4  1  0
  4 13  2  0
  4 14  1  0
  5  6  1  0
  5  7  2  0
  5  8  1  0
  7  9  1  0
  8 10  2  0
  9 11  2  0
 10 11  1  0
 10 12  1  0
 11 13  1  0
 12 14  2  0
 14 15  1  0
 16 17  2  3
 17 18  1  0
 18 19  2  3
 19 20  1  0
M  END
>  <vina_dock>  (224) 
-8.065

$$$$
O14757_PocketFlow_idx-in-all-generaetd-652
     RDKit          3D

 27 29  0  0  0  0  0  0  0  0999 V2000
    1.0960   -3.7000   44.0670 C   0  0  0  0  0  0  0  0  0  0  0  0
    1.3830   -4.5110   45.1020 C   0  0  0  0  0  0  0  0  0  0  0  0
    2.0530   -3.1140   43.0440 C   0  0  1  0  0  0  0  0  0  0  0  0
    1.3550   -1.9940   42.2580 C   0  0  0  0  0  0  0  0  0  0  0  0
    3.4040   -2.6700   43.5900 C   0  0  0  0  0  0  0  0  0  0  0  0
    7.8230   -2.1010   46.0530 C   0  0  0  0  0  0  0  0  0  0  0  0
    7.2310   -3.2550   46.5760 C   0  0  0  0  0  0  0  0  0  0  0  0
    7.1770   -1.3930   45.0320 C   0  0  0  0  0  0  0  0  0  0  0  0
    5.9890   -3.6810   46.0980 C   0  0  0  0  0  0  0  0  0  0  0  0
    5.9280   -1.8120   44.5460 C   0  0  0  0  0  0  0  0  0  0  0  0
    5.3230   -2.9660   45.0890 C   0  0  0  0  0  0  0  0  0  0  0  0
    5.2690   -1.1080   43.5280 C   0  0  0  0  0  0  0  0  0  0  0  0
    4.0710   -3.3820   44.6010 C   0  0  0  0  0  0  0  0  0  0  0  0
    4.0260   -1.5330   43.0540 C   0  0  0  0  0  0  0  0  0  0  0  0
    9.1430   -1.6070   46.5310 C   0  0  0  0  0  0  0  0  0  0  0  0
    9.4550   -1.8730   47.8490 N   0  0  0  0  0  0  0  0  0  0  0  0
    9.8720   -0.9700   45.7790 O   0  0  0  0  0  0  0  0  0  0  0  0
   10.6520   -1.3280   48.4400 C   0  0  0  0  0  0  0  0  0  0  0  0
    0.4280   -5.0920   46.1130 C   0  0  0  0  0  0  0  0  0  0  0  0
   -0.4870   -6.1610   45.5850 C   0  0  0  0  0  0  0  0  0  0  0  0
   -1.1050   -7.0670   46.3600 C   0  0  0  0  0  0  0  0  0  0  0  0
   -1.9950   -8.1210   45.8530 C   0  0  0  0  0  0  0  0  0  0  0  0
   -2.0130   -9.3620   46.5020 C   0  0  0  0  0  0  0  0  0  0  0  0
   -2.8670   -7.9100   44.7780 C   0  0  0  0  0  0  0  0  0  0  0  0
   -2.8660  -10.3810   46.0680 C   0  0  0  0  0  0  0  0  0  0  0  0
   -3.7210   -8.9290   44.3440 C   0  0  0  0  0  0  0  0  0  0  0  0
   -3.7190  -10.1630   44.9880 C   0  0  0  0  0  0  0  0  0  0  0  0
  1  3  1  0
  1  2  2  3
  2 19  1  0
  3  4  1  1
  3  5  1  0
  5 14  2  0
  5 13  1  0
  6  8  2  0
  6 15  1  0
  6  7  1  0
  7  9  2  0
  8 10  1  0
  9 11  1  0
 10 12  2  0
 10 11  1  0
 11 13  2  0
 12 14  1  0
 15 17  2  0
 15 16  1  0
 16 18  1  0
 19 20  1  0
 20 21  2  3
 21 22  1  0
 22 24  1  0
 22 23  2  0
 23 25  1  0
 24 26  2  0
 25 27  2  0
 26 27  1  0
M  END
>  <vina_dock>  (225) 
-9.697

$$$$
O14757_PocketFlow_idx-in-all-generaetd-286
     RDKit          3D

 22 24  0  0  0  0  0  0  0  0999 V2000
    1.1170   -5.2790   44.9430 N   0  0  0  0  0  0  0  0  0  0  0  0
    0.3460   -4.9740   46.1470 C   0  0  0  0  0  0  0  0  0  0  0  0
    0.7480   -4.4100   43.8170 C   0  0  0  0  0  0  0  0  0  0  0  0
    1.8200   -3.3960   43.4690 C   0  0  0  0  0  0  0  0  0  0  0  0
    4.0540   -2.4590   43.8660 C   0  0  0  0  0  0  0  0  0  0  0  0
    3.0360   -3.3790   44.1740 C   0  0  0  0  0  0  0  0  0  0  0  0
    3.8240   -1.5500   42.8210 C   0  0  0  0  0  0  0  0  0  0  0  0
    2.6220   -1.5580   42.1100 C   0  0  0  0  0  0  0  0  0  0  0  0
    1.6250   -2.4780   42.4310 C   0  0  0  0  0  0  0  0  0  0  0  0
    5.3180   -2.4470   44.6210 C   0  0  0  0  0  0  0  0  0  0  0  0
    7.4880   -1.4440   45.1120 C   0  0  0  0  0  0  0  0  0  0  0  0
    6.2890   -1.4550   44.3950 C   0  0  0  0  0  0  0  0  0  0  0  0
    7.7380   -2.4240   46.0700 C   0  0  0  0  0  0  0  0  0  0  0  0
    6.7910   -3.4150   46.3090 C   0  0  0  0  0  0  0  0  0  0  0  0
    5.5920   -3.4260   45.5910 C   0  0  0  0  0  0  0  0  0  0  0  0
    1.0830   -6.7070   44.5910 C   0  0  0  0  0  0  0  0  0  0  0  0
   -0.1500   -7.4870   44.9980 C   0  0  0  0  0  0  0  0  0  0  0  0
   -0.1520   -8.2700   46.1620 C   0  0  0  0  0  0  0  0  0  0  0  0
   -1.3130   -7.4490   44.2120 C   0  0  0  0  0  0  0  0  0  0  0  0
   -1.2890   -8.9880   46.5360 C   0  0  0  0  0  0  0  0  0  0  0  0
   -2.4490   -8.1670   44.5870 C   0  0  0  0  0  0  0  0  0  0  0  0
   -2.4370   -8.9350   45.7490 C   0  0  0  0  0  0  0  0  0  0  0  0
  1  3  1  0
  1 16  1  0
  1  2  1  0
  3  4  1  0
  4  9  1  0
  4  6  2  0
  5  7  2  0
  5  6  1  0
  5 10  1  0
  7  8  1  0
  8  9  2  0
 10 12  1  0
 10 15  2  0
 11 12  2  0
 11 13  1  0
 13 14  2  0
 14 15  1  0
 16 17  1  0
 17 19  1  0
 17 18  2  0
 18 20  1  0
 19 21  2  0
 20 22  2  0
 21 22  1  0
M  END
>  <vina_dock>  (226) 
-8.936

$$$$
O14757_PocketFlow_idx-in-all-generaetd-108
     RDKit          3D

 35 38  0  0  0  0  0  0  0  0999 V2000
    3.5890   -4.1620   46.1350 C   0  0  0  0  0  0  0  0  0  0  0  0
    2.2280   -3.8600   45.9870 C   0  0  0  0  0  0  0  0  0  0  0  0
    1.3990   -4.6900   45.2290 C   0  0  0  0  0  0  0  0  0  0  0  0
    1.9210   -5.8240   44.6070 C   0  0  0  0  0  0  0  0  0  0  0  0
    3.2670   -6.1500   44.7720 C   0  0  0  0  0  0  0  0  0  0  0  0
    4.0990   -5.3170   45.5240 C   0  0  0  0  0  0  0  0  0  0  0  0
    4.4890   -3.2770   46.9710 C   0  0  0  0  0  0  0  0  0  0  0  0
    5.4950   -2.5040   46.1480 C   0  0  2  0  0  0  0  0  0  0  0  0
    6.8370   -2.6030   46.2890 C   0  0  0  0  0  0  0  0  0  0  0  0
    7.8870   -1.7860   45.5440 C   0  0  0  0  0  0  0  0  0  0  0  0
    7.5400   -3.5100   47.2930 C   0  0  0  0  0  0  0  0  0  0  0  0
    9.1770   -2.1410   46.2220 C   0  0  0  0  0  0  0  0  0  0  0  0
    8.9830   -3.1170   47.2030 C   0  0  0  0  0  0  0  0  0  0  0  0
   10.4400   -1.6300   45.9620 C   0  0  0  0  0  0  0  0  0  0  0  0
   10.0450   -3.6060   47.9470 C   0  0  0  0  0  0  0  0  0  0  0  0
   11.5240   -2.1130   46.7080 C   0  0  0  0  0  0  0  0  0  0  0  0
   11.3230   -3.0980   47.6970 C   0  0  0  0  0  0  0  0  0  0  0  0
    4.8690   -1.5430   45.2040 C   0  0  0  0  0  0  0  0  0  0  0  0
    4.7200   -1.7270   44.0090 O   0  0  0  0  0  0  0  0  0  0  0  0
    4.5190   -0.3800   45.7730 O   0  0  0  0  0  0  0  0  0  0  0  0
   12.8680   -1.5610   46.4190 C   0  0  0  0  0  0  0  0  0  0  0  0
   13.7460   -1.3560   47.2350 O   0  0  0  0  0  0  0  0  0  0  0  0
   13.0540   -1.2870   45.1140 O   0  0  0  0  0  0  0  0  0  0  0  0
    1.0290   -6.6070   43.9110 O   0  0  0  0  0  0  0  0  0  0  0  0
    0.1120   -7.3330   44.6340 C   0  0  0  0  0  0  0  0  0  0  0  0
   -1.2310   -7.4260   44.2590 C   0  0  0  0  0  0  0  0  0  0  0  0
    0.5570   -7.9190   45.8190 C   0  0  0  0  0  0  0  0  0  0  0  0
   -2.1360   -8.1500   45.0480 C   0  0  0  0  0  0  0  0  0  0  0  0
   -0.3390   -8.6330   46.6200 C   0  0  0  0  0  0  0  0  0  0  0  0
   -1.6810   -8.7500   46.2320 C   0  0  0  0  0  0  0  0  0  0  0  0
   -3.5870   -8.2510   44.6480 C   0  0  0  0  0  0  0  0  0  0  0  0
   -3.7600   -8.2030   43.1380 C   0  0  0  0  0  0  0  0  0  0  0  0
    0.1750   -9.2410   47.8700 C   0  0  0  0  0  0  0  0  0  0  0  0
    0.4160  -10.4210   48.0420 O   0  0  0  0  0  0  0  0  0  0  0  0
    0.3700   -8.3390   48.8480 O   0  0  0  0  0  0  0  0  0  0  0  0
  1  6  1  0
  1  2  2  0
  1  7  1  0
  2  3  1  0
  3  4  2  0
  4 24  1  0
  4  5  1  0
  5  6  2  0
  8  7  1  1
  8 18  1  0
  8  9  1  0
  9 10  2  0
  9 11  1  0
 10 12  1  0
 11 13  2  0
 12 14  1  0
 12 13  1  0
 13 15  1  0
 14 16  2  0
 15 17  2  0
 16 21  1  0
 16 17  1  0
 18 19  2  0
 18 20  1  0
 21 23  1  0
 21 22  2  0
 24 25  1  0
 25 26  2  0
 25 27  1  0
 26 28  1  0
 27 29  2  0
 28 31  1  0
 28 30  2  0
 29 30  1  0
 29 33  1  0
 31 32  1  0
 33 34  2  0
 33 35  1  0
M  END
>  <vina_dock>  (227) 
-8.21

$$$$
O14757_PocketFlow_idx-in-all-generaetd-953
     RDKit          3D

 32 35  0  0  0  0  0  0  0  0999 V2000
    0.9310   -4.6330   44.8430 C   0  0  0  0  0  0  0  0  0  0  0  0
    2.3560   -4.1630   44.9800 C   0  0  0  0  0  0  0  0  0  0  0  0
    7.1300   -3.0950   46.5080 C   0  0  0  0  0  0  0  0  0  0  0  0
    6.5270   -3.8960   47.4890 C   0  0  0  0  0  0  0  0  0  0  0  0
    6.3420   -2.7850   45.3850 C   0  0  0  0  0  0  0  0  0  0  0  0
    5.2110   -4.3580   47.3700 C   0  0  0  0  0  0  0  0  0  0  0  0
    5.0140   -3.2370   45.2390 C   0  0  0  0  0  0  0  0  0  0  0  0
    4.4400   -4.0370   46.2490 C   0  0  0  0  0  0  0  0  0  0  0  0
    4.2460   -2.9060   44.1130 C   0  0  0  0  0  0  0  0  0  0  0  0
    3.1150   -4.4910   46.1110 C   0  0  0  0  0  0  0  0  0  0  0  0
    2.9380   -3.3650   43.9950 C   0  0  0  0  0  0  0  0  0  0  0  0
    2.2300   -3.0240   42.9080 F   0  0  0  0  0  0  0  0  0  0  0  0
    8.4410   -2.6510   46.6400 N   0  0  0  0  0  0  0  0  0  0  0  0
    8.7860   -1.2380   46.4680 C   0  0  0  0  0  0  0  0  0  0  0  0
    9.4590   -3.5470   47.2090 C   0  0  0  0  0  0  0  0  0  0  0  0
   10.2530   -1.1000   46.0680 C   0  0  0  0  0  0  0  0  0  0  0  0
   10.5430   -2.7670   47.9730 C   0  0  2  0  0  0  0  0  0  0  0  0
   11.2040   -1.6980   47.1030 C   0  0  0  0  0  0  0  0  0  0  0  0
   11.5450   -3.6430   48.4920 O   0  0  0  0  0  0  0  0  0  0  0  0
    0.8450   -5.9710   44.1010 C   0  0  0  0  0  0  0  0  0  0  0  0
    0.8420   -7.1580   45.0420 C   0  0  0  0  0  0  0  0  0  0  0  0
   -0.3200   -7.8740   45.4000 C   0  0  0  0  0  0  0  0  0  0  0  0
    2.0800   -7.5970   45.5550 C   0  0  0  0  0  0  0  0  0  0  0  0
   -0.2240   -9.0090   46.2240 C   0  0  0  0  0  0  0  0  0  0  0  0
    2.1700   -8.7190   46.3910 C   0  0  0  0  0  0  0  0  0  0  0  0
    1.0110   -9.4270   46.7210 C   0  0  0  0  0  0  0  0  0  0  0  0
   -1.6870   -7.5410   44.9310 C   0  0  0  0  0  0  0  0  0  0  0  0
   -2.2060   -7.9610   43.9140 O   0  0  0  0  0  0  0  0  0  0  0  0
   -2.3500   -6.7570   45.7940 O   0  0  0  0  0  0  0  0  0  0  0  0
    3.5080   -9.1230   46.8880 C   0  0  0  0  0  0  0  0  0  0  0  0
    4.0800  -10.1640   46.6230 O   0  0  0  0  0  0  0  0  0  0  0  0
    4.0660   -8.2030   47.6920 O   0  0  0  0  0  0  0  0  0  0  0  0
  1 20  1  0
  1  2  1  0
  2 11  1  0
  2 10  2  0
  3  5  1  0
  3 13  1  0
  3  4  2  0
  4  6  1  0
  5  7  2  0
  6  8  2  0
  7  9  1  0
  7  8  1  0
  8 10  1  0
  9 11  2  0
 11 12  1  0
 13 14  1  0
 13 15  1  0
 14 16  1  0
 15 17  1  0
 16 18  1  0
 17 18  1  0
 17 19  1  6
 20 21  1  0
 21 22  2  0
 21 23  1  0
 22 27  1  0
 22 24  1  0
 23 25  2  0
 24 26  2  0
 25 26  1  0
 25 30  1  0
 27 28  2  0
 27 29  1  0
 30 31  2  0
 30 32  1  0
M  END
>  <vina_dock>  (228) 
-8.895

$$$$
O14757_PocketFlow_idx-in-all-generaetd-944
     RDKit          3D

 22 25  0  0  0  0  0  0  0  0999 V2000
    6.2760   -2.4900   45.3690 C   0  0  0  0  0  0  0  0  0  0  0  0
    5.5930   -3.5290   45.9680 C   0  0  0  0  0  0  0  0  0  0  0  0
    5.6400   -1.8220   44.3270 C   0  0  0  0  0  0  0  0  0  0  0  0
    4.3620   -2.2210   43.9080 C   0  0  0  0  0  0  0  0  0  0  0  0
    3.7240   -1.5560   42.8480 C   0  0  0  0  0  0  0  0  0  0  0  0
    2.4760   -1.9620   42.3890 C   0  0  0  0  0  0  0  0  0  0  0  0
    1.8270   -2.9850   43.0750 C   0  0  0  0  0  0  0  0  0  0  0  0
    2.4410   -3.6740   44.1450 C   0  0  0  0  0  0  0  0  0  0  0  0
    3.7310   -3.3000   44.5710 C   0  0  0  0  0  0  0  0  0  0  0  0
    4.3580   -3.9390   45.5880 N   0  0  0  0  0  0  0  0  0  0  0  0
    7.6290   -2.0910   45.8160 C   0  0  0  0  0  0  0  0  0  0  0  0
    8.4500   -2.9680   46.3340 N   0  0  0  0  0  0  0  0  0  0  0  0
    8.0860   -0.7940   45.7150 N   0  0  0  0  0  0  0  0  0  0  0  0
    9.6200   -2.1390   46.6680 C   0  0  0  0  0  0  0  0  0  0  0  0
    9.3210   -0.7300   46.3870 N   0  0  0  0  0  0  0  0  0  0  0  0
    1.6930   -4.7700   44.7970 C   0  0  0  0  0  0  0  0  0  0  0  0
    1.9180   -6.1100   44.4380 C   0  0  0  0  0  0  0  0  0  0  0  0
    0.7210   -4.5040   45.7750 C   0  0  0  0  0  0  0  0  0  0  0  0
    1.1970   -7.1470   45.0370 C   0  0  0  0  0  0  0  0  0  0  0  0
   -0.0010   -5.5390   46.3750 C   0  0  0  0  0  0  0  0  0  0  0  0
    0.2370   -6.8610   46.0040 C   0  0  0  0  0  0  0  0  0  0  0  0
    1.8000   -1.2190   41.4180 N   0  0  0  0  0  0  0  0  0  0  0  0
  1  3  1  0
  1 11  1  0
  1  2  2  0
  2 10  1  0
  3  4  2  0
  4  5  1  0
  4  9  1  0
  5  6  2  0
  6 22  1  0
  6  7  1  0
  7  8  2  0
  8  9  1  0
  8 16  1  0
  9 10  2  0
 11 13  1  0
 11 12  2  0
 12 14  1  0
 13 15  1  0
 14 15  1  0
 16 17  2  0
 16 18  1  0
 17 19  1  0
 18 20  2  0
 19 21  2  0
 20 21  1  0
M  END
>  <vina_dock>  (229) 
-8.955

$$$$
O14757_PocketFlow_idx-in-all-generaetd-632
     RDKit          3D

  9  9  0  0  0  0  0  0  0  0999 V2000
    3.4730   -1.7080   43.0440 C   0  0  0  0  0  0  0  0  0  0  0  0
    3.1350   -2.8370   43.8050 C   0  0  0  0  0  0  0  0  0  0  0  0
    1.9510   -3.5310   43.5550 C   0  0  0  0  0  0  0  0  0  0  0  0
    1.0950   -3.1040   42.5420 C   0  0  0  0  0  0  0  0  0  0  0  0
    1.4220   -1.9840   41.7790 C   0  0  0  0  0  0  0  0  0  0  0  0
    2.6070   -1.2850   42.0260 C   0  0  0  0  0  0  0  0  0  0  0  0
    4.7480   -1.0120   43.3580 C   0  0  0  0  0  0  0  0  0  0  0  0
    6.0300   -1.7500   44.5670 Br  0  0  0  0  0  0  0  0  0  0  0  0
    5.0460    0.0650   42.8620 O   0  0  0  0  0  0  0  0  0  0  0  0
  1  6  2  0
  1  7  1  0
  1  2  1  0
  2  3  2  0
  3  4  1  0
  4  5  2  0
  5  6  1  0
  7  9  2  0
  7  8  1  0
M  END
>  <vina_dock>  (230) 
-5.296

$$$$
O14757_PocketFlow_idx-in-all-generaetd-150
     RDKit          3D

 32 35  0  0  0  0  0  0  0  0999 V2000
    4.5900   -2.4670   44.2850 C   0  0  0  0  0  0  0  0  0  0  0  0
    4.9470   -3.4090   45.2580 C   0  0  0  0  0  0  0  0  0  0  0  0
    6.1830   -3.3370   45.9150 C   0  0  0  0  0  0  0  0  0  0  0  0
    7.1160   -2.3270   45.6230 C   0  0  0  0  0  0  0  0  0  0  0  0
    6.7470   -1.3810   44.6520 C   0  0  0  0  0  0  0  0  0  0  0  0
    5.5110   -1.4510   43.9940 C   0  0  0  0  0  0  0  0  0  0  0  0
    3.2920   -2.5370   43.5960 C   0  0  0  0  0  0  0  0  0  0  0  0
    0.7970   -2.6700   42.2700 C   0  0  0  0  0  0  0  0  0  0  0  0
    1.7780   -1.7740   41.8350 C   0  0  0  0  0  0  0  0  0  0  0  0
    1.0600   -3.4990   43.3660 C   0  0  0  0  0  0  0  0  0  0  0  0
    3.0110   -1.7100   42.4940 C   0  0  0  0  0  0  0  0  0  0  0  0
    2.2950   -3.4310   44.0190 C   0  0  0  0  0  0  0  0  0  0  0  0
   -0.5240   -2.7780   41.6060 C   0  0  0  0  0  0  0  0  0  0  0  0
   -1.3990   -1.9320   41.6170 O   0  0  0  0  0  0  0  0  0  0  0  0
   -0.6880   -3.9430   40.9540 O   0  0  0  0  0  0  0  0  0  0  0  0
    8.4170   -2.2760   46.3260 C   0  0  0  0  0  0  0  0  0  0  0  0
    9.2940   -1.3450   45.8750 N   0  0  0  0  0  0  0  0  0  0  0  0
    8.7360   -3.1140   47.3940 C   0  0  0  0  0  0  0  0  0  0  0  0
   10.5020   -1.2610   46.4790 C   0  0  0  0  0  0  0  0  0  0  0  0
    9.9850   -3.0010   48.0050 C   0  0  0  0  0  0  0  0  0  0  0  0
   10.9040   -2.0550   47.5460 C   0  0  0  0  0  0  0  0  0  0  0  0
   12.2660   -1.9010   48.2060 C   0  0  1  0  0  0  0  0  0  0  0  0
   12.4210   -0.5310   48.8700 C   0  0  0  0  0  0  0  0  0  0  0  0
   13.3560    0.4240   48.4430 C   0  0  0  0  0  0  0  0  0  0  0  0
   11.6120   -0.2200   49.9780 C   0  0  0  0  0  0  0  0  0  0  0  0
   13.4690    1.6560   49.0930 C   0  0  0  0  0  0  0  0  0  0  0  0
   11.7260    1.0100   50.6270 C   0  0  0  0  0  0  0  0  0  0  0  0
   12.6530    1.9490   50.1840 C   0  0  0  0  0  0  0  0  0  0  0  0
   12.5990   -3.0980   49.1360 C   0  0  0  0  0  0  0  0  0  0  0  0
   13.8000   -3.8920   48.6810 C   0  0  0  0  0  0  0  0  0  0  0  0
   13.8440   -4.8120   47.7030 C   0  0  0  0  0  0  0  0  0  0  0  0
   12.7090   -5.3000   46.8620 C   0  0  0  0  0  0  0  0  0  0  0  0
  1  7  1  0
  1  6  1  0
  1  2  2  0
  2  3  1  0
  3  4  2  0
  4  5  1  0
  4 16  1  0
  5  6  2  0
  7 11  2  0
  7 12  1  0
  8 13  1  0
  8  9  2  0
  8 10  1  0
  9 11  1  0
 10 12  2  0
 13 15  1  0
 13 14  2  0
 16 17  2  0
 16 18  1  0
 17 19  1  0
 18 20  2  0
 19 21  2  0
 20 21  1  0
 21 22  1  0
 22 23  1  0
 22 29  1  1
 23 24  2  0
 23 25  1  0
 24 26  1  0
 25 27  2  0
 26 28  2  0
 27 28  1  0
 29 30  1  0
 30 31  2  3
 31 32  1  0
M  END
>  <vina_dock>  (231) 
-8.082

$$$$
O14757_PocketFlow_idx-in-all-generaetd-110
     RDKit          3D

  5  4  0  0  0  0  0  0  0  0999 V2000
    5.4070   -1.1100   43.9110 C   0  0  0  0  0  0  0  0  0  0  0  0
    4.9980   -2.2440   43.3170 F   0  0  0  0  0  0  0  0  0  0  0  0
    4.6480   -0.8720   44.9940 F   0  0  0  0  0  0  0  0  0  0  0  0
    6.6910   -1.2390   44.2840 F   0  0  0  0  0  0  0  0  0  0  0  0
    5.2910   -0.0860   43.0500 F   0  0  0  0  0  0  0  0  0  0  0  0
  1  5  1  0
  1  2  1  0
  1  4  1  0
  1  3  1  0
M  END
>  <vina_dock>  (232) 
-3.011

$$$$
O14757_PocketFlow_idx-in-all-generaetd-434
     RDKit          3D

 35 36  0  0  0  0  0  0  0  0999 V2000
    5.2850   -2.5560   45.7880 C   0  0  0  0  0  0  0  0  0  0  0  0
    4.4970   -1.6130   45.2260 C   0  0  0  0  0  0  0  0  0  0  0  0
    4.7290   -3.4220   46.9080 C   0  0  0  0  0  0  0  0  0  0  0  0
    4.3030   -4.8280   46.4720 C   0  0  0  0  0  0  0  0  0  0  0  0
    3.4760   -4.9210   45.1840 C   0  0  0  0  0  0  0  0  0  0  0  0
    2.0300   -5.3320   45.3780 C   0  0  0  0  0  0  0  0  0  0  0  0
    1.6730   -6.6160   45.1790 C   0  0  0  0  0  0  0  0  0  0  0  0
    1.0610   -4.2210   45.6940 C   0  0  0  0  0  0  0  0  0  0  0  0
    0.3090   -7.1440   45.2650 C   0  0  0  0  0  0  0  0  0  0  0  0
   -1.4970   -8.1520   46.5330 C   0  0  0  0  0  0  0  0  0  0  0  0
   -0.1920   -7.6440   46.4700 C   0  0  0  0  0  0  0  0  0  0  0  0
   -2.2990   -8.1540   45.3830 C   0  0  0  0  0  0  0  0  0  0  0  0
   -1.7980   -7.6520   44.1820 C   0  0  0  0  0  0  0  0  0  0  0  0
   -0.4990   -7.1480   44.1230 C   0  0  0  0  0  0  0  0  0  0  0  0
   -1.9880   -8.6710   47.8330 C   0  0  0  0  0  0  0  0  0  0  0  0
   -1.5060   -9.5940   48.4610 O   0  0  0  0  0  0  0  0  0  0  0  0
   -3.0650   -8.0040   48.2860 O   0  0  0  0  0  0  0  0  0  0  0  0
    6.6900   -2.8770   45.3110 C   0  0  0  0  0  0  0  0  0  0  0  0
    7.7080   -1.8650   45.7650 C   0  0  0  0  0  0  0  0  0  0  0  0
    8.8720   -2.0860   46.3990 C   0  0  0  0  0  0  0  0  0  0  0  0
    9.3870   -3.3680   46.8200 C   0  0  0  0  0  0  0  0  0  0  0  0
    9.1950   -3.9340   48.0220 C   0  0  0  0  0  0  0  0  0  0  0  0
    8.4680   -3.3620   49.2070 C   0  0  0  0  0  0  0  0  0  0  0  0
    7.2070   -4.1420   49.5930 C   0  0  0  0  0  0  0  0  0  0  0  0
    7.3480   -5.6580   49.4080 C   0  0  0  0  0  0  0  0  0  0  0  0
    6.0400   -6.3350   48.9880 C   0  0  0  0  0  0  0  0  0  0  0  0
    5.5910   -7.4290   49.9450 C   0  0  0  0  0  0  0  0  0  0  0  0
    4.8350   -0.7110   44.0670 C   0  0  0  0  0  0  0  0  0  0  0  0
    4.5990   -1.4160   42.7300 C   0  0  0  0  0  0  0  0  0  0  0  0
    3.1350   -1.4700   42.3680 C   0  0  0  0  0  0  0  0  0  0  0  0
    2.3890   -2.6330   42.6100 C   0  0  0  0  0  0  0  0  0  0  0  0
    2.4980   -0.3590   41.8030 C   0  0  0  0  0  0  0  0  0  0  0  0
    1.0350   -2.6870   42.2780 C   0  0  0  0  0  0  0  0  0  0  0  0
    1.1420   -0.4130   41.4730 C   0  0  0  0  0  0  0  0  0  0  0  0
    0.4120   -1.5790   41.7070 C   0  0  0  0  0  0  0  0  0  0  0  0
  1  2  2  3
  1 18  1  0
  1  3  1  0
  2 28  1  0
  3  4  1  0
  4  5  1  0
  5  6  1  0
  6  7  2  3
  6  8  1  0
  7  9  1  0
  9 14  1  0
  9 11  2  0
 10 12  2  0
 10 11  1  0
 10 15  1  0
 12 13  1  0
 13 14  2  0
 15 17  1  0
 15 16  2  0
 18 19  1  0
 19 20  2  3
 20 21  1  0
 21 22  2  3
 22 23  1  0
 23 24  1  0
 24 25  1  0
 25 26  1  0
 26 27  1  0
 28 29  1  0
 29 30  1  0
 30 32  1  0
 30 31  2  0
 31 33  1  0
 32 34  2  0
 33 35  2  0
 34 35  1  0
M  END
>  <vina_dock>  (233) 
-8.003

$$$$
O14757_PocketFlow_idx-in-all-generaetd-462
     RDKit          3D

 35 39  0  0  0  0  0  0  0  0999 V2000
    4.3180   -3.6070   45.5620 C   0  0  0  0  0  0  0  0  0  0  0  0
    4.3010   -2.6280   44.5530 C   0  0  0  0  0  0  0  0  0  0  0  0
    3.2390   -2.5090   43.6220 C   0  0  0  0  0  0  0  0  0  0  0  0
    2.1260   -3.3840   43.7410 C   0  0  0  0  0  0  0  0  0  0  0  0
    1.0650   -3.2460   42.8160 C   0  0  0  0  0  0  0  0  0  0  0  0
    1.1070   -2.2950   41.8040 C   0  0  0  0  0  0  0  0  0  0  0  0
    2.1940   -1.4550   41.6660 C   0  0  0  0  0  0  0  0  0  0  0  0
    3.2550   -1.5640   42.5660 C   0  0  0  0  0  0  0  0  0  0  0  0
    3.2130   -4.4630   45.6500 C   0  0  0  0  0  0  0  0  0  0  0  0
    2.1180   -4.3650   44.7710 C   0  0  0  0  0  0  0  0  0  0  0  0
    0.0830   -2.1980   40.9460 F   0  0  0  0  0  0  0  0  0  0  0  0
    5.4320   -3.7480   46.5130 C   0  0  0  0  0  0  0  0  0  0  0  0
    7.7930   -3.4650   47.1080 C   0  0  0  0  0  0  0  0  0  0  0  0
    6.7310   -3.3220   46.1990 C   0  0  0  0  0  0  0  0  0  0  0  0
    7.4600   -4.0610   48.3230 C   0  0  0  0  0  0  0  0  0  0  0  0
    6.2380   -4.4930   48.6860 N   0  0  0  0  0  0  0  0  0  0  0  0
    5.2560   -4.3220   47.7720 C   0  0  0  0  0  0  0  0  0  0  0  0
    9.1490   -3.0040   46.7660 C   0  0  0  0  0  0  0  0  0  0  0  0
   11.4600   -3.4960   46.1360 C   0  0  0  0  0  0  0  0  0  0  0  0
   11.7560   -2.1360   46.1350 C   0  0  0  0  0  0  0  0  0  0  0  0
   10.1660   -3.9250   46.4500 C   0  0  0  0  0  0  0  0  0  0  0  0
   13.3460   -1.6060   45.7490 Cl  0  0  0  0  0  0  0  0  0  0  0  0
   10.7700   -1.2040   46.4440 C   0  0  0  0  0  0  0  0  0  0  0  0
    9.4770   -1.6370   46.7580 C   0  0  0  0  0  0  0  0  0  0  0  0
    8.3780   -4.2520   49.3050 O   0  0  0  0  0  0  0  0  0  0  0  0
    5.3620   -1.7520   44.5100 O   0  0  0  0  0  0  0  0  0  0  0  0
    1.0040   -5.3100   44.9550 C   0  0  0  0  0  0  0  0  0  0  0  0
    0.6400   -6.1950   43.9290 C   0  0  0  0  0  0  0  0  0  0  0  0
    0.2930   -5.3500   46.1640 C   0  0  0  0  0  0  0  0  0  0  0  0
   -0.4150   -7.0970   44.1030 C   0  0  0  0  0  0  0  0  0  0  0  0
   -0.7630   -6.2500   46.3420 C   0  0  0  0  0  0  0  0  0  0  0  0
   -1.1200   -7.1270   45.3110 C   0  0  0  0  0  0  0  0  0  0  0  0
   -2.2450   -8.0640   45.5450 C   0  0  0  0  0  0  0  0  0  0  0  0
   -2.1440   -9.2480   45.8050 O   0  0  0  0  0  0  0  0  0  0  0  0
   -3.4480   -7.4720   45.4390 O   0  0  0  0  0  0  0  0  0  0  0  0
  1  2  2  0
  1  9  1  0
  1 12  1  0
  2  3  1  0
  2 26  1  0
  3  8  2  0
  3  4  1  0
  4  5  2  0
  4 10  1  0
  5  6  1  0
  6 11  1  0
  6  7  2  0
  7  8  1  0
  9 10  2  0
 10 27  1  0
 12 14  2  0
 12 17  1  0
 13 14  1  0
 13 18  1  0
 13 15  2  0
 15 16  1  0
 15 25  1  0
 16 17  2  0
 18 21  2  0
 18 24  1  0
 19 20  2  0
 19 21  1  0
 20 22  1  0
 20 23  1  0
 23 24  2  0
 27 28  2  0
 27 29  1  0
 28 30  1  0
 29 31  2  0
 30 32  2  0
 31 32  1  0
 32 33  1  0
 33 35  1  0
 33 34  2  0
M  END
>  <vina_dock>  (234) 
-10.769

$$$$
O14757_PocketFlow_idx-in-all-generaetd-27
     RDKit          3D

 17 17  0  0  0  0  0  0  0  0999 V2000
    4.9110   -2.4960   44.3120 C   0  0  1  0  0  0  0  0  0  0  0  0
    5.1940   -2.5370   45.8290 C   0  0  0  0  0  0  0  0  0  0  0  0
    6.3310   -3.4540   46.1970 C   0  0  0  0  0  0  0  0  0  0  0  0
    7.6240   -3.1040   46.1300 C   0  0  0  0  0  0  0  0  0  0  0  0
    8.7560   -4.0070   46.4980 C   0  0  0  0  0  0  0  0  0  0  0  0
    3.4870   -2.9190   43.9660 C   0  0  0  0  0  0  0  0  0  0  0  0
    2.8560   -3.9180   44.7230 C   0  0  0  0  0  0  0  0  0  0  0  0
    2.7770   -2.3290   42.9070 C   0  0  0  0  0  0  0  0  0  0  0  0
    1.5510   -4.3120   44.4310 C   0  0  0  0  0  0  0  0  0  0  0  0
    1.4660   -2.7240   42.6050 C   0  0  0  0  0  0  0  0  0  0  0  0
    0.8570   -3.7170   43.3790 C   0  0  0  0  0  0  0  0  0  0  0  0
    0.7120   -2.0620   41.4790 C   0  0  0  0  0  0  0  0  0  0  0  0
    1.1460   -0.6170   41.2830 C   0  0  0  0  0  0  0  0  0  0  0  0
    5.2520   -1.1110   43.7650 C   0  0  0  0  0  0  0  0  0  0  0  0
    6.5370   -0.7890   44.0590 F   0  0  0  0  0  0  0  0  0  0  0  0
    5.1370   -1.0560   42.4180 F   0  0  0  0  0  0  0  0  0  0  0  0
    4.4730   -0.1390   44.2890 F   0  0  0  0  0  0  0  0  0  0  0  0
  1 14  1  0
  1  6  1  0
  1  2  1  1
  2  3  1  0
  3  4  2  3
  4  5  1  0
  6  8  2  0
  6  7  1  0
  7  9  2  0
  8 10  1  0
  9 11  1  0
 10 12  1  0
 10 11  2  0
 12 13  1  0
 14 16  1  0
 14 15  1  0
 14 17  1  0
M  END
>  <vina_dock>  (235) 
-7.671

$$$$
O14757_PocketFlow_idx-in-all-generaetd-448
     RDKit          3D

 21 23  0  0  0  0  0  0  0  0999 V2000
    2.4810   -5.8930   45.0080 C   0  0  0  0  0  0  0  0  0  0  0  0
    3.4710   -4.9800   44.6340 C   0  0  0  0  0  0  0  0  0  0  0  0
    3.1480   -3.8100   43.9230 C   0  0  0  0  0  0  0  0  0  0  0  0
    4.2320   -2.8220   43.5030 C   0  0  1  0  0  0  0  0  0  0  0  0
    3.6360   -1.4360   43.2050 C   0  0  0  0  0  0  0  0  0  0  0  0
    2.5020   -1.5380   42.2010 C   0  0  0  0  0  0  0  0  0  0  0  0
    1.4120   -2.4520   42.7040 C   0  0  0  0  0  0  0  0  0  0  0  0
    1.8080   -3.6130   43.5450 C   0  0  0  0  0  0  0  0  0  0  0  0
    1.1400   -5.6720   44.6720 C   0  0  0  0  0  0  0  0  0  0  0  0
    0.8160   -4.5300   43.9260 C   0  0  0  0  0  0  0  0  0  0  0  0
    0.2390   -2.2880   42.3840 O   0  0  0  0  0  0  0  0  0  0  0  0
    0.0690   -6.6640   45.0550 C   0  0  0  0  0  0  0  0  0  0  0  0
    0.5740   -7.8490   45.4990 F   0  0  0  0  0  0  0  0  0  0  0  0
   -0.7460   -6.9720   44.0100 F   0  0  0  0  0  0  0  0  0  0  0  0
   -0.7440   -6.2120   46.0490 F   0  0  0  0  0  0  0  0  0  0  0  0
    5.3830   -2.6700   44.4920 C   0  0  0  0  0  0  0  0  0  0  0  0
    6.2450   -1.5670   44.3960 C   0  0  0  0  0  0  0  0  0  0  0  0
    5.6040   -3.6100   45.5130 C   0  0  0  0  0  0  0  0  0  0  0  0
    7.3030   -1.4100   45.2950 C   0  0  0  0  0  0  0  0  0  0  0  0
    6.6620   -3.4500   46.4090 C   0  0  0  0  0  0  0  0  0  0  0  0
    7.5110   -2.3510   46.3000 C   0  0  0  0  0  0  0  0  0  0  0  0
  1  2  2  0
  1  9  1  0
  2  3  1  0
  3  4  1  0
  3  8  2  0
  4  5  1  0
  4 16  1  1
  5  6  1  0
  6  7  1  0
  7 11  2  0
  7  8  1  0
  8 10  1  0
  9 10  2  0
  9 12  1  0
 12 14  1  0
 12 13  1  0
 12 15  1  0
 16 17  2  0
 16 18  1  0
 17 19  1  0
 18 20  2  0
 19 21  2  0
 20 21  1  0
M  END
>  <vina_dock>  (236) 
-9.326

$$$$
O14757_PocketFlow_idx-in-all-generaetd-608
     RDKit          3D

 36 40  0  0  0  0  0  0  0  0999 V2000
    4.0430  -10.4720   48.3910 O   0  0  0  0  0  0  0  0  0  0  0  0
    5.2540   -9.5980   48.5260 C   0  0  0  0  0  0  0  0  0  0  0  0
    6.4660   -8.7240   48.6620 C   0  0  0  0  0  0  0  0  0  0  0  0
    8.7450   -7.5630   49.1170 N   0  0  0  0  0  0  0  0  0  0  0  0
    7.3620   -7.5290   48.5370 C   0  0  0  0  0  0  0  0  0  0  0  0
    9.2310   -8.7940   49.8240 C   0  0  0  0  0  0  0  0  0  0  0  0
    8.3340   -9.9900   49.9500 C   0  0  0  0  0  0  0  0  0  0  0  0
    6.9510   -9.9550   49.3690 C   0  0  0  0  0  0  0  0  0  0  0  0
    9.6420   -6.3680   48.9920 C   0  0  0  0  0  0  0  0  0  0  0  0
   10.0900   -3.9740   48.0860 C   0  0  1  0  0  0  0  0  0  0  0  0
   11.4390   -3.9780   48.7430 C   0  0  0  0  0  0  0  0  0  0  0  0
    9.1920   -5.1690   48.2110 C   0  0  0  0  0  0  0  0  0  0  0  0
   11.8900   -5.1770   49.5240 C   0  0  0  0  0  0  0  0  0  0  0  0
   10.9920   -6.3720   49.6490 C   0  0  0  0  0  0  0  0  0  0  0  0
    9.6400   -2.7760   47.3050 C   0  0  0  0  0  0  0  0  0  0  0  0
    7.3750   -3.2760   46.1340 C   0  0  0  0  0  0  0  0  0  0  0  0
    8.5090   -3.7160   47.0120 C   0  0  0  0  0  0  0  0  0  0  0  0
    7.3730   -1.8940   45.5490 C   0  0  0  0  0  0  0  0  0  0  0  0
    8.5040   -0.9540   45.8420 C   0  0  0  0  0  0  0  0  0  0  0  0
    9.6380   -1.3940   46.7200 C   0  0  0  0  0  0  0  0  0  0  0  0
    6.0870   -3.3200   45.3670 C   0  0  0  0  0  0  0  0  0  0  0  0
    4.7990   -3.3640   44.6000 C   0  0  0  0  0  0  0  0  0  0  0  0
    4.2610   -4.6770   44.1120 O   0  0  0  0  0  0  0  0  0  0  0  0
    4.0490   -2.0960   44.3200 O   0  0  0  0  0  0  0  0  0  0  0  0
    3.5020   -1.2820   45.4560 H   0  0  0  0  0  0  0  0  0  0  0  0
    2.9330  -10.0770   47.4620 C   0  0  0  0  0  0  0  0  0  0  0  0
    1.8230   -9.6810   46.5330 C   0  0  0  0  0  0  0  0  0  0  0  0
    0.6110   -8.9780   47.0690 C   0  0  0  0  0  0  0  0  0  0  0  0
   -0.4990   -8.5830   46.1410 C   0  0  0  0  0  0  0  0  0  0  0  0
   -1.8200   -9.2900   46.2080 C   0  0  0  0  0  0  0  0  0  0  0  0
   -0.2880   -7.4810   45.1460 C   0  0  0  0  0  0  0  0  0  0  0  0
   -0.0760   -6.3790   44.1510 C   0  0  0  0  0  0  0  0  0  0  0  0
    0.6700   -5.1410   44.5500 C   0  0  0  0  0  0  0  0  0  0  0  0
    0.8820   -4.0380   43.5550 C   0  0  0  0  0  0  0  0  0  0  0  0
    1.0930   -2.9350   42.5610 C   0  0  0  0  0  0  0  0  0  0  0  0
    1.3040   -1.8320   41.5670 C   0  0  0  0  0  0  0  0  0  0  0  0
  1 26  1  0
  1  2  1  0
  2  3  1  0
  2  8  1  0
  3  5  1  0
  3  8  2  0
  4  5  1  0
  4  9  1  0
  4  6  1  0
  6  7  2  0
  7  8  1  0
  9 12  1  0
  9 14  2  0
 10 17  1  0
 10 15  1  0
 10 12  1  1
 10 11  1  0
 11 13  2  0
 13 14  1  0
 15 20  2  0
 15 17  1  0
 16 21  1  0
 16 18  1  0
 16 17  2  0
 18 21  1  0
 18 19  2  0
 19 20  1  0
 21 22  1  0
 22 23  2  0
 22 24  1  0
 26 27  1  0
 27 28  2  3
 28 29  1  0
 29 31  2  0
 29 30  1  0
 31 32  2  0
 32 33  1  0
 33 34  1  0
 34 35  3  0
 35 36  1  0
M  END
>  <vina_dock>  (237) 
-6.273

$$$$
O14757_PocketFlow_idx-in-all-generaetd-287
     RDKit          3D

 19 20  0  0  0  0  0  0  0  0999 V2000
    4.8890   -2.2800   43.2210 C   0  0  0  0  0  0  0  0  0  0  0  0
    4.1410   -3.1450   44.2540 C   0  0  1  0  0  0  0  0  0  0  0  0
    3.5290   -5.4940   44.6800 C   0  0  0  0  0  0  0  0  0  0  0  0
    3.1260   -5.0550   46.0780 C   0  0  1  0  0  0  0  0  0  0  0  0
    4.1450   -4.5520   43.9010 N   0  0  0  0  0  0  0  0  0  0  0  0
    3.2940   -6.6150   44.2390 O   0  0  0  0  0  0  0  0  0  0  0  0
    4.1720   -4.0980   46.6630 C   0  0  0  0  0  0  0  0  0  0  0  0
    1.7110   -4.4900   46.1060 C   0  0  0  0  0  0  0  0  0  0  0  0
    4.6040   -2.9380   45.7270 C   0  0  1  0  0  0  0  0  0  0  0  0
    6.0950   -2.6720   45.9050 C   0  0  0  0  0  0  0  0  0  0  0  0
    6.6720   -1.4440   45.5400 C   0  0  0  0  0  0  0  0  0  0  0  0
    6.9260   -3.6700   46.4380 C   0  0  0  0  0  0  0  0  0  0  0  0
    8.0380   -1.2190   45.7100 C   0  0  0  0  0  0  0  0  0  0  0  0
    8.2930   -3.4430   46.6070 C   0  0  0  0  0  0  0  0  0  0  0  0
    8.8490   -2.2180   46.2450 C   0  0  0  0  0  0  0  0  0  0  0  0
    4.0290   -1.1280   42.6830 C   0  0  0  0  0  0  0  0  0  0  0  0
    2.6360   -1.6180   42.2840 C   0  0  0  0  0  0  0  0  0  0  0  0
    1.8330   -0.5120   41.5990 C   0  0  0  0  0  0  0  0  0  0  0  0
    0.3460   -0.8320   41.5800 C   0  0  0  0  0  0  0  0  0  0  0  0
  1 16  1  0
  2  1  1  6
  2  5  1  0
  2  9  1  0
  3  5  1  0
  3  6  2  0
  3  4  1  0
  4  8  1  6
  4  7  1  0
  7  9  1  0
  9 10  1  6
 10 11  2  0
 10 12  1  0
 11 13  1  0
 12 14  2  0
 13 15  2  0
 14 15  1  0
 16 17  1  0
 17 18  1  0
 18 19  1  0
M  END
>  <vina_dock>  (238) 
-6.661

$$$$
O14757_PocketFlow_idx-in-all-generaetd-98
     RDKit          3D

 13 13  0  0  0  0  0  0  0  0999 V2000
    3.6900   -3.3630   43.9780 C   0  0  0  0  0  0  0  0  0  0  0  0
    2.3470   -3.1920   43.4260 C   0  0  0  0  0  0  0  0  0  0  0  0
    1.1620   -3.7950   43.6640 C   0  0  0  0  0  0  0  0  0  0  0  0
    4.1300   -4.5230   44.4940 C   0  0  0  0  0  0  0  0  0  0  0  0
    0.9230   -4.9160   44.6840 C   0  0  2  0  0  0  0  0  0  0  0  0
    2.0700   -5.4180   45.5560 C   0  0  0  0  0  0  0  0  0  0  0  0
    3.3320   -5.7530   44.7750 C   0  0  0  0  0  0  0  0  0  0  0  0
    0.2050   -6.3320   43.8000 Cl  0  0  0  0  0  0  0  0  0  0  0  0
    4.5080   -2.2510   43.8370 N   0  0  0  0  0  0  0  0  0  0  0  0
    5.1840   -1.4940   44.8760 C   0  0  0  0  0  0  0  0  0  0  0  0
    6.6650   -1.8290   44.8980 C   0  0  0  0  0  0  0  0  0  0  0  0
   -0.0090   -3.4070   42.9760 N   0  0  0  0  0  0  0  0  0  0  0  0
   -0.0910   -3.0400   41.5740 C   0  0  0  0  0  0  0  0  0  0  0  0
  1  2  1  0
  1  9  1  0
  1  4  2  0
  2  3  2  0
  3 12  1  0
  3  5  1  0
  4  7  1  0
  5  8  1  6
  5  6  1  0
  6  7  1  0
  9 10  1  0
 10 11  1  0
 12 13  1  0
M  END
>  <vina_dock>  (239) 
-6.027

$$$$
O14757_PocketFlow_idx-in-all-generaetd-199
     RDKit          3D

 31 34  0  0  0  0  0  0  0  0999 V2000
    3.3810   -5.2350   44.9870 C   0  0  0  0  0  0  0  0  0  0  0  0
    3.5940   -4.2370   46.1340 C   0  0  0  0  0  0  0  0  0  0  0  0
    4.9540   -4.3950   46.8210 C   0  0  0  0  0  0  0  0  0  0  0  0
    5.9490   -3.3760   46.3220 C   0  0  0  0  0  0  0  0  0  0  0  0
    8.1990   -2.4350   46.3650 C   0  0  0  0  0  0  0  0  0  0  0  0
    7.2600   -3.3650   46.8210 C   0  0  0  0  0  0  0  0  0  0  0  0
    7.8250   -1.5110   45.3900 C   0  0  0  0  0  0  0  0  0  0  0  0
    6.5240   -1.5180   44.8790 C   0  0  0  0  0  0  0  0  0  0  0  0
    5.5910   -2.4480   45.3410 C   0  0  0  0  0  0  0  0  0  0  0  0
    9.4350   -2.5390   46.9440 O   0  0  0  0  0  0  0  0  0  0  0  0
   10.4230   -1.6100   46.5180 C   0  0  0  0  0  0  0  0  0  0  0  0
    2.0890   -6.0210   45.0960 C   0  0  0  0  0  0  0  0  0  0  0  0
    0.8410   -5.4960   44.6970 C   0  0  0  0  0  0  0  0  0  0  0  0
    2.1660   -7.3350   45.5970 C   0  0  0  0  0  0  0  0  0  0  0  0
   -0.2990   -6.3040   44.8760 C   0  0  0  0  0  0  0  0  0  0  0  0
    1.0240   -8.1250   45.7200 C   0  0  0  0  0  0  0  0  0  0  0  0
   -0.2290   -7.6210   45.3660 C   0  0  0  0  0  0  0  0  0  0  0  0
    0.7400   -4.1620   44.2750 N   0  0  0  0  0  0  0  0  0  0  0  0
    0.5200   -3.8540   42.8670 C   0  0  0  0  0  0  0  0  0  0  0  0
    1.3120   -2.6200   42.5010 C   0  0  0  0  0  0  0  0  0  0  0  0
    2.6140   -2.4320   42.9880 C   0  0  0  0  0  0  0  0  0  0  0  0
    0.7430   -1.6320   41.6850 C   0  0  0  0  0  0  0  0  0  0  0  0
    3.3350   -1.2860   42.6490 C   0  0  0  0  0  0  0  0  0  0  0  0
    1.4650   -0.4850   41.3510 C   0  0  0  0  0  0  0  0  0  0  0  0
    2.7630   -0.3150   41.8280 C   0  0  0  0  0  0  0  0  0  0  0  0
   -1.4420   -8.4420   45.5070 C   0  0  0  0  0  0  0  0  0  0  0  0
   -2.5560   -8.2340   44.6760 C   0  0  0  0  0  0  0  0  0  0  0  0
   -1.5180   -9.4580   46.4730 C   0  0  0  0  0  0  0  0  0  0  0  0
   -3.7060   -9.0170   44.8060 C   0  0  0  0  0  0  0  0  0  0  0  0
   -2.6680  -10.2420   46.6030 C   0  0  0  0  0  0  0  0  0  0  0  0
   -3.7610  -10.0210   45.7690 C   0  0  0  0  0  0  0  0  0  0  0  0
  1 12  1  0
  1  2  1  0
  2  3  1  0
  3  4  1  0
  4  9  1  0
  4  6  2  0
  5  7  2  0
  5  6  1  0
  5 10  1  0
  7  8  1  0
  8  9  2  0
 10 11  1  0
 12 13  1  0
 12 14  2  0
 13 18  1  0
 13 15  2  0
 14 16  1  0
 15 17  1  0
 16 17  2  0
 17 26  1  0
 18 19  1  0
 19 20  1  0
 20 22  1  0
 20 21  2  0
 21 23  1  0
 22 24  2  0
 23 25  2  0
 24 25  1  0
 26 27  2  0
 26 28  1  0
 27 29  1  0
 28 30  2  0
 29 31  2  0
 30 31  1  0
M  END
>  <vina_dock>  (240) 
-9.301

$$$$
O14757_PocketFlow_idx-in-all-generaetd-956
     RDKit          3D

 14 15  0  0  0  0  0  0  0  0999 V2000
    1.5610   -4.1360   44.4520 C   0  0  0  0  0  0  0  0  0  0  0  0
    1.1560   -3.3770   43.3520 C   0  0  0  0  0  0  0  0  0  0  0  0
    2.0550   -2.4940   42.7490 C   0  0  0  0  0  0  0  0  0  0  0  0
    3.3710   -2.3270   43.2350 C   0  0  0  0  0  0  0  0  0  0  0  0
    3.7650   -3.1300   44.3130 C   0  0  0  0  0  0  0  0  0  0  0  0
    2.8700   -4.0190   44.9250 C   0  0  0  0  0  0  0  0  0  0  0  0
    1.4970   -1.5680   41.3930 Cl  0  0  0  0  0  0  0  0  0  0  0  0
    0.5990   -5.0710   45.0910 C   0  0  0  0  0  0  0  0  0  0  0  0
    0.3020   -6.2170   44.5370 N   0  0  0  0  0  0  0  0  0  0  0  0
   -0.0280   -4.7770   46.2830 N   0  0  0  0  0  0  0  0  0  0  0  0
   -0.7020   -6.7620   45.4650 C   0  0  0  0  0  0  0  0  0  0  0  0
   -1.0000   -5.7700   46.5060 N   0  0  0  0  0  0  0  0  0  0  0  0
    4.2740   -1.4820   42.5650 N   0  0  0  0  0  0  0  0  0  0  0  0
    4.8800   -0.3830   43.2940 C   0  0  0  0  0  0  0  0  0  0  0  0
  1  2  2  0
  1  6  1  0
  1  8  1  0
  2  3  1  0
  3  7  1  0
  3  4  2  0
  4 13  1  0
  4  5  1  0
  5  6  2  0
  8  9  2  0
  8 10  1  0
  9 11  1  0
 10 12  1  0
 11 12  1  0
 13 14  1  0
M  END
>  <vina_dock>  (241) 
-7.015

$$$$
O14757_PocketFlow_idx-in-all-generaetd-440
     RDKit          3D

 32 36  0  0  0  0  0  0  0  0999 V2000
   -0.1740   -6.6740   43.9490 C   0  0  0  0  0  0  0  0  0  0  0  0
   -0.6380   -7.5100   44.8940 C   0  0  0  0  0  0  0  0  0  0  0  0
    1.1530   -5.9640   43.9350 C   0  0  0  0  0  0  0  0  0  0  0  0
    1.1630   -4.6540   44.7550 C   0  0  2  0  0  0  0  0  0  0  0  0
    1.5920   -1.9170   42.1620 C   0  0  0  0  0  0  0  0  0  0  0  0
    2.8690   -1.4510   42.4390 C   0  0  0  0  0  0  0  0  0  0  0  0
    1.0550   -2.9520   42.9210 C   0  0  0  0  0  0  0  0  0  0  0  0
    3.6240   -2.0240   43.4800 C   0  0  0  0  0  0  0  0  0  0  0  0
    1.8030   -3.5320   43.9670 C   0  0  0  0  0  0  0  0  0  0  0  0
    4.9920   -1.4630   43.7410 C   0  0  0  0  0  0  0  0  0  0  0  0
    3.1080   -3.0750   44.2640 C   0  0  0  0  0  0  0  0  0  0  0  0
    5.8020   -2.1820   44.7840 C   0  0  0  0  0  0  0  0  0  0  0  0
    3.8940   -3.6100   45.3160 N   0  0  0  0  0  0  0  0  0  0  0  0
    1.8200   -4.7280   46.1300 C   0  0  0  0  0  0  0  0  0  0  0  0
    7.1350   -1.7570   44.9740 C   0  0  0  0  0  0  0  0  0  0  0  0
    5.2450   -3.2280   45.5530 C   0  0  0  0  0  0  0  0  0  0  0  0
    3.3490   -4.7690   46.0520 C   0  0  1  0  0  0  0  0  0  0  0  0
    7.9470   -2.3560   45.9250 C   0  0  0  0  0  0  0  0  0  0  0  0
    6.1060   -3.8030   46.5150 C   0  0  0  0  0  0  0  0  0  0  0  0
    7.4270   -3.3820   46.6970 C   0  0  0  0  0  0  0  0  0  0  0  0
    5.7040   -4.7880   47.3310 F   0  0  0  0  0  0  0  0  0  0  0  0
    0.7960   -1.3190   41.0720 C   0  0  0  0  0  0  0  0  0  0  0  0
   -0.2610   -0.7360   41.2800 O   0  0  0  0  0  0  0  0  0  0  0  0
    3.8010   -5.9820   45.4470 O   0  0  0  0  0  0  0  0  0  0  0  0
    3.7240   -7.1090   46.3060 C   0  0  0  0  0  0  0  0  0  0  0  0
    0.0740   -7.9680   46.1370 C   0  0  0  0  0  0  0  0  0  0  0  0
   -0.8730   -8.5190   47.1680 C   0  0  0  0  0  0  0  0  0  0  0  0
   -2.2510   -8.2950   47.0900 C   0  0  0  0  0  0  0  0  0  0  0  0
   -0.4080   -9.2570   48.2520 C   0  0  0  0  0  0  0  0  0  0  0  0
   -3.0930   -8.8140   48.0700 C   0  0  0  0  0  0  0  0  0  0  0  0
   -1.2010   -9.7730   49.2170 N   0  0  0  0  0  0  0  0  0  0  0  0
   -2.5250   -9.5390   49.1040 C   0  0  0  0  0  0  0  0  0  0  0  0
  1  3  1  0
  1  2  2  3
  2 26  1  0
  4  3  1  6
  4  9  1  0
  4 14  1  0
  5 22  1  0
  5  6  2  0
  5  7  1  0
  6  8  1  0
  7  9  2  0
  8 10  1  0
  8 11  2  0
  9 11  1  0
 10 12  2  0
 11 13  1  0
 12 15  1  0
 12 16  1  0
 13 16  1  0
 13 17  1  0
 14 17  1  0
 15 18  1  0
 16 19  2  0
 17 24  1  6
 18 20  2  0
 19 20  1  0
 19 21  1  0
 22 23  2  0
 24 25  1  0
 26 27  1  0
 27 28  2  0
 27 29  1  0
 28 30  1  0
 29 31  2  0
 30 32  2  0
 31 32  1  0
M  END
>  <vina_dock>  (242) 
-9.805

$$$$
O14757_PocketFlow_idx-in-all-generaetd-858
     RDKit          3D

 15 17  0  0  0  0  0  0  0  0999 V2000
    0.2880   -2.3260   41.6310 C   0  0  0  0  0  0  0  0  0  0  0  0
    0.8720   -3.2360   42.5090 C   0  0  0  0  0  0  0  0  0  0  0  0
    2.1400   -2.9950   43.0790 C   0  0  0  0  0  0  0  0  0  0  0  0
    2.7070   -4.0400   44.0050 C   0  0  0  0  0  0  0  0  0  0  0  0
    3.1850   -3.4490   45.3250 C   0  0  0  0  0  0  0  0  0  0  0  0
    4.5810   -2.8890   45.2320 C   0  0  0  0  0  0  0  0  0  0  0  0
    5.5180   -3.2890   46.2080 C   0  0  0  0  0  0  0  0  0  0  0  0
    0.9660   -1.1620   41.3050 C   0  0  0  0  0  0  0  0  0  0  0  0
    6.8230   -2.8040   46.2000 C   0  0  0  0  0  0  0  0  0  0  0  0
    7.2110   -1.9070   45.2170 C   0  0  0  0  0  0  0  0  0  0  0  0
    6.2880   -1.4950   44.2540 C   0  0  0  0  0  0  0  0  0  0  0  0
    4.9570   -1.9660   44.2470 C   0  0  0  0  0  0  0  0  0  0  0  0
    2.2280   -0.9210   41.8530 C   0  0  0  0  0  0  0  0  0  0  0  0
    2.8430   -1.8310   42.7380 C   0  0  0  0  0  0  0  0  0  0  0  0
    4.1150   -1.4830   43.2280 N   0  0  0  0  0  0  0  0  0  0  0  0
  1  8  2  0
  1  2  1  0
  2  3  2  0
  3 14  1  0
  3  4  1  0
  4  5  1  0
  5  6  1  0
  6 12  2  0
  6  7  1  0
  7  9  2  0
  8 13  1  0
  9 10  1  0
 10 11  2  0
 11 12  1  0
 12 15  1  0
 13 14  2  0
 14 15  1  0
M  END
>  <vina_dock>  (243) 
-7.884

$$$$
O14757_PocketFlow_idx-in-all-generaetd-926
     RDKit          3D

 12 12  0  0  0  0  0  0  0  0999 V2000
    1.9450   -3.8410   44.5060 C   0  0  0  0  0  0  0  0  0  0  0  0
    3.2080   -4.0710   43.9000 O   0  0  0  0  0  0  0  0  0  0  0  0
    4.1680   -3.1030   44.0050 C   0  0  0  0  0  0  0  0  0  0  0  0
    3.9550   -1.9890   43.1920 C   0  0  0  0  0  0  0  0  0  0  0  0
    5.3020   -3.1460   44.8210 C   0  0  0  0  0  0  0  0  0  0  0  0
    4.8590   -0.9320   43.2060 C   0  0  0  0  0  0  0  0  0  0  0  0
    6.2080   -2.0780   44.8280 C   0  0  0  0  0  0  0  0  0  0  0  0
    4.6420    0.1340   42.4260 F   0  0  0  0  0  0  0  0  0  0  0  0
    5.9850   -0.9660   44.0190 C   0  0  0  0  0  0  0  0  0  0  0  0
    0.7720   -3.7670   43.5410 C   0  0  0  0  0  0  0  0  0  0  0  0
    0.4070   -2.8160   42.8690 O   0  0  0  0  0  0  0  0  0  0  0  0
    0.0990   -4.9370   43.4700 O   0  0  0  0  0  0  0  0  0  0  0  0
  1 10  1  0
  1  2  1  0
  2  3  1  0
  3  4  2  0
  3  5  1  0
  4  6  1  0
  5  7  2  0
  6  8  1  0
  6  9  2  0
  7  9  1  0
 10 11  2  0
 10 12  1  0
M  END
>  <vina_dock>  (244) 
-5.611

$$$$
O14757_PocketFlow_idx-in-all-generaetd-342
     RDKit          3D

 35 38  0  0  0  0  0  0  0  0999 V2000
    1.1250   -6.8420   45.3890 C   0  0  0  0  0  0  0  0  0  0  0  0
    1.5170   -5.3710   45.5950 C   0  0  0  0  0  0  0  0  0  0  0  0
    1.9240   -4.6400   44.2970 C   0  0  1  0  0  0  0  0  0  0  0  0
    0.8170   -3.7540   43.7510 C   0  0  0  0  0  0  0  0  0  0  0  0
    0.5000   -3.6590   42.5750 O   0  0  0  0  0  0  0  0  0  0  0  0
    0.1810   -3.0110   44.6800 O   0  0  0  0  0  0  0  0  0  0  0  0
    3.2170   -3.8490   44.4450 C   0  0  0  0  0  0  0  0  0  0  0  0
    3.4620   -2.7540   43.6070 C   0  0  0  0  0  0  0  0  0  0  0  0
    4.1710   -4.1660   45.4220 C   0  0  0  0  0  0  0  0  0  0  0  0
    4.6370   -1.9900   43.7230 C   0  0  0  0  0  0  0  0  0  0  0  0
    5.3560   -3.4250   45.5610 C   0  0  0  0  0  0  0  0  0  0  0  0
    4.8330   -0.8300   42.7830 C   0  0  0  0  0  0  0  0  0  0  0  0
    5.6040   -2.3250   44.7080 C   0  0  0  0  0  0  0  0  0  0  0  0
    6.2940   -3.7720   46.5490 C   0  0  0  0  0  0  0  0  0  0  0  0
    6.8090   -1.6110   44.8880 C   0  0  0  0  0  0  0  0  0  0  0  0
    7.4870   -3.0560   46.7130 C   0  0  0  0  0  0  0  0  0  0  0  0
    7.7350   -1.9560   45.8850 C   0  0  0  0  0  0  0  0  0  0  0  0
    8.4480   -3.4370   47.8230 C   0  0  0  0  0  0  0  0  0  0  0  0
    9.0220   -1.1840   46.0280 C   0  0  0  0  0  0  0  0  0  0  0  0
    9.7960   -2.8630   47.6630 N   0  0  0  0  0  0  0  0  0  0  0  0
    9.6980   -1.4230   47.3840 C   0  0  0  0  0  0  0  0  0  0  0  0
   10.7290   -3.1640   48.7670 C   0  0  0  0  0  0  0  0  0  0  0  0
   10.1110   -4.1540   49.7630 C   0  0  0  0  0  0  0  0  0  0  0  0
   11.2850   -1.9460   49.5190 C   0  0  0  0  0  0  0  0  0  0  0  0
    0.1370   -7.0830   44.2870 C   0  0  0  0  0  0  0  0  0  0  0  0
   -1.1550   -7.4360   44.3930 C   0  0  0  0  0  0  0  0  0  0  0  0
   -2.0240   -7.6480   45.6060 C   0  0  0  0  0  0  0  0  0  0  0  0
   -2.5360   -9.0490   45.7810 C   0  0  0  0  0  0  0  0  0  0  0  0
   -1.9910  -10.0270   46.5240 C   0  0  0  0  0  0  0  0  0  0  0  0
   -0.7630   -9.8880   47.3070 C   0  0  0  0  0  0  0  0  0  0  0  0
    0.4730  -10.1900   46.7270 C   0  0  0  0  0  0  0  0  0  0  0  0
   -0.8090   -9.4460   48.6340 C   0  0  0  0  0  0  0  0  0  0  0  0
    1.6510  -10.0490   47.4640 C   0  0  0  0  0  0  0  0  0  0  0  0
    0.3710   -9.3050   49.3690 C   0  0  0  0  0  0  0  0  0  0  0  0
    1.6000   -9.6070   48.7840 C   0  0  0  0  0  0  0  0  0  0  0  0
  1 25  1  0
  1  2  1  0
  3  2  1  1
  3  4  1  0
  3  7  1  0
  4  5  2  0
  4  6  1  0
  7  8  2  0
  7  9  1  0
  8 10  1  0
  9 11  2  0
 10 12  1  0
 10 13  2  0
 11 13  1  0
 11 14  1  0
 13 15  1  0
 14 16  2  0
 15 17  2  0
 16 17  1  0
 16 18  1  0
 17 19  1  0
 18 20  1  0
 19 21  1  0
 20 21  1  0
 20 22  1  0
 22 24  1  0
 22 23  1  0
 25 26  2  3
 26 27  1  0
 27 28  1  0
 28 29  2  3
 29 30  1  0
 30 31  2  0
 30 32  1  0
 31 33  1  0
 32 34  2  0
 33 35  2  0
 34 35  1  0
M  END
>  <vina_dock>  (245) 
-9.679

$$$$
O14757_PocketFlow_idx-in-all-generaetd-770
     RDKit          3D

 35 40  0  0  0  0  0  0  0  0999 V2000
    9.6380   -3.9170   46.2090 C   0  0  0  0  0  0  0  0  0  0  0  0
    9.8360   -5.1320   46.7460 C   0  0  0  0  0  0  0  0  0  0  0  0
    8.3390   -3.2340   46.1570 C   0  0  0  0  0  0  0  0  0  0  0  0
    0.3200   -6.3800   44.3620 C   0  0  0  0  0  0  0  0  0  0  0  0
    1.1040   -6.8620   45.4100 C   0  0  0  0  0  0  0  0  0  0  0  0
    0.7410   -5.1970   43.7320 C   0  0  0  0  0  0  0  0  0  0  0  0
    2.2700   -6.1970   45.8210 C   0  0  0  0  0  0  0  0  0  0  0  0
    1.9090   -4.5140   44.1290 C   0  0  0  0  0  0  0  0  0  0  0  0
    2.6870   -5.0230   45.1920 C   0  0  0  0  0  0  0  0  0  0  0  0
    2.2840   -3.2430   43.3900 C   0  0  0  0  0  0  0  0  0  0  0  0
    3.8530   -4.3410   45.5980 N   0  0  0  0  0  0  0  0  0  0  0  0
    3.5500   -2.6070   43.8690 C   0  0  0  0  0  0  0  0  0  0  0  0
    4.2220   -3.1800   44.9260 C   0  0  0  0  0  0  0  0  0  0  0  0
    4.7930   -4.6560   46.5960 C   0  0  0  0  0  0  0  0  0  0  0  0
    4.1130   -1.4560   43.3110 C   0  0  0  0  0  0  0  0  0  0  0  0
    5.4030   -2.6690   45.4400 C   0  0  0  0  0  0  0  0  0  0  0  0
    5.8450   -3.4970   46.6050 C   0  0  2  0  0  0  0  0  0  0  0  0
    4.8240   -5.6230   47.3450 O   0  0  0  0  0  0  0  0  0  0  0  0
    5.3280   -0.9390   43.8130 C   0  0  0  0  0  0  0  0  0  0  0  0
    6.0010   -1.5600   44.8770 C   0  0  0  0  0  0  0  0  0  0  0  0
    7.2630   -3.9780   46.4980 C   0  0  0  0  0  0  0  0  0  0  0  0
    7.2690   -1.0480   45.3930 C   0  0  0  0  0  0  0  0  0  0  0  0
    8.2520   -1.7820   45.9460 C   0  0  0  0  0  0  0  0  0  0  0  0
   -0.8600   -6.9990   43.9130 N   0  0  0  0  0  0  0  0  0  0  0  0
   -1.8190   -7.6530   44.6310 C   0  0  0  0  0  0  0  0  0  0  0  0
   -2.3840   -7.3470   45.7440 N   0  0  0  0  0  0  0  0  0  0  0  0
   11.1340   -5.7690   46.7840 C   0  0  0  0  0  0  0  0  0  0  0  0
   11.2980   -7.0950   46.6510 C   0  0  0  0  0  0  0  0  0  0  0  0
   12.5920   -7.8670   46.6770 C   0  0  0  0  0  0  0  0  0  0  0  0
   12.9850   -8.5770   45.4030 C   0  0  0  0  0  0  0  0  0  0  0  0
   12.4250   -9.8210   45.0790 C   0  0  0  0  0  0  0  0  0  0  0  0
   13.8920   -7.9870   44.5120 C   0  0  0  0  0  0  0  0  0  0  0  0
   12.7730  -10.4660   43.8920 C   0  0  0  0  0  0  0  0  0  0  0  0
   14.2390   -8.6340   43.3250 C   0  0  0  0  0  0  0  0  0  0  0  0
   13.6820   -9.8730   43.0160 C   0  0  0  0  0  0  0  0  0  0  0  0
  1  3  1  0
  1  2  2  3
  2 27  1  0
  3 23  1  0
  3 21  2  0
  4  6  2  0
  4 24  1  0
  4  5  1  0
  5  7  2  0
  6  8  1  0
  7  9  1  0
  8 10  1  0
  8  9  2  0
  9 11  1  0
 10 12  2  0
 11 13  1  0
 11 14  1  0
 12 15  1  0
 12 13  1  0
 13 16  2  0
 14 17  1  0
 14 18  2  0
 15 19  1  0
 16 20  1  0
 16 17  1  0
 17 21  1  6
 19 20  2  0
 20 22  1  0
 22 23  2  0
 24 25  1  0
 25 26  2  3
 27 28  2  3
 28 29  1  0
 29 30  1  0
 30 32  1  0
 30 31  2  0
 31 33  1  0
 32 34  2  0
 33 35  2  0
 34 35  1  0
M  END
>  <vina_dock>  (246) 
-9.306

$$$$
O14757_PocketFlow_idx-in-all-generaetd-681
     RDKit          3D

 10 10  0  0  0  0  0  0  0  0999 V2000
    5.0060   -0.9060   44.1680 C   0  0  0  0  0  0  0  0  0  0  0  0
    6.3680   -1.4960   44.5410 C   0  0  0  0  0  0  0  0  0  0  0  0
    6.2760   -2.6750   45.4970 C   0  0  0  0  0  0  0  0  0  0  0  0
    4.5200   -1.3370   42.7820 C   0  0  0  0  0  0  0  0  0  0  0  0
    3.2020   -2.0670   42.8590 C   0  0  0  0  0  0  0  0  0  0  0  0
    2.1540   -1.7340   41.9910 C   0  0  0  0  0  0  0  0  0  0  0  0
    2.9980   -3.0680   43.8180 C   0  0  0  0  0  0  0  0  0  0  0  0
    0.9290   -2.3990   42.0720 C   0  0  0  0  0  0  0  0  0  0  0  0
    1.7730   -3.7320   43.8990 C   0  0  0  0  0  0  0  0  0  0  0  0
    0.7390   -3.3980   43.0250 C   0  0  0  0  0  0  0  0  0  0  0  0
  1  4  1  0
  1  2  1  0
  2  3  1  0
  4  5  1  0
  5  6  2  0
  5  7  1  0
  6  8  1  0
  7  9  2  0
  8 10  2  0
  9 10  1  0
M  END
>  <vina_dock>  (247) 
-5.469

$$$$
O14757_PocketFlow_idx-in-all-generaetd-109
     RDKit          3D

 35 39  0  0  0  0  0  0  0  0999 V2000
    5.5410   -8.7590   48.8670 C   0  0  0  0  0  0  0  0  0  0  0  0
    5.3790   -7.4590   48.5640 C   0  0  0  0  0  0  0  0  0  0  0  0
    4.6690   -9.8560   48.3230 C   0  0  0  0  0  0  0  0  0  0  0  0
    3.2120   -9.6730   48.6740 C   0  0  0  0  0  0  0  0  0  0  0  0
    0.9130   -9.1280   47.9480 C   0  0  0  0  0  0  0  0  0  0  0  0
    0.5080   -9.3490   49.2740 C   0  0  0  0  0  0  0  0  0  0  0  0
    2.2840   -9.2970   47.6820 C   0  0  0  0  0  0  0  0  0  0  0  0
    1.4140   -9.7120   50.2780 C   0  0  0  0  0  0  0  0  0  0  0  0
    2.7630   -9.8690   49.9810 C   0  0  0  0  0  0  0  0  0  0  0  0
    0.0250   -8.7430   46.9560 N   0  0  0  0  0  0  0  0  0  0  0  0
    0.2920   -7.5780   46.1170 C   0  0  0  0  0  0  0  0  0  0  0  0
   -1.0850   -9.5980   46.5140 C   0  0  0  0  0  0  0  0  0  0  0  0
   -0.3080   -7.5510   44.7880 N   0  0  0  0  0  0  0  0  0  0  0  0
   -2.2300   -8.6980   46.0170 C   0  0  2  0  0  0  0  0  0  0  0  0
   -1.7600   -7.7840   44.8680 C   0  0  0  0  0  0  0  0  0  0  0  0
   -2.7020   -7.8880   47.1060 O   0  0  0  0  0  0  0  0  0  0  0  0
    6.2520   -6.3500   49.0790 C   0  0  0  0  0  0  0  0  0  0  0  0
    6.3730   -5.2210   48.0830 C   0  0  0  0  0  0  0  0  0  0  0  0
    5.2320   -4.5430   47.6350 C   0  0  0  0  0  0  0  0  0  0  0  0
    7.6310   -4.8020   47.6320 C   0  0  0  0  0  0  0  0  0  0  0  0
    5.3480   -3.4740   46.7420 C   0  0  0  0  0  0  0  0  0  0  0  0
    7.7450   -3.7320   46.7420 C   0  0  0  0  0  0  0  0  0  0  0  0
    6.6040   -3.0610   46.2840 C   0  0  0  0  0  0  0  0  0  0  0  0
    6.7300   -1.8920   45.3340 C   0  0  0  0  0  0  0  0  0  0  0  0
    5.5460   -1.7260   44.4090 C   0  0  0  0  0  0  0  0  0  0  0  0
    5.4930   -0.6620   43.5080 C   0  0  0  0  0  0  0  0  0  0  0  0
    4.4850   -2.6470   44.4300 C   0  0  0  0  0  0  0  0  0  0  0  0
    4.3970   -0.5120   42.6570 C   0  0  0  0  0  0  0  0  0  0  0  0
    3.3600   -2.5200   43.5810 C   0  0  0  0  0  0  0  0  0  0  0  0
    3.3300   -1.4220   42.6840 C   0  0  0  0  0  0  0  0  0  0  0  0
    2.2660   -3.4290   43.5860 C   0  0  0  0  0  0  0  0  0  0  0  0
    2.2340   -1.2510   41.8250 C   0  0  0  0  0  0  0  0  0  0  0  0
    2.2310   -4.6220   44.5060 C   0  0  0  0  0  0  0  0  0  0  0  0
    1.1850   -3.2300   42.7120 C   0  0  0  0  0  0  0  0  0  0  0  0
    1.1690   -2.1480   41.8390 C   0  0  0  0  0  0  0  0  0  0  0  0
  1  3  1  0
  1  2  2  3
  2 17  1  0
  3  4  1  0
  4  7  2  0
  4  9  1  0
  5 10  1  0
  5  7  1  0
  5  6  2  0
  6  8  1  0
  8  9  2  0
 10 11  1  0
 10 12  1  0
 11 13  1  0
 12 14  1  0
 13 15  1  0
 14 15  1  0
 14 16  1  1
 17 18  1  0
 18 20  1  0
 18 19  2  0
 19 21  1  0
 20 22  2  0
 21 23  2  0
 22 23  1  0
 23 24  1  0
 24 25  1  0
 25 26  2  0
 25 27  1  0
 26 28  1  0
 27 29  2  0
 28 30  2  0
 29 30  1  0
 29 31  1  0
 30 32  1  0
 31 34  2  0
 31 33  1  0
 32 35  2  0
 34 35  1  0
M  END
>  <vina_dock>  (248) 
-9.854

$$$$
O14757_PocketFlow_idx-in-all-generaetd-61
     RDKit          3D

 35 38  0  0  0  0  0  0  0  0999 V2000
    3.8770   -2.4600   43.5100 C   0  0  0  0  0  0  0  0  0  0  0  0
    5.0720   -2.1750   44.2060 C   0  0  0  0  0  0  0  0  0  0  0  0
    5.4170   -2.9460   45.3650 C   0  0  0  0  0  0  0  0  0  0  0  0
    4.5500   -3.9460   45.8440 C   0  0  0  0  0  0  0  0  0  0  0  0
    3.3600   -4.1950   45.1560 C   0  0  0  0  0  0  0  0  0  0  0  0
    3.0360   -3.4670   44.0020 C   0  0  0  0  0  0  0  0  0  0  0  0
    6.0110   -1.0920   43.7270 C   0  0  0  0  0  0  0  0  0  0  0  0
    6.6160   -2.7730   46.0920 C   0  0  0  0  0  0  0  0  0  0  0  0
    6.9360   -3.5290   47.2400 C   0  0  0  0  0  0  0  0  0  0  0  0
    8.1420   -3.3880   48.0050 C   0  0  0  0  0  0  0  0  0  0  0  0
    8.2990   -4.1750   49.1590 C   0  0  0  0  0  0  0  0  0  0  0  0
    7.3260   -5.0950   49.5300 C   0  0  0  0  0  0  0  0  0  0  0  0
    6.1800   -5.2360   48.7550 C   0  0  0  0  0  0  0  0  0  0  0  0
    5.9670   -4.4700   47.6210 C   0  0  0  0  0  0  0  0  0  0  0  0
    4.8270   -4.6730   46.9420 N   0  0  0  0  0  0  0  0  0  0  0  0
    3.4490   -1.7390   42.2430 C   0  0  0  0  0  0  0  0  0  0  0  0
    1.9600   -1.6510   42.0300 C   0  0  0  0  0  0  0  0  0  0  0  0
   -0.0510   -0.4790   41.3930 C   0  0  0  0  0  0  0  0  0  0  0  0
    1.3300   -0.4870   41.5890 C   0  0  0  0  0  0  0  0  0  0  0  0
   -0.7770   -1.6390   41.6200 C   0  0  0  0  0  0  0  0  0  0  0  0
   -0.1940   -2.7730   42.0460 N   0  0  0  0  0  0  0  0  0  0  0  0
    1.1470   -2.7600   42.2290 C   0  0  0  0  0  0  0  0  0  0  0  0
   -2.1590   -1.7100   41.4630 N   0  0  0  0  0  0  0  0  0  0  0  0
   -2.8140   -0.7700   40.5370 C   0  0  0  0  0  0  0  0  0  0  0  0
   -3.7600   -1.4630   39.5640 C   0  0  0  0  0  0  0  0  0  0  0  0
   -3.4830    0.4030   41.2520 C   0  0  0  0  0  0  0  0  0  0  0  0
    2.3970   -5.2610   45.6400 C   0  0  0  0  0  0  0  0  0  0  0  0
    0.9730   -5.1360   45.0860 C   0  0  0  0  0  0  0  0  0  0  0  0
    0.3490   -6.4800   44.7530 C   0  0  0  0  0  0  0  0  0  0  0  0
   -1.0890   -6.7790   45.7520 Cl  0  0  0  0  0  0  0  0  0  0  0  0
   -0.0030   -6.5520   43.4470 F   0  0  0  0  0  0  0  0  0  0  0  0
    1.2500   -7.4730   44.9710 F   0  0  0  0  0  0  0  0  0  0  0  0
    9.2250   -2.3930   47.5910 C   0  0  2  0  0  0  0  0  0  0  0  0
   10.3400   -2.9490   46.6950 C   0  0  0  0  0  0  0  0  0  0  0  0
    9.8270   -1.7810   48.7780 N   0  0  0  0  0  0  0  0  0  0  0  0
  1 16  1  0
  1  6  1  0
  1  2  2  0
  2  7  1  0
  2  3  1  0
  3  4  2  0
  3  8  1  0
  4  5  1  0
  4 15  1  0
  5  6  2  0
  5 27  1  0
  8  9  2  0
  9 14  1  0
  9 10  1  0
 10 33  1  0
 10 11  2  0
 11 12  1  0
 12 13  2  0
 13 14  1  0
 14 15  2  0
 16 17  1  0
 17 19  1  0
 17 22  2  0
 18 19  2  0
 18 20  1  0
 20 23  1  0
 20 21  2  0
 21 22  1  0
 23 24  1  0
 24 25  1  0
 24 26  1  0
 27 28  1  0
 28 29  1  0
 29 31  1  0
 29 32  1  0
 29 30  1  0
 33 34  1  1
 33 35  1  0
M  END
>  <vina_dock>  (249) 
-9.652

$$$$
O14757_PocketFlow_idx-in-all-generaetd-843
     RDKit          3D

 35 39  0  0  0  0  0  0  0  0999 V2000
    2.8830   -3.7940   44.4020 C   0  0  0  0  0  0  0  0  0  0  0  0
    2.5210   -4.9650   45.0920 C   0  0  0  0  0  0  0  0  0  0  0  0
    1.2940   -5.6160   44.8620 C   0  0  0  0  0  0  0  0  0  0  0  0
    0.4200   -5.0640   43.9150 C   0  0  0  0  0  0  0  0  0  0  0  0
    1.9790   -3.2750   43.4640 C   0  0  0  0  0  0  0  0  0  0  0  0
    0.7580   -3.9030   43.2210 C   0  0  0  0  0  0  0  0  0  0  0  0
    4.1740   -3.1330   44.6570 C   0  0  0  0  0  0  0  0  0  0  0  0
    8.8250   -1.8070   46.2930 C   0  0  0  0  0  0  0  0  0  0  0  0
    8.5040   -3.0090   46.9320 C   0  0  0  0  0  0  0  0  0  0  0  0
    7.9020   -1.2460   45.3980 C   0  0  0  0  0  0  0  0  0  0  0  0
    7.2770   -3.6320   46.6900 C   0  0  0  0  0  0  0  0  0  0  0  0
    6.6650   -1.8630   45.1460 C   0  0  0  0  0  0  0  0  0  0  0  0
    6.3470   -3.0710   45.8010 C   0  0  0  0  0  0  0  0  0  0  0  0
    5.7360   -1.3040   44.2570 C   0  0  0  0  0  0  0  0  0  0  0  0
    5.1090   -3.6890   45.5480 C   0  0  0  0  0  0  0  0  0  0  0  0
    4.5090   -1.9310   44.0180 C   0  0  0  0  0  0  0  0  0  0  0  0
   10.1560   -1.1360   46.5360 C   0  0  0  0  0  0  0  0  0  0  0  0
   10.8270   -1.6550   47.7790 C   0  0  0  0  0  0  0  0  0  0  0  0
   12.4440   -3.2890   46.6710 C   0  0  2  0  0  0  0  0  0  0  0  0
   11.8130   -2.5680   47.8280 C   0  0  0  0  0  0  0  0  0  0  0  0
   13.4690   -4.2010   47.3570 C   0  0  0  0  0  0  0  0  0  0  0  0
   12.4040   -3.1000   49.0990 C   0  0  0  0  0  0  0  0  0  0  0  0
   12.9980   -4.3960   48.7390 N   0  0  0  0  0  0  0  0  0  0  0  0
   13.0760   -2.3720   45.7950 O   0  0  0  0  0  0  0  0  0  0  0  0
    0.9370   -6.8400   45.5980 C   0  0  0  0  0  0  0  0  0  0  0  0
   -0.3170   -6.9710   46.2180 C   0  0  0  0  0  0  0  0  0  0  0  0
    1.8410   -7.9090   45.7000 C   0  0  0  0  0  0  0  0  0  0  0  0
   -0.6680   -8.1300   46.9270 C   0  0  0  0  0  0  0  0  0  0  0  0
    1.5030   -9.0700   46.3980 C   0  0  0  0  0  0  0  0  0  0  0  0
    0.2560   -9.1810   47.0090 C   0  0  0  0  0  0  0  0  0  0  0  0
   -2.0250   -8.2570   47.5770 C   0  0  0  0  0  0  0  0  0  0  0  0
   -2.8230   -9.4000   47.0110 C   0  0  0  0  0  0  0  0  0  0  0  0
   -3.5530   -9.4360   45.8850 C   0  0  0  0  0  0  0  0  0  0  0  0
   -3.7440   -8.3530   44.9490 C   0  0  0  0  0  0  0  0  0  0  0  0
   -2.9570   -8.1740   43.8810 C   0  0  0  0  0  0  0  0  0  0  0  0
  1  5  1  0
  1  7  1  0
  1  2  2  0
  2  3  1  0
  3  4  2  0
  3 25  1  0
  4  6  1  0
  5  6  2  0
  7 16  1  0
  7 15  2  0
  8 10  1  0
  8 17  1  0
  8  9  2  0
  9 11  1  0
 10 12  2  0
 11 13  2  0
 12 14  1  0
 12 13  1  0
 13 15  1  0
 14 16  2  0
 17 18  1  0
 18 20  2  3
 19 24  1  6
 19 21  1  0
 19 20  1  0
 20 22  1  0
 21 23  1  0
 22 23  1  0
 25 27  1  0
 25 26  2  0
 26 28  1  0
 27 29  2  0
 28 30  2  0
 28 31  1  0
 29 30  1  0
 31 32  1  0
 32 33  2  3
 33 34  1  0
 34 35  2  0
M  END
>  <vina_dock>  (250) 
-9.639

$$$$
O14757_PocketFlow_idx-in-all-generaetd-376
     RDKit          3D

 11 11  0  0  0  0  0  0  0  0999 V2000
    0.5070   -1.1450   41.3310 C   0  0  0  0  0  0  0  0  0  0  0  0
    1.8580   -0.9060   41.5890 C   0  0  0  0  0  0  0  0  0  0  0  0
    2.5900   -1.7780   42.3970 C   0  0  0  0  0  0  0  0  0  0  0  0
    1.8780   -2.8560   42.9170 C   0  0  0  0  0  0  0  0  0  0  0  0
   -0.0980   -2.2520   41.9020 C   0  0  0  0  0  0  0  0  0  0  0  0
    0.5640   -3.1150   42.6840 N   0  0  0  0  0  0  0  0  0  0  0  0
   -1.4380   -2.5360   41.6570 N   0  0  0  0  0  0  0  0  0  0  0  0
    3.9340   -1.4850   42.6760 N   0  0  0  0  0  0  0  0  0  0  0  0
    4.7400   -1.9320   43.6910 C   0  0  0  0  0  0  0  0  0  0  0  0
    5.8670   -1.4160   44.1970 C   0  0  0  0  0  0  0  0  0  0  0  0
    6.6540   -2.0490   45.2970 C   0  0  0  0  0  0  0  0  0  0  0  0
  1  2  2  0
  1  5  1  0
  2  3  1  0
  3  8  1  0
  3  4  2  0
  4  6  1  0
  5  7  1  0
  5  6  2  0
  8  9  1  0
  9 10  2  3
 10 11  1  0
M  END
>  <vina_dock>  (251) 
-5.279

$$$$
O14757_PocketFlow_idx-in-all-generaetd-111
     RDKit          3D

 22 24  0  0  0  0  0  0  0  0999 V2000
    2.4100   -0.8400   41.7050 C   0  0  0  0  0  0  0  0  0  0  0  0
    1.4140   -1.3030   40.9300 C   0  0  0  0  0  0  0  0  0  0  0  0
    3.1430   -1.6000   42.7210 C   0  0  0  0  0  0  0  0  0  0  0  0
    5.3030   -3.7810   45.6540 C   0  0  0  0  0  0  0  0  0  0  0  0
    6.5640   -3.3370   46.0570 C   0  0  0  0  0  0  0  0  0  0  0  0
    4.5470   -3.0900   44.6760 C   0  0  0  0  0  0  0  0  0  0  0  0
    7.1060   -2.1890   45.4960 C   0  0  0  0  0  0  0  0  0  0  0  0
    3.2590   -3.5090   44.2360 C   0  0  0  0  0  0  0  0  0  0  0  0
    5.1170   -1.9190   44.1150 C   0  0  0  0  0  0  0  0  0  0  0  0
    6.3870   -1.4860   44.5310 C   0  0  0  0  0  0  0  0  0  0  0  0
    2.5790   -2.7540   43.2630 C   0  0  0  0  0  0  0  0  0  0  0  0
    4.4090   -1.1920   43.1450 C   0  0  0  0  0  0  0  0  0  0  0  0
    2.6000   -4.7140   44.7640 C   0  0  0  0  0  0  0  0  0  0  0  0
    1.3520   -4.6270   45.3990 C   0  0  0  0  0  0  0  0  0  0  0  0
    3.2010   -5.9760   44.6340 C   0  0  0  0  0  0  0  0  0  0  0  0
    0.7240   -5.7710   45.8970 C   0  0  0  0  0  0  0  0  0  0  0  0
    2.5740   -7.1190   45.1320 C   0  0  0  0  0  0  0  0  0  0  0  0
    1.3360   -7.0160   45.7630 C   0  0  0  0  0  0  0  0  0  0  0  0
    0.8910   -2.6540   40.9260 C   0  0  0  0  0  0  0  0  0  0  0  0
   -0.3890   -3.0340   41.0780 C   0  0  0  0  0  0  0  0  0  0  0  0
   -1.5400   -2.1860   41.2940 C   0  0  0  0  0  0  0  0  0  0  0  0
   -2.6610   -2.2910   40.5720 C   0  0  0  0  0  0  0  0  0  0  0  0
  1  2  2  3
  1  3  1  0
  2 19  1  0
  3 12  2  0
  3 11  1  0
  4  6  1  0
  4  5  2  0
  5  7  1  0
  6  9  2  0
  6  8  1  0
  7 10  2  0
  8 11  2  0
  8 13  1  0
  9 12  1  0
  9 10  1  0
 13 15  1  0
 13 14  2  0
 14 16  1  0
 15 17  2  0
 16 18  2  0
 17 18  1  0
 19 20  2  3
 20 21  1  0
 21 22  2  0
M  END
>  <vina_dock>  (252) 
-9.445

$$$$
O14757_PocketFlow_idx-in-all-generaetd-820
     RDKit          3D

 35 37  0  0  0  0  0  0  0  0999 V2000
    3.6390   -1.7850   43.4410 C   0  0  0  0  0  0  0  0  0  0  0  0
    2.7120   -1.6800   42.3960 C   0  0  0  0  0  0  0  0  0  0  0  0
    1.5560   -2.4750   42.3770 C   0  0  0  0  0  0  0  0  0  0  0  0
    1.3660   -3.4000   43.4160 C   0  0  0  0  0  0  0  0  0  0  0  0
    2.2900   -3.5220   44.4650 C   0  0  0  0  0  0  0  0  0  0  0  0
    3.4380   -2.7160   44.4650 C   0  0  0  0  0  0  0  0  0  0  0  0
    4.8420   -0.9160   43.3980 C   0  0  0  0  0  0  0  0  0  0  0  0
    4.9730   -0.1350   42.4580 O   0  0  0  0  0  0  0  0  0  0  0  0
    5.8220   -0.9590   44.5570 C   0  0  0  0  0  0  0  0  0  0  0  0
    6.5380   -2.3070   44.6210 C   0  0  0  0  0  0  0  0  0  0  0  0
    7.4820   -2.4260   45.8230 C   0  0  0  0  0  0  0  0  0  0  0  0
    6.9830   -3.3670   46.8930 C   0  0  0  0  0  0  0  0  0  0  0  0
    7.7040   -3.5340   48.0840 C   0  0  0  0  0  0  0  0  0  0  0  0
    5.7900   -4.0820   46.7160 C   0  0  0  0  0  0  0  0  0  0  0  0
    7.2390   -4.3970   49.0790 C   0  0  0  0  0  0  0  0  0  0  0  0
    5.3260   -4.9430   47.7130 C   0  0  0  0  0  0  0  0  0  0  0  0
    6.0510   -5.1010   48.8940 C   0  0  0  0  0  0  0  0  0  0  0  0
    0.6020   -2.3760   41.2070 C   0  0  0  0  0  0  0  0  0  0  0  0
   -0.7810   -2.6260   41.5850 N   0  0  0  0  0  0  0  0  0  0  0  0
   -1.8770   -1.8840   41.2240 C   0  0  0  0  0  0  0  0  0  0  0  0
   -2.0270   -0.5590   41.2180 C   0  0  0  0  0  0  0  0  0  0  0  0
    2.0820   -4.5540   45.5420 C   0  0  0  0  0  0  0  0  0  0  0  0
    0.9300   -5.3680   45.2350 N   0  0  0  0  0  0  0  0  0  0  0  0
    1.0420   -6.6830   44.8750 C   0  0  0  0  0  0  0  0  0  0  0  0
    2.0900   -7.3140   44.8360 O   0  0  0  0  0  0  0  0  0  0  0  0
   -0.2300   -7.3010   44.4250 C   0  0  0  0  0  0  0  0  0  0  0  0
   -1.3190   -7.5640   45.1750 C   0  0  0  0  0  0  0  0  0  0  0  0
   -1.4300   -7.3140   46.6630 C   0  0  0  0  0  0  0  0  0  0  0  0
   -2.5370   -8.1700   44.5130 C   0  0  0  0  0  0  0  0  0  0  0  0
   -2.2050   -8.3910   47.4580 C   0  0  1  0  0  0  0  0  0  0  0  0
   -3.7590   -8.1550   45.4280 C   0  0  0  0  0  0  0  0  0  0  0  0
   -3.4660   -8.9010   46.7250 C   0  0  0  0  0  0  0  0  0  0  0  0
   -1.2860   -9.5270   47.9970 C   0  0  0  0  0  0  0  0  0  0  0  0
   -0.0520   -9.0380   48.7560 C   0  0  0  0  0  0  0  0  0  0  0  0
   -0.8730  -10.4890   46.8760 C   0  0  0  0  0  0  0  0  0  0  0  0
  1  2  2  0
  1  7  1  0
  1  6  1  0
  2  3  1  0
  3 18  1  0
  3  4  2  0
  4  5  1  0
  5  6  2  0
  5 22  1  0
  7  8  2  0
  7  9  1  0
  9 10  1  0
 10 11  1  0
 11 12  1  0
 12 14  1  0
 12 13  2  0
 13 15  1  0
 14 16  2  0
 15 17  2  0
 16 17  1  0
 18 19  1  0
 19 20  1  0
 20 21  2  0
 22 23  1  0
 23 24  1  0
 24 26  1  0
 24 25  2  0
 26 27  2  3
 27 29  1  0
 27 28  1  0
 28 30  1  0
 29 31  1  0
 30 32  1  0
 30 33  1  6
 31 32  1  0
 33 35  1  0
 33 34  1  0
M  END
>  <vina_dock>  (253) 
-8.813

$$$$
O14757_PocketFlow_idx-in-all-generaetd-906
     RDKit          3D

 35 40  0  0  0  0  0  0  0  0999 V2000
    1.0720   -4.8070   44.2650 C   0  0  2  0  0  0  0  0  0  0  0  0
    1.7560   -3.6220   43.6300 C   0  0  0  0  0  0  0  0  0  0  0  0
    1.1610   -2.8890   42.5980 C   0  0  0  0  0  0  0  0  0  0  0  0
    2.0620   -5.9680   44.3950 C   0  0  0  0  0  0  0  0  0  0  0  0
    3.4730   -5.5690   44.8700 C   0  0  0  0  0  0  0  0  0  0  0  0
    3.6060   -4.0760   45.2580 C   0  0  2  0  0  0  0  0  0  0  0  0
    3.0390   -3.2720   44.1030 C   0  0  0  0  0  0  0  0  0  0  0  0
    5.0090   -3.6850   45.6810 C   0  0  0  0  0  0  0  0  0  0  0  0
    5.7260   -2.6830   45.0130 C   0  0  0  0  0  0  0  0  0  0  0  0
    7.0340   -2.3450   45.4050 C   0  0  0  0  0  0  0  0  0  0  0  0
    7.6560   -2.9730   46.4920 C   0  0  0  0  0  0  0  0  0  0  0  0
    6.9180   -3.9370   47.1930 C   0  0  0  0  0  0  0  0  0  0  0  0
    5.6190   -4.2720   46.7990 C   0  0  0  0  0  0  0  0  0  0  0  0
   -0.0070   -5.2530   43.5590 F   0  0  0  0  0  0  0  0  0  0  0  0
    1.8500   -1.8300   42.0110 C   0  0  0  0  0  0  0  0  0  0  0  0
    3.1370   -1.5090   42.4450 C   0  0  0  0  0  0  0  0  0  0  0  0
    3.7320   -2.2320   43.4860 C   0  0  0  0  0  0  0  0  0  0  0  0
    5.1130   -1.9190   43.9000 C   0  0  0  0  0  0  0  0  0  0  0  0
    5.7420   -1.0340   43.3290 O   0  0  0  0  0  0  0  0  0  0  0  0
    4.9100   -5.1770   47.5410 O   0  0  0  0  0  0  0  0  0  0  0  0
    9.0260   -2.6180   46.8960 C   0  0  0  0  0  0  0  0  0  0  0  0
    9.6020   -1.3940   46.5140 C   0  0  0  0  0  0  0  0  0  0  0  0
    9.8020   -3.4950   47.6730 C   0  0  0  0  0  0  0  0  0  0  0  0
   10.9050   -1.0670   46.8870 C   0  0  0  0  0  0  0  0  0  0  0  0
   11.0990   -3.1420   48.0670 C   0  0  0  0  0  0  0  0  0  0  0  0
   11.6670   -1.9320   47.6590 C   0  0  0  0  0  0  0  0  0  0  0  0
   11.4020    0.1310   46.4640 O   0  0  0  0  0  0  0  0  0  0  0  0
   11.8880   -4.1010   48.8710 C   0  0  0  0  0  0  0  0  0  0  0  0
   12.3420   -5.2780   48.2600 N   0  0  0  0  0  0  0  0  0  0  0  0
   12.0790   -3.8280   50.0540 O   0  0  0  0  0  0  0  0  0  0  0  0
   13.0620   -6.2110   49.1250 C   0  0  0  0  0  0  0  0  0  0  0  0
   12.7430   -5.3000   46.8500 C   0  0  0  0  0  0  0  0  0  0  0  0
   13.0310   -7.6350   48.5770 C   0  0  0  0  0  0  0  0  0  0  0  0
   12.7020   -6.7100   46.2710 C   0  0  0  0  0  0  0  0  0  0  0  0
   13.5060   -7.6840   47.1280 C   0  0  0  0  0  0  0  0  0  0  0  0
  1 14  1  6
  1  2  1  0
  1  4  1  0
  2  3  1  0
  2  7  2  0
  3 15  2  0
  4  5  1  0
  6  5  1  6
  6  7  1  0
  6  8  1  0
  7 17  1  0
  8  9  2  0
  8 13  1  0
  9 18  1  0
  9 10  1  0
 10 11  2  0
 11 21  1  0
 11 12  1  0
 12 13  2  0
 13 20  1  0
 15 16  1  0
 16 17  2  0
 17 18  1  0
 18 19  2  0
 21 22  2  0
 21 23  1  0
 22 24  1  0
 23 25  2  0
 24 27  1  0
 24 26  2  0
 25 26  1  0
 25 28  1  0
 28 29  1  0
 28 30  2  0
 29 32  1  0
 29 31  1  0
 31 33  1  0
 32 34  1  0
 33 35  1  0
 34 35  1  0
M  END
>  <vina_dock>  (254) 
-10.49

$$$$
O14757_PocketFlow_idx-in-all-generaetd-46
     RDKit          3D

 35 37  0  0  0  0  0  0  0  0999 V2000
    8.2060   -3.4990   46.4320 C   0  0  0  0  0  0  0  0  0  0  0  0
    8.3390   -2.2290   45.8760 C   0  0  0  0  0  0  0  0  0  0  0  0
    7.2030   -1.4910   45.5390 C   0  0  0  0  0  0  0  0  0  0  0  0
    5.9080   -1.9930   45.7610 C   0  0  0  0  0  0  0  0  0  0  0  0
    5.7710   -3.2900   46.3060 C   0  0  0  0  0  0  0  0  0  0  0  0
    6.9270   -4.0280   46.6370 C   0  0  0  0  0  0  0  0  0  0  0  0
    9.4370   -4.2520   46.7750 C   0  0  0  0  0  0  0  0  0  0  0  0
   10.5780   -3.8380   46.6740 O   0  0  0  0  0  0  0  0  0  0  0  0
    9.1840   -5.4920   47.2290 O   0  0  0  0  0  0  0  0  0  0  0  0
    4.4310   -3.9700   46.5030 C   0  0  0  0  0  0  0  0  0  0  0  0
    4.1060   -4.9230   45.3490 C   0  0  0  0  0  0  0  0  0  0  0  0
    2.6770   -5.4020   45.4160 C   0  0  0  0  0  0  0  0  0  0  0  0
    1.6910   -4.6110   46.0180 C   0  0  0  0  0  0  0  0  0  0  0  0
    2.3210   -6.6560   44.9080 C   0  0  0  0  0  0  0  0  0  0  0  0
    0.3710   -5.0620   46.0990 C   0  0  0  0  0  0  0  0  0  0  0  0
    1.0020   -7.1070   44.9900 C   0  0  0  0  0  0  0  0  0  0  0  0
    0.0080   -6.3110   45.5740 C   0  0  0  0  0  0  0  0  0  0  0  0
   -1.4190   -6.7900   45.7060 C   0  0  0  0  0  0  0  0  0  0  0  0
   -1.4730   -8.0640   46.3460 O   0  0  0  0  0  0  0  0  0  0  0  0
   -2.3020   -8.9720   45.6300 C   0  0  0  0  0  0  0  0  0  0  0  0
   -3.3320   -8.1620   44.9100 C   0  0  0  0  0  0  0  0  0  0  0  0
   -3.5920   -8.2450   43.5980 C   0  0  0  0  0  0  0  0  0  0  0  0
    4.7240   -1.1210   45.3810 C   0  0  0  0  0  0  0  0  0  0  0  0
    4.4300   -0.9410   43.8690 C   0  0  1  0  0  0  0  0  0  0  0  0
    5.5960   -0.3090   43.1020 C   0  0  0  0  0  0  0  0  0  0  0  0
    3.9750   -2.2290   43.1430 C   0  0  0  0  0  0  0  0  0  0  0  0
    2.5420   -2.2300   42.6560 C   0  0  0  0  0  0  0  0  0  0  0  0
    1.6510   -3.2500   43.0230 C   0  0  0  0  0  0  0  0  0  0  0  0
    2.0650   -1.1720   41.8700 C   0  0  0  0  0  0  0  0  0  0  0  0
    0.3240   -3.2330   42.5840 C   0  0  0  0  0  0  0  0  0  0  0  0
    0.7390   -1.1530   41.4290 C   0  0  0  0  0  0  0  0  0  0  0  0
   -0.1360   -2.1850   41.7800 C   0  0  0  0  0  0  0  0  0  0  0  0
   -1.5340   -2.1210   41.2930 C   0  0  0  0  0  0  0  0  0  0  0  0
   -2.3160   -1.2080   41.4860 O   0  0  0  0  0  0  0  0  0  0  0  0
   -1.8920   -3.2080   40.5840 O   0  0  0  0  0  0  0  0  0  0  0  0
  1  2  2  0
  1  6  1  0
  1  7  1  0
  2  3  1  0
  3  4  2  0
  4 23  1  0
  4  5  1  0
  5 10  1  0
  5  6  2  0
  7  8  2  0
  7  9  1  0
 10 11  1  0
 11 12  1  0
 12 14  1  0
 12 13  2  0
 13 15  1  0
 14 16  2  0
 15 17  2  0
 16 17  1  0
 17 18  1  0
 18 19  1  0
 19 20  1  0
 20 21  1  0
 21 22  2  0
 23 24  1  0
 24 25  1  6
 24 26  1  0
 26 27  1  0
 27 29  1  0
 27 28  2  0
 28 30  1  0
 29 31  2  0
 30 32  2  0
 31 32  1  0
 32 33  1  0
 33 35  1  0
 33 34  2  0
M  END
>  <vina_dock>  (255) 
-8.646

$$$$
O14757_PocketFlow_idx-in-all-generaetd-92
     RDKit          3D

 11 11  0  0  0  0  0  0  0  0999 V2000
    0.5350   -3.6610   42.8760 C   0  0  0  0  0  0  0  0  0  0  0  0
    1.8600   -2.9900   43.1250 C   0  0  0  0  0  0  0  0  0  0  0  0
    2.8260   -3.5180   43.8930 C   0  0  0  0  0  0  0  0  0  0  0  0
    4.1170   -2.8700   44.1600 C   0  0  0  0  0  0  0  0  0  0  0  0
    6.5350   -1.5340   44.6690 C   0  0  0  0  0  0  0  0  0  0  0  0
    5.6280   -1.0090   43.7510 C   0  0  0  0  0  0  0  0  0  0  0  0
    6.2370   -2.7170   45.3420 C   0  0  0  0  0  0  0  0  0  0  0  0
    4.4220   -1.6720   43.5030 C   0  0  0  0  0  0  0  0  0  0  0  0
    5.0320   -3.3790   45.0920 C   0  0  0  0  0  0  0  0  0  0  0  0
   -0.0440   -3.2700   41.5120 C   0  0  0  0  0  0  0  0  0  0  0  0
   -1.3080   -2.5500   41.6620 N   0  0  0  0  0  0  0  0  0  0  0  0
  1 10  1  0
  1  2  1  0
  2  3  2  3
  3  4  1  0
  4  8  2  0
  4  9  1  0
  5  6  2  0
  5  7  1  0
  6  8  1  0
  7  9  2  0
 10 11  1  0
M  END
>  <vina_dock>  (256) 
-5.928

$$$$
O14757_PocketFlow_idx-in-all-generaetd-1
     RDKit          3D

 31 34  0  0  0  0  0  0  0  0999 V2000
    7.9320   -3.1040   47.3420 C   0  0  0  0  0  0  0  0  0  0  0  0
    6.9970   -2.7910   46.3100 C   0  0  0  0  0  0  0  0  0  0  0  0
    5.7190   -3.4200   46.2860 C   0  0  0  0  0  0  0  0  0  0  0  0
    4.7710   -3.1030   45.2380 C   0  0  0  0  0  0  0  0  0  0  0  0
    3.4690   -3.6660   45.1230 C   0  0  0  0  0  0  0  0  0  0  0  0
    2.5460   -3.3490   44.0920 C   0  0  0  0  0  0  0  0  0  0  0  0
    1.2370   -3.9130   43.9880 C   0  0  0  0  0  0  0  0  0  0  0  0
    0.4050   -3.5370   42.9160 C   0  0  0  0  0  0  0  0  0  0  0  0
    0.8360   -2.6210   41.9650 C   0  0  0  0  0  0  0  0  0  0  0  0
    2.1050   -2.0630   42.0690 C   0  0  0  0  0  0  0  0  0  0  0  0
    2.9630   -2.4160   43.1200 C   0  0  0  0  0  0  0  0  0  0  0  0
    7.2920   -1.8650   45.2940 C   0  0  0  0  0  0  0  0  0  0  0  0
    6.3830   -1.5620   44.2830 C   0  0  0  0  0  0  0  0  0  0  0  0
    5.1300   -2.1700   44.2450 C   0  0  0  0  0  0  0  0  0  0  0  0
    4.2390   -1.8430   43.2110 C   0  0  0  0  0  0  0  0  0  0  0  0
    5.4400   -4.3480   47.3190 C   0  0  0  0  0  0  0  0  0  0  0  0
    6.3520   -4.6470   48.3290 C   0  0  0  0  0  0  0  0  0  0  0  0
    7.5880   -4.0260   48.3420 C   0  0  0  0  0  0  0  0  0  0  0  0
    9.3040   -2.4600   47.4430 C   0  0  0  0  0  0  0  0  0  0  0  0
   10.4130   -3.5100   47.5610 C   0  0  0  0  0  0  0  0  0  0  0  0
   11.5120   -3.3490   46.5110 C   0  0  0  0  0  0  0  0  0  0  0  0
   11.6960   -1.9130   46.0360 C   0  0  0  0  0  0  0  0  0  0  0  0
   12.3700   -1.9070   44.7840 O   0  0  0  0  0  0  0  0  0  0  0  0
    0.7420   -4.9040   45.0250 C   0  0  0  0  0  0  0  0  0  0  0  0
    0.0130   -5.9860   44.4380 O   0  0  0  0  0  0  0  0  0  0  0  0
   -0.6560   -6.8140   45.3930 C   0  0  2  0  0  0  0  0  0  0  0  0
   -1.7930   -7.7160   44.7880 C   0  0  0  0  0  0  0  0  0  0  0  0
   -3.0240   -7.2350   45.0790 F   0  0  0  0  0  0  0  0  0  0  0  0
   -1.7370   -8.9770   45.2860 F   0  0  0  0  0  0  0  0  0  0  0  0
   -1.6930   -7.8050   43.4420 F   0  0  0  0  0  0  0  0  0  0  0  0
   -1.0930   -5.8890   46.4510 N   0  0  0  0  0  0  0  0  0  0  0  0
  1  2  2  0
  1 19  1  0
  1 18  1  0
  2 12  1  0
  2  3  1  0
  3  4  1  0
  3 16  2  0
  4 14  2  0
  4  5  1  0
  5  6  2  0
  6 11  1  0
  6  7  1  0
  7  8  2  0
  7 24  1  0
  8  9  1  0
  9 10  2  0
 10 11  1  0
 11 15  2  0
 12 13  2  0
 13 14  1  0
 14 15  1  0
 16 17  1  0
 17 18  2  0
 19 20  1  0
 20 21  1  0
 21 22  1  0
 22 23  1  0
 24 25  1  0
 25 26  1  0
 26 27  1  0
 26 31  1  1
 27 30  1  0
 27 28  1  0
 27 29  1  0
M  END
>  <vina_dock>  (257) 
-9.939

$$$$
O14757_PocketFlow_idx-in-all-generaetd-698
     RDKit          3D

  5  4  0  0  0  0  0  0  0  0999 V2000
    5.4060   -1.1150   43.9330 C   0  0  0  0  0  0  0  0  0  0  0  0
    4.9980   -2.2420   43.3270 F   0  0  0  0  0  0  0  0  0  0  0  0
    6.6930   -1.2430   44.2970 F   0  0  0  0  0  0  0  0  0  0  0  0
    5.2810   -0.0800   43.0850 F   0  0  0  0  0  0  0  0  0  0  0  0
    4.6520   -0.8940   45.0230 F   0  0  0  0  0  0  0  0  0  0  0  0
  1  4  1  0
  1  2  1  0
  1  3  1  0
  1  5  1  0
M  END
>  <vina_dock>  (258) 
-3.012

$$$$
O14757_PocketFlow_idx-in-all-generaetd-405
     RDKit          3D

 32 34  0  0  0  0  0  0  0  0999 V2000
    2.8350   -4.3740   46.0630 C   0  0  0  0  0  0  0  0  0  0  0  0
    1.6590   -4.3150   45.3980 C   0  0  0  0  0  0  0  0  0  0  0  0
    0.4350   -3.8110   46.1310 C   0  0  0  0  0  0  0  0  0  0  0  0
    4.1830   -4.8310   45.5700 C   0  0  0  0  0  0  0  0  0  0  0  0
    5.1340   -3.6750   45.3460 C   0  0  0  0  0  0  0  0  0  0  0  0
    7.2060   -2.4970   45.8930 C   0  0  0  0  0  0  0  0  0  0  0  0
    6.8800   -1.5160   44.9450 C   0  0  0  0  0  0  0  0  0  0  0  0
    6.3190   -3.5700   46.0900 C   0  0  0  0  0  0  0  0  0  0  0  0
    5.7060   -1.6140   44.2000 C   0  0  0  0  0  0  0  0  0  0  0  0
    4.8390   -2.6880   44.3970 C   0  0  0  0  0  0  0  0  0  0  0  0
    8.4630   -2.4020   46.7380 C   0  0  1  0  0  0  0  0  0  0  0  0
    9.3530   -3.5000   46.4950 O   0  0  0  0  0  0  0  0  0  0  0  0
    9.6940   -4.1910   47.6900 C   0  0  0  0  0  0  0  0  0  0  0  0
    9.2330   -1.1360   46.4020 C   0  0  0  0  0  0  0  0  0  0  0  0
   10.3510   -1.1300   45.8890 O   0  0  0  0  0  0  0  0  0  0  0  0
    1.4580   -4.7470   43.9370 C   0  0  1  0  0  0  0  0  0  0  0  0
    0.3340   -5.8120   43.8120 C   0  0  0  0  0  0  0  0  0  0  0  0
    0.4360   -6.9220   44.8390 C   0  0  0  0  0  0  0  0  0  0  0  0
   -0.7110   -7.3920   45.4910 C   0  0  0  0  0  0  0  0  0  0  0  0
    1.6770   -7.4870   45.1600 C   0  0  0  0  0  0  0  0  0  0  0  0
   -0.6190   -8.4030   46.4470 C   0  0  0  0  0  0  0  0  0  0  0  0
    1.7820   -8.5080   46.1190 C   0  0  0  0  0  0  0  0  0  0  0  0
    0.6210   -8.9560   46.7620 C   0  0  0  0  0  0  0  0  0  0  0  0
    3.1310   -9.0710   46.4820 C   0  0  0  0  0  0  0  0  0  0  0  0
    3.0870   -9.9020   47.5630 F   0  0  0  0  0  0  0  0  0  0  0  0
    4.0480   -8.1100   46.7940 F   0  0  0  0  0  0  0  0  0  0  0  0
    1.3230   -3.5430   43.0050 C   0  0  0  0  0  0  0  0  0  0  0  0
    2.3370   -2.5860   42.8440 C   0  0  0  0  0  0  0  0  0  0  0  0
    0.1470   -3.3960   42.2470 C   0  0  0  0  0  0  0  0  0  0  0  0
    2.1710   -1.5050   41.9730 C   0  0  0  0  0  0  0  0  0  0  0  0
   -0.0170   -2.3180   41.3760 C   0  0  0  0  0  0  0  0  0  0  0  0
    0.9940   -1.3710   41.2410 C   0  0  0  0  0  0  0  0  0  0  0  0
  1  2  2  3
  1  4  1  0
  2 16  1  0
  2  3  1  0
  4  5  1  0
  5 10  1  0
  5  8  2  0
  6  7  2  0
  6  8  1  0
  6 11  1  0
  7  9  1  0
  9 10  2  0
 11 14  1  0
 11 12  1  6
 12 13  1  0
 14 15  2  0
 16 27  1  0
 16 17  1  1
 17 18  1  0
 18 20  1  0
 18 19  2  0
 19 21  1  0
 20 22  2  0
 21 23  2  0
 22 24  1  0
 22 23  1  0
 24 26  1  0
 24 25  1  0
 27 29  1  0
 27 28  2  0
 28 30  1  0
 29 31  2  0
 30 32  2  0
 31 32  1  0
M  END
>  <vina_dock>  (259) 
-8.608

$$$$
O14757_PocketFlow_idx-in-all-generaetd-870
     RDKit          3D

 25 27  0  0  0  0  0  0  0  0999 V2000
    1.0840   -4.7180   45.2790 C   0  0  0  0  0  0  0  0  0  0  0  0
    1.9910   -3.9620   46.0260 C   0  0  0  0  0  0  0  0  0  0  0  0
    3.3140   -4.3860   46.1650 C   0  0  0  0  0  0  0  0  0  0  0  0
    3.7230   -5.5770   45.5600 C   0  0  0  0  0  0  0  0  0  0  0  0
    1.4870   -5.9120   44.6680 C   0  0  0  0  0  0  0  0  0  0  0  0
    2.8160   -6.3340   44.8130 C   0  0  0  0  0  0  0  0  0  0  0  0
    0.5090   -6.7320   43.8640 C   0  0  0  0  0  0  0  0  0  0  0  0
   -0.7260   -7.1690   44.6590 C   0  0  0  0  0  0  0  0  0  0  0  0
   -0.4040   -8.1750   45.7660 C   0  0  0  0  0  0  0  0  0  0  0  0
   -0.8670   -7.6720   47.1220 C   0  0  0  0  0  0  0  0  0  0  0  0
   -1.1710   -6.3490   47.0150 F   0  0  0  0  0  0  0  0  0  0  0  0
    4.2610   -3.5980   46.9500 C   0  0  0  0  0  0  0  0  0  0  0  0
    5.3390   -2.9270   46.5110 C   0  0  0  0  0  0  0  0  0  0  0  0
    5.9340   -2.7190   45.1310 C   0  0  2  0  0  0  0  0  0  0  0  0
    7.3200   -2.0730   45.0210 C   0  0  0  0  0  0  0  0  0  0  0  0
    4.9470   -2.0060   44.2250 C   0  0  0  0  0  0  0  0  0  0  0  0
    3.8660   -2.6750   43.6550 C   0  0  0  0  0  0  0  0  0  0  0  0
    5.0640   -0.6560   43.9230 C   0  0  0  0  0  0  0  0  0  0  0  0
    2.9730   -1.9820   42.8230 C   0  0  0  0  0  0  0  0  0  0  0  0
    4.2150    0.0310   43.1250 N   0  0  0  0  0  0  0  0  0  0  0  0
    1.8730   -2.6210   42.2320 C   0  0  0  0  0  0  0  0  0  0  0  0
    3.1830   -0.6100   42.5780 C   0  0  0  0  0  0  0  0  0  0  0  0
    1.0180   -1.8940   41.4210 C   0  0  0  0  0  0  0  0  0  0  0  0
    2.3520    0.0790   41.7930 N   0  0  0  0  0  0  0  0  0  0  0  0
    1.2990   -0.5580   41.2320 C   0  0  0  0  0  0  0  0  0  0  0  0
  1  5  2  0
  1  2  1  0
  2  3  2  0
  3  4  1  0
  3 12  1  0
  4  6  2  0
  5  7  1  0
  5  6  1  0
  7  8  1  0
  8  9  1  0
  9 10  1  0
 10 11  1  0
 12 13  2  3
 13 14  1  0
 14 16  1  0
 14 15  1  1
 16 17  2  0
 16 18  1  0
 17 19  1  0
 18 20  2  0
 19 21  2  0
 19 22  1  0
 20 22  1  0
 21 23  1  0
 22 24  2  0
 23 25  2  0
 24 25  1  0
M  END
>  <vina_dock>  (260) 
-8.084

$$$$
O14757_PocketFlow_idx-in-all-generaetd-31
     RDKit          3D

 27 30  0  0  0  0  0  0  0  0999 V2000
    9.0010   -1.8340   46.7630 C   0  0  1  0  0  0  0  0  0  0  0  0
    8.3190   -1.1360   45.5560 C   0  0  0  0  0  0  0  0  0  0  0  0
    7.0410   -1.8840   45.3510 C   0  0  0  0  0  0  0  0  0  0  0  0
    6.0620   -1.6480   44.4010 C   0  0  0  0  0  0  0  0  0  0  0  0
    4.9330   -2.4780   44.3860 C   0  0  0  0  0  0  0  0  0  0  0  0
    4.7650   -3.5440   45.3090 C   0  0  0  0  0  0  0  0  0  0  0  0
    5.7770   -3.7560   46.2620 C   0  0  0  0  0  0  0  0  0  0  0  0
    6.8830   -2.9230   46.2550 C   0  0  0  0  0  0  0  0  0  0  0  0
    8.0410   -2.9520   47.1370 C   0  0  0  0  0  0  0  0  0  0  0  0
    8.1760   -3.7620   48.0360 O   0  0  0  0  0  0  0  0  0  0  0  0
   10.3940   -2.3540   46.3910 C   0  0  0  0  0  0  0  0  0  0  0  0
   11.4160   -2.3770   47.5330 C   0  0  0  0  0  0  0  0  0  0  0  0
   11.0530   -1.4720   48.6990 C   0  0  0  0  0  0  0  0  0  0  0  0
    3.9670   -2.2600   43.4380 O   0  0  0  0  0  0  0  0  0  0  0  0
    3.5790   -4.4220   45.3010 C   0  0  0  0  0  0  0  0  0  0  0  0
    3.6710   -5.7550   44.8720 C   0  0  0  0  0  0  0  0  0  0  0  0
    2.3290   -3.9640   45.7390 C   0  0  0  0  0  0  0  0  0  0  0  0
    2.5510   -6.5970   44.8780 C   0  0  0  0  0  0  0  0  0  0  0  0
    1.2090   -4.8050   45.7470 C   0  0  0  0  0  0  0  0  0  0  0  0
    1.3010   -6.1370   45.3170 C   0  0  0  0  0  0  0  0  0  0  0  0
    0.1240   -7.0220   45.3240 C   0  0  0  0  0  0  0  0  0  0  0  0
   -0.7490   -7.0710   44.2280 C   0  0  0  0  0  0  0  0  0  0  0  0
   -0.1590   -7.8420   46.4310 C   0  0  0  0  0  0  0  0  0  0  0  0
   -1.8590   -7.9110   44.2480 C   0  0  0  0  0  0  0  0  0  0  0  0
   -1.2760   -8.6860   46.4430 C   0  0  0  0  0  0  0  0  0  0  0  0
   -2.6810   -7.9410   43.1900 F   0  0  0  0  0  0  0  0  0  0  0  0
   -2.1300   -8.7180   45.3450 C   0  0  0  0  0  0  0  0  0  0  0  0
  1  2  1  0
  1 11  1  6
  1  9  1  0
  2  3  1  0
  3  4  2  0
  3  8  1  0
  4  5  1  0
  5 14  1  0
  5  6  2  0
  6 15  1  0
  6  7  1  0
  7  8  2  0
  8  9  1  0
  9 10  2  0
 11 12  1  0
 12 13  1  0
 15 16  2  0
 15 17  1  0
 16 18  1  0
 17 19  2  0
 18 20  2  0
 19 20  1  0
 20 21  1  0
 21 22  2  0
 21 23  1  0
 22 24  1  0
 23 25  2  0
 24 26  1  0
 24 27  2  0
 25 27  1  0
M  END
>  <vina_dock>  (261) 
-9.156

$$$$
O14757_PocketFlow_idx-in-all-generaetd-602
     RDKit          3D

 13 14  0  0  0  0  0  0  0  0999 V2000
    0.3270   -6.6830   45.8740 C   0  0  1  0  0  0  0  0  0  0  0  0
    1.2060   -6.7420   44.6210 C   0  0  0  0  0  0  0  0  0  0  0  0
    0.2430   -5.3810   46.5240 N   0  0  0  0  0  0  0  0  0  0  0  0
    0.7690   -4.2980   45.6950 C   0  0  0  0  0  0  0  0  0  0  0  0
    2.2520   -4.5340   45.3230 C   0  0  1  0  0  0  0  0  0  0  0  0
    2.5100   -5.9830   44.8510 C   0  0  0  0  0  0  0  0  0  0  0  0
   -1.3510   -7.1170   45.4700 Cl  0  0  0  0  0  0  0  0  0  0  0  0
    2.7240   -3.4970   44.3150 C   0  0  0  0  0  0  0  0  0  0  0  0
    4.0250   -2.9790   44.4080 C   0  0  0  0  0  0  0  0  0  0  0  0
    1.8860   -3.0260   43.2930 C   0  0  0  0  0  0  0  0  0  0  0  0
    4.4750   -2.0190   43.5000 C   0  0  0  0  0  0  0  0  0  0  0  0
    2.3380   -2.0670   42.3860 C   0  0  0  0  0  0  0  0  0  0  0  0
    3.6330   -1.5640   42.4880 C   0  0  0  0  0  0  0  0  0  0  0  0
  1  2  1  0
  1  7  1  6
  1  3  1  0
  2  6  1  0
  3  4  1  0
  4  5  1  0
  5  8  1  6
  5  6  1  0
  8 10  1  0
  8  9  2  0
  9 11  1  0
 10 12  2  0
 11 13  2  0
 12 13  1  0
M  END
>  <vina_dock>  (262) 
-6.723

$$$$
O14757_PocketFlow_idx-in-all-generaetd-266
     RDKit          3D

 26 27  0  0  0  0  0  0  0  0999 V2000
    2.9550   -4.5740   45.8310 C   0  0  0  0  0  0  0  0  0  0  0  0
    3.6710   -3.5210   45.0040 C   0  0  0  0  0  0  0  0  0  0  0  0
    7.0340   -3.0450   46.6890 C   0  0  0  0  0  0  0  0  0  0  0  0
    7.5820   -2.0690   45.8570 C   0  0  0  0  0  0  0  0  0  0  0  0
    5.7420   -3.5230   46.4140 C   0  0  0  0  0  0  0  0  0  0  0  0
    6.8520   -1.5840   44.7730 C   0  0  0  0  0  0  0  0  0  0  0  0
    4.9780   -3.0560   45.3180 C   0  0  0  0  0  0  0  0  0  0  0  0
    5.5620   -2.0630   44.4930 C   0  0  0  0  0  0  0  0  0  0  0  0
    4.8490   -1.5520   43.3980 C   0  0  0  0  0  0  0  0  0  0  0  0
    2.9810   -2.9800   43.9020 C   0  0  0  0  0  0  0  0  0  0  0  0
    3.5590   -1.9980   43.0950 C   0  0  0  0  0  0  0  0  0  0  0  0
    7.8190   -3.5870   47.8580 C   0  0  0  0  0  0  0  0  0  0  0  0
    6.9990   -4.4930   48.7870 C   0  0  1  0  0  0  0  0  0  0  0  0
    7.6840   -5.8230   49.0740 C   0  0  0  0  0  0  0  0  0  0  0  0
    6.8100   -3.8050   50.0260 O   0  0  0  0  0  0  0  0  0  0  0  0
    2.7970   -1.4120   41.9290 C   0  0  0  0  0  0  0  0  0  0  0  0
    1.2840   -1.6670   41.9860 C   0  0  0  0  0  0  0  0  0  0  0  0
    0.8120   -2.6840   40.9820 C   0  0  0  0  0  0  0  0  0  0  0  0
    0.0040   -3.7110   41.2710 C   0  0  0  0  0  0  0  0  0  0  0  0
    3.1610   -5.9850   45.2630 C   0  0  0  0  0  0  0  0  0  0  0  0
    1.9480   -6.6700   44.6830 C   0  0  0  0  0  0  0  0  0  0  0  0
    0.7870   -6.1060   44.3060 C   0  0  0  0  0  0  0  0  0  0  0  0
   -0.4220   -6.7910   43.7170 C   0  0  0  0  0  0  0  0  0  0  0  0
   -1.2420   -7.5890   44.6910 C   0  0  0  0  0  0  0  0  0  0  0  0
   -2.4770   -8.0520   44.4410 C   0  0  0  0  0  0  0  0  0  0  0  0
   -3.2890   -8.8330   45.4210 C   0  0  0  0  0  0  0  0  0  0  0  0
  1  2  1  0
  1 20  1  0
  2 10  2  0
  2  7  1  0
  3  4  2  0
  3  5  1  0
  3 12  1  0
  4  6  1  0
  5  7  2  0
  6  8  2  0
  7  8  1  0
  8  9  1  0
  9 11  2  0
 10 11  1  0
 11 16  1  0
 12 13  1  0
 13 14  1  1
 13 15  1  0
 16 17  1  0
 17 18  1  0
 18 19  2  0
 20 21  1  0
 21 22  2  3
 22 23  1  0
 23 24  1  0
 24 25  2  3
 25 26  1  0
M  END
>  <vina_dock>  (263) 
-8.353

$$$$
O14757_PocketFlow_idx-in-all-generaetd-40
     RDKit          3D

 35 39  0  0  0  0  0  0  0  0999 V2000
   -0.3290   -6.8310   43.9750 C   0  0  0  0  0  0  0  0  0  0  0  0
    0.4550   -5.9480   44.9600 C   0  0  0  0  0  0  0  0  0  0  0  0
    1.4170   -6.7070   45.5670 F   0  0  0  0  0  0  0  0  0  0  0  0
   -0.3800   -5.5460   45.9640 F   0  0  0  0  0  0  0  0  0  0  0  0
    1.0660   -4.7630   44.2340 C   0  0  0  0  0  0  0  0  0  0  0  0
    2.9270   -3.1910   43.9380 C   0  0  0  0  0  0  0  0  0  0  0  0
    2.3330   -4.2780   44.6030 C   0  0  0  0  0  0  0  0  0  0  0  0
    2.2110   -2.5920   42.8890 C   0  0  0  0  0  0  0  0  0  0  0  0
    0.9510   -3.0620   42.5120 C   0  0  0  0  0  0  0  0  0  0  0  0
    0.3810   -4.1420   43.1810 C   0  0  0  0  0  0  0  0  0  0  0  0
    4.2550   -2.6960   44.3320 C   0  0  0  0  0  0  0  0  0  0  0  0
   10.7060   -2.3810   47.8900 C   0  0  0  0  0  0  0  0  0  0  0  0
   11.9150   -1.9880   48.3100 F   0  0  0  0  0  0  0  0  0  0  0  0
   10.1330   -3.5260   48.4210 C   0  0  0  0  0  0  0  0  0  0  0  0
   10.0390   -1.6360   46.9270 C   0  0  0  0  0  0  0  0  0  0  0  0
    8.8700   -3.9260   47.9780 C   0  0  0  0  0  0  0  0  0  0  0  0
    8.7700   -2.0440   46.4860 C   0  0  0  0  0  0  0  0  0  0  0  0
    8.1700   -3.2060   47.0170 C   0  0  0  0  0  0  0  0  0  0  0  0
    8.0590   -1.3270   45.5190 C   0  0  0  0  0  0  0  0  0  0  0  0
    6.9570   -3.6320   46.6270 N   0  0  0  0  0  0  0  0  0  0  0  0
    6.7950   -1.7650   45.1100 C   0  0  0  0  0  0  0  0  0  0  0  0
    6.2800   -2.9340   45.6980 C   0  0  0  0  0  0  0  0  0  0  0  0
    6.0500   -1.0720   44.1430 C   0  0  0  0  0  0  0  0  0  0  0  0
    5.0240   -3.3720   45.2980 C   0  0  0  0  0  0  0  0  0  0  0  0
    4.7930   -1.5360   43.7600 C   0  0  0  0  0  0  0  0  0  0  0  0
   -1.2920   -7.7840   44.6470 C   0  0  0  0  0  0  0  0  0  0  0  0
   -2.5900   -7.9570   44.1490 C   0  0  0  0  0  0  0  0  0  0  0  0
   -0.8910   -8.5210   45.7710 C   0  0  0  0  0  0  0  0  0  0  0  0
   -3.4700   -8.8450   44.7660 C   0  0  0  0  0  0  0  0  0  0  0  0
   -1.7620   -9.4310   46.3890 C   0  0  0  0  0  0  0  0  0  0  0  0
   -3.0610   -9.5740   45.8830 C   0  0  0  0  0  0  0  0  0  0  0  0
   -1.3280  -10.2110   47.6090 C   0  0  0  0  0  0  0  0  0  0  0  0
   -1.0930   -9.3850   48.7950 N   0  0  0  0  0  0  0  0  0  0  0  0
    0.1080   -9.1700   49.2070 C   0  0  0  0  0  0  0  0  0  0  0  0
    1.3970   -9.6630   48.6200 C   0  0  0  0  0  0  0  0  0  0  0  0
  1 26  1  0
  1  2  1  0
  2  5  1  0
  2  3  1  0
  2  4  1  0
  5 10  1  0
  5  7  2  0
  6  8  2  0
  6 11  1  0
  6  7  1  0
  8  9  1  0
  9 10  2  0
 11 25  2  0
 11 24  1  0
 12 15  2  0
 12 13  1  0
 12 14  1  0
 14 16  2  0
 15 17  1  0
 16 18  1  0
 17 19  2  0
 17 18  1  0
 18 20  2  0
 19 21  1  0
 20 22  1  0
 21 23  2  0
 21 22  1  0
 22 24  2  0
 23 25  1  0
 26 27  2  0
 26 28  1  0
 27 29  1  0
 28 30  2  0
 29 31  2  0
 30 31  1  0
 30 32  1  0
 32 33  1  0
 33 34  2  3
 34 35  1  0
M  END
>  <vina_dock>  (264) 
-11.09

$$$$
O14757_PocketFlow_idx-in-all-generaetd-877
     RDKit          3D

 10 10  0  0  0  0  0  0  0  0999 V2000
    5.0440   -1.0130   44.2750 C   0  0  0  0  0  0  0  0  0  0  0  0
    6.4490   -1.5080   44.6260 C   0  0  0  0  0  0  0  0  0  0  0  0
    6.4520   -2.7520   45.5020 C   0  0  0  0  0  0  0  0  0  0  0  0
    4.5770   -1.4570   42.8870 C   0  0  0  0  0  0  0  0  0  0  0  0
    3.2280   -2.1310   42.9450 C   0  0  0  0  0  0  0  0  0  0  0  0
    2.2140   -1.7700   42.0470 C   0  0  0  0  0  0  0  0  0  0  0  0
    2.9800   -3.1460   43.8790 C   0  0  0  0  0  0  0  0  0  0  0  0
    0.9720   -2.4060   42.0910 C   0  0  0  0  0  0  0  0  0  0  0  0
    1.7370   -3.7800   43.9210 C   0  0  0  0  0  0  0  0  0  0  0  0
    0.7330   -3.4090   43.0280 C   0  0  0  0  0  0  0  0  0  0  0  0
  1  4  1  0
  1  2  1  0
  2  3  1  0
  4  5  1  0
  5  6  2  0
  5  7  1  0
  6  8  1  0
  7  9  2  0
  8 10  2  0
  9 10  1  0
M  END
>  <vina_dock>  (265) 
-5.47

$$$$
O14757_PocketFlow_idx-in-all-generaetd-120
     RDKit          3D

 35 41  0  0  0  0  0  0  0  0999 V2000
    9.1490   -1.8940   46.6090 C   0  0  0  0  0  0  0  0  0  0  0  0
    8.8220   -3.1090   47.1980 C   0  0  0  0  0  0  0  0  0  0  0  0
    7.6030   -3.7560   46.8950 C   0  0  0  0  0  0  0  0  0  0  0  0
    6.6680   -3.1810   45.9700 C   0  0  0  0  0  0  0  0  0  0  0  0
    7.0470   -1.9560   45.3780 C   0  0  0  0  0  0  0  0  0  0  0  0
    6.2170   -1.3380   44.4410 C   0  0  0  0  0  0  0  0  0  0  0  0
    8.2610   -1.3270   45.7000 C   0  0  0  0  0  0  0  0  0  0  0  0
    4.9840   -1.8720   44.0360 C   0  0  0  0  0  0  0  0  0  0  0  0
    4.1920   -1.2100   43.0650 C   0  0  0  0  0  0  0  0  0  0  0  0
    2.9720   -1.7600   42.6870 C   0  0  0  0  0  0  0  0  0  0  0  0
    2.5300   -2.9450   43.2610 C   0  0  0  0  0  0  0  0  0  0  0  0
    3.2840   -3.6340   44.2320 C   0  0  0  0  0  0  0  0  0  0  0  0
    4.5450   -3.0930   44.6220 C   0  0  0  0  0  0  0  0  0  0  0  0
    5.3870   -3.7300   45.5860 C   0  0  0  0  0  0  0  0  0  0  0  0
    7.3800   -5.1030   47.5490 C   0  0  0  0  0  0  0  0  0  0  0  0
    6.0650   -5.2030   48.3390 C   0  0  1  0  0  0  0  0  0  0  0  0
    2.7770   -4.8860   44.8500 C   0  0  0  0  0  0  0  0  0  0  0  0
    1.5280   -5.4670   44.5200 C   0  0  0  0  0  0  0  0  0  0  0  0
    1.0390   -6.6430   45.1210 C   0  0  0  0  0  0  0  0  0  0  0  0
    1.8260   -7.2560   46.0940 C   0  0  0  0  0  0  0  0  0  0  0  0
    3.0610   -6.7140   46.4380 C   0  0  0  0  0  0  0  0  0  0  0  0
    3.5450   -5.5380   45.8250 C   0  0  0  0  0  0  0  0  0  0  0  0
    4.9180   -5.0330   46.2200 C   0  0  0  0  0  0  0  0  0  0  0  0
    4.8880   -4.8650   47.6340 O   0  0  0  0  0  0  0  0  0  0  0  0
    4.6120    0.0840   42.4150 C   0  0  0  0  0  0  0  0  0  0  0  0
   10.4150   -1.1810   46.9020 C   0  0  0  0  0  0  0  0  0  0  0  0
   11.3170   -0.9740   46.1110 O   0  0  0  0  0  0  0  0  0  0  0  0
   10.4940   -0.7610   48.1770 O   0  0  0  0  0  0  0  0  0  0  0  0
    5.9080   -6.5340   48.9150 N   0  0  0  0  0  0  0  0  0  0  0  0
   -0.2690   -7.2020   44.7400 C   0  0  0  0  0  0  0  0  0  0  0  0
   -0.7950   -7.0000   43.4530 C   0  0  0  0  0  0  0  0  0  0  0  0
   -1.0270   -7.9550   45.6520 C   0  0  0  0  0  0  0  0  0  0  0  0
   -2.0360   -7.5300   43.0910 C   0  0  0  0  0  0  0  0  0  0  0  0
   -2.2690   -8.4850   45.2910 C   0  0  0  0  0  0  0  0  0  0  0  0
   -2.7720   -8.2720   44.0100 C   0  0  0  0  0  0  0  0  0  0  0  0
  1  7  2  0
  1 26  1  0
  1  2  1  0
  2  3  2  0
  3  4  1  0
  3 15  1  0
  4  5  2  0
  4 14  1  0
  5  6  1  0
  5  7  1  0
  6  8  2  0
  8  9  1  0
  8 13  1  0
  9 25  1  0
  9 10  2  0
 10 11  1  0
 11 12  2  0
 12 13  1  0
 12 17  1  0
 13 14  2  0
 14 23  1  0
 15 16  1  0
 16 24  1  0
 16 29  1  6
 17 18  1  0
 17 22  1  0
 18 19  2  0
 19 30  1  0
 19 20  1  0
 20 21  2  0
 21 22  1  0
 22 23  2  0
 23 24  1  0
 26 27  2  0
 26 28  1  0
 30 31  2  0
 30 32  1  0
 31 33  1  0
 32 34  2  0
 33 35  2  0
 34 35  1  0
M  END
>  <vina_dock>  (266) 
-10.554

$$$$
O14757_PocketFlow_idx-in-all-generaetd-398
     RDKit          3D

 18 20  0  0  0  0  0  0  0  0999 V2000
    8.0490   -1.8830   46.0760 C   0  0  0  0  0  0  0  0  0  0  0  0
    8.9630   -2.5140   46.5730 O   0  0  0  0  0  0  0  0  0  0  0  0
    6.7010   -2.4120   45.7560 C   0  0  0  0  0  0  0  0  0  0  0  0
    2.1930   -1.5760   41.7060 C   0  0  0  0  0  0  0  0  0  0  0  0
    0.9050   -1.9280   41.3140 C   0  0  0  0  0  0  0  0  0  0  0  0
    2.8120   -2.1920   42.8080 C   0  0  0  0  0  0  0  0  0  0  0  0
    0.2170   -2.9000   42.0240 C   0  0  0  0  0  0  0  0  0  0  0  0
    4.1000   -1.7970   43.1840 C   0  0  0  0  0  0  0  0  0  0  0  0
    2.1410   -3.1990   43.5370 C   0  0  0  0  0  0  0  0  0  0  0  0
    0.8260   -3.5220   43.1180 C   0  0  0  0  0  0  0  0  0  0  0  0
    4.7480   -2.3540   44.2920 C   0  0  0  0  0  0  0  0  0  0  0  0
    2.8150   -3.8160   44.6420 C   0  0  0  0  0  0  0  0  0  0  0  0
    6.0300   -1.8950   44.6460 C   0  0  0  0  0  0  0  0  0  0  0  0
    4.1110   -3.3640   45.0490 C   0  0  0  0  0  0  0  0  0  0  0  0
    2.1300   -4.9270   45.4110 C   0  0  0  0  0  0  0  0  0  0  0  0
    4.8130   -3.8580   46.1770 C   0  0  0  0  0  0  0  0  0  0  0  0
    6.0860   -3.3940   46.5260 C   0  0  0  0  0  0  0  0  0  0  0  0
    8.1900   -0.5840   45.7580 O   0  0  0  0  0  0  0  0  0  0  0  0
  1  3  1  0
  1 18  1  0
  1  2  2  0
  3 13  2  0
  3 17  1  0
  4  5  1  0
  4  6  2  0
  5  7  2  0
  6  8  1  0
  6  9  1  0
  7 10  1  0
  8 11  2  0
  9 10  2  0
  9 12  1  0
 11 13  1  0
 11 14  1  0
 12 14  2  0
 12 15  1  0
 14 16  1  0
 16 17  2  0
M  END
>  <vina_dock>  (267) 
-9.276

$$$$
O14757_PocketFlow_idx-in-all-generaetd-579
     RDKit          3D

 14 15  0  0  0  0  0  0  0  0999 V2000
    4.6830   -0.8810   44.2370 C   0  0  0  0  0  0  0  0  0  0  0  0
    5.4930   -1.7720   45.1460 C   0  0  0  0  0  0  0  0  0  0  0  0
    7.6300   -2.6910   45.8370 C   0  0  0  0  0  0  0  0  0  0  0  0
    6.9920   -3.4590   46.8090 C   0  0  0  0  0  0  0  0  0  0  0  0
    6.8840   -1.8530   45.0080 C   0  0  0  0  0  0  0  0  0  0  0  0
    5.6070   -3.3910   46.9520 C   0  0  0  0  0  0  0  0  0  0  0  0
    4.8600   -2.5530   46.1230 C   0  0  0  0  0  0  0  0  0  0  0  0
    4.4490   -1.5340   42.8710 C   0  0  0  0  0  0  0  0  0  0  0  0
    3.0330   -2.0340   42.7290 C   0  0  0  0  0  0  0  0  0  0  0  0
    2.1780   -1.4790   41.7670 C   0  0  0  0  0  0  0  0  0  0  0  0
    2.5630   -3.0780   43.5360 C   0  0  0  0  0  0  0  0  0  0  0  0
    0.8730   -1.9540   41.6230 C   0  0  0  0  0  0  0  0  0  0  0  0
    1.2580   -3.5520   43.3900 C   0  0  0  0  0  0  0  0  0  0  0  0
    0.4130   -2.9890   42.4340 C   0  0  0  0  0  0  0  0  0  0  0  0
  1  8  1  0
  1  2  1  0
  2  5  1  0
  2  7  2  0
  3  5  2  0
  3  4  1  0
  4  6  2  0
  6  7  1  0
  8  9  1  0
  9 10  2  0
  9 11  1  0
 10 12  1  0
 11 13  2  0
 12 14  2  0
 13 14  1  0
M  END
>  <vina_dock>  (268) 
-6.982

$$$$
O14757_PocketFlow_idx-in-all-generaetd-228
     RDKit          3D

 13 14  0  0  0  0  0  0  0  0999 V2000
    2.2320   -2.2820   42.6040 C   0  0  0  0  0  0  0  0  0  0  0  0
    3.4160   -1.5330   42.6980 C   0  0  0  0  0  0  0  0  0  0  0  0
    4.4260   -1.8680   43.6200 C   0  0  0  0  0  0  0  0  0  0  0  0
    5.6100   -1.1180   43.7160 C   0  0  0  0  0  0  0  0  0  0  0  0
    6.6010   -1.4630   44.6360 C   0  0  0  0  0  0  0  0  0  0  0  0
    6.4220   -2.5620   45.4710 C   0  0  0  0  0  0  0  0  0  0  0  0
    5.2510   -3.3180   45.3880 C   0  0  0  0  0  0  0  0  0  0  0  0
    4.2450   -2.9830   44.4680 C   0  0  0  0  0  0  0  0  0  0  0  0
    3.0640   -3.7320   44.3710 C   0  0  0  0  0  0  0  0  0  0  0  0
    2.0710   -3.3850   43.4490 C   0  0  0  0  0  0  0  0  0  0  0  0
    1.2150   -1.8830   41.6210 C   0  0  0  0  0  0  0  0  0  0  0  0
   -0.0250   -2.2700   41.6440 C   0  0  0  0  0  0  0  0  0  0  0  0
   -1.1440   -2.6160   41.6610 N   0  0  0  0  0  0  0  0  0  0  0  0
  1 11  1  0
  1  2  2  0
  1 10  1  0
  2  3  1  0
  3  4  2  0
  3  8  1  0
  4  5  1  0
  5  6  2  0
  6  7  1  0
  7  8  2  0
  8  9  1  0
  9 10  2  0
 11 12  1  0
 12 13  1  0
M  END
>  <vina_dock>  (269) 
-7.589

$$$$
O14757_PocketFlow_idx-in-all-generaetd-828
     RDKit          3D

 18 19  0  0  0  0  0  0  0  0999 V2000
    0.5820   -6.1080   45.5890 C   0  0  0  0  0  0  0  0  0  0  0  0
    0.8600   -4.7990   46.0010 C   0  0  0  0  0  0  0  0  0  0  0  0
    2.1050   -4.2240   45.7390 C   0  0  0  0  0  0  0  0  0  0  0  0
    3.0980   -4.9470   45.0630 C   0  0  0  0  0  0  0  0  0  0  0  0
    2.8210   -6.2600   44.6610 C   0  0  0  0  0  0  0  0  0  0  0  0
    1.5750   -6.8350   44.9230 C   0  0  0  0  0  0  0  0  0  0  0  0
   -0.7570   -6.7380   45.8870 C   0  0  0  0  0  0  0  0  0  0  0  0
   -1.3140   -7.4660   44.6590 C   0  0  0  0  0  0  0  0  0  0  0  0
   -2.7360   -8.0180   44.8160 C   0  0  2  0  0  0  0  0  0  0  0  0
   -2.7290   -9.5680   45.7100 Cl  0  0  0  0  0  0  0  0  0  0  0  0
   -3.4700   -8.1980   43.4940 C   0  0  0  0  0  0  0  0  0  0  0  0
    4.4490   -4.3270   44.7850 C   0  0  0  0  0  0  0  0  0  0  0  0
    4.3870   -2.9760   44.1080 C   0  0  0  0  0  0  0  0  0  0  0  0
    3.3650   -2.6840   43.1930 C   0  0  0  0  0  0  0  0  0  0  0  0
    5.3440   -1.9900   44.3920 C   0  0  0  0  0  0  0  0  0  0  0  0
    3.3040   -1.4340   42.5740 C   0  0  0  0  0  0  0  0  0  0  0  0
    5.2820   -0.7420   43.7700 C   0  0  0  0  0  0  0  0  0  0  0  0
    4.2620   -0.4640   42.8630 C   0  0  0  0  0  0  0  0  0  0  0  0
  1  6  2  0
  1  7  1  0
  1  2  1  0
  2  3  2  0
  3  4  1  0
  4  5  2  0
  4 12  1  0
  5  6  1  0
  7  8  1  0
  8  9  1  0
  9 11  1  6
  9 10  1  0
 12 13  1  0
 13 14  2  0
 13 15  1  0
 14 16  1  0
 15 17  2  0
 16 18  2  0
 17 18  1  0
M  END
>  <vina_dock>  (270) 
-7.545

$$$$
O14757_PocketFlow_idx-in-all-generaetd-691
     RDKit          3D

 10 10  0  0  0  0  0  0  0  0999 V2000
    2.5510   -3.6840   43.8700 C   0  0  0  0  0  0  0  0  0  0  0  0
    3.8280   -2.9140   44.0970 C   0  0  0  0  0  0  0  0  0  0  0  0
    5.9450   -2.6260   45.2520 C   0  0  0  0  0  0  0  0  0  0  0  0
    6.2160   -1.4930   44.4860 C   0  0  0  0  0  0  0  0  0  0  0  0
    4.7600   -3.3360   45.0570 C   0  0  0  0  0  0  0  0  0  0  0  0
    5.3030   -1.0700   43.5230 C   0  0  0  0  0  0  0  0  0  0  0  0
    4.1170   -1.7770   43.3260 C   0  0  0  0  0  0  0  0  0  0  0  0
    1.6860   -2.9380   42.9710 N   0  0  0  0  0  0  0  0  0  0  0  0
    0.4430   -3.3270   42.5450 C   0  0  0  0  0  0  0  0  0  0  0  0
   -0.0560   -3.3100   41.3080 C   0  0  0  0  0  0  0  0  0  0  0  0
  1  8  1  0
  1  2  1  0
  2  7  2  0
  2  5  1  0
  3  4  1  0
  3  5  2  0
  4  6  2  0
  6  7  1  0
  8  9  1  0
  9 10  2  0
M  END
>  <vina_dock>  (271) 
-5.181

$$$$
O14757_PocketFlow_idx-in-all-generaetd-518
     RDKit          3D

  9  9  0  0  0  0  0  0  0  0999 V2000
    3.1110   -2.5780   43.3360 C   0  0  0  0  0  0  0  0  0  0  0  0
    2.9480   -1.5950   42.3520 C   0  0  0  0  0  0  0  0  0  0  0  0
    1.7500   -1.4910   41.6400 C   0  0  0  0  0  0  0  0  0  0  0  0
    0.6990   -2.3630   41.9120 C   0  0  0  0  0  0  0  0  0  0  0  0
    0.8410   -3.3360   42.8990 C   0  0  0  0  0  0  0  0  0  0  0  0
    2.0400   -3.4400   43.6120 C   0  0  0  0  0  0  0  0  0  0  0  0
    4.3750   -2.6340   44.0830 C   0  0  0  0  0  0  0  0  0  0  0  0
    5.3020   -1.6630   44.0730 C   0  0  0  0  0  0  0  0  0  0  0  0
    6.5790   -1.7300   44.8460 C   0  0  0  0  0  0  0  0  0  0  0  0
  1  2  2  0
  1  6  1  0
  1  7  1  0
  2  3  1  0
  3  4  2  0
  4  5  1  0
  5  6  2  0
  7  8  2  3
  8  9  1  0
M  END
>  <vina_dock>  (272) 
-5.549

$$$$
O14757_PocketFlow_idx-in-all-generaetd-394
     RDKit          3D

 35 37  0  0  0  0  0  0  0  0999 V2000
    4.4350   -1.0460   43.3990 C   0  0  0  0  0  0  0  0  0  0  0  0
    3.5380   -1.7330   42.3590 C   0  0  0  0  0  0  0  0  0  0  0  0
    2.3160   -0.9040   42.0240 C   0  0  0  0  0  0  0  0  0  0  0  0
    2.3270    0.4380   42.0860 C   0  0  0  0  0  0  0  0  0  0  0  0
    1.0720   -1.6070   41.6540 C   0  0  0  0  0  0  0  0  0  0  0  0
   -1.3210   -1.5590   41.2000 C   0  0  0  0  0  0  0  0  0  0  0  0
   -1.2980   -2.9320   40.9250 C   0  0  0  0  0  0  0  0  0  0  0  0
   -0.1380   -0.9020   41.5650 C   0  0  0  0  0  0  0  0  0  0  0  0
   -0.0980   -3.6390   41.0090 C   0  0  0  0  0  0  0  0  0  0  0  0
    1.0810   -2.9790   41.3690 C   0  0  0  0  0  0  0  0  0  0  0  0
   -2.5650   -0.7590   41.1010 C   0  0  0  0  0  0  0  0  0  0  0  0
   -2.8120    0.2590   41.7180 O   0  0  0  0  0  0  0  0  0  0  0  0
   -3.4470   -1.2710   40.2240 O   0  0  0  0  0  0  0  0  0  0  0  0
    4.1240   -1.4990   44.8330 C   0  0  0  0  0  0  0  0  0  0  0  0
    3.7860   -2.9620   45.0810 C   0  0  0  0  0  0  0  0  0  0  0  0
    4.6220   -3.7790   45.8880 C   0  0  0  0  0  0  0  0  0  0  0  0
    2.6070   -3.5250   44.5460 C   0  0  0  0  0  0  0  0  0  0  0  0
    4.2770   -5.1350   46.0710 C   0  0  0  0  0  0  0  0  0  0  0  0
    2.2650   -4.8670   44.7580 C   0  0  0  0  0  0  0  0  0  0  0  0
    3.1180   -5.6750   45.5130 C   0  0  0  0  0  0  0  0  0  0  0  0
    1.0330   -5.4550   44.1200 C   0  0  0  0  0  0  0  0  0  0  0  0
    2.7950   -7.1100   45.7370 C   0  0  0  0  0  0  0  0  0  0  0  0
    0.4980   -6.6390   44.9280 C   0  0  1  0  0  0  0  0  0  0  0  0
    1.5750   -7.5580   45.2830 N   0  0  0  0  0  0  0  0  0  0  0  0
    3.5730   -7.8680   46.3040 O   0  0  0  0  0  0  0  0  0  0  0  0
    5.8960   -3.2510   46.5570 C   0  0  1  0  0  0  0  0  0  0  0  0
    6.3250   -4.1550   47.7230 C   0  0  0  0  0  0  0  0  0  0  0  0
    7.0670   -3.0710   45.5630 C   0  0  0  0  0  0  0  0  0  0  0  0
    7.6040   -1.6650   45.5140 C   0  0  0  0  0  0  0  0  0  0  0  0
    8.7710   -1.2170   46.0050 C   0  0  0  0  0  0  0  0  0  0  0  0
    9.8110   -2.0050   46.7450 C   0  0  0  0  0  0  0  0  0  0  0  0
    9.4460   -2.1550   48.2150 C   0  0  0  0  0  0  0  0  0  0  0  0
   -0.2750   -6.2230   46.1870 C   0  0  0  0  0  0  0  0  0  0  0  0
   -0.7840   -6.9760   47.0040 O   0  0  0  0  0  0  0  0  0  0  0  0
   -0.4570   -4.8910   46.3050 O   0  0  0  0  0  0  0  0  0  0  0  0
  1  2  1  0
  1 14  1  0
  2  3  1  0
  3  5  1  0
  3  4  2  0
  5 10  1  0
  5  8  2  0
  6  7  2  0
  6 11  1  0
  6  8  1  0
  7  9  1  0
  9 10  2  0
 11 13  1  0
 11 12  2  0
 14 15  1  0
 15 17  1  0
 15 16  2  0
 16 18  1  0
 16 26  1  0
 17 19  2  0
 18 20  2  0
 19 21  1  0
 19 20  1  0
 20 22  1  0
 21 23  1  0
 22 24  1  0
 22 25  2  0
 23 24  1  0
 23 33  1  1
 26 28  1  0
 26 27  1  1
 28 29  1  0
 29 30  2  3
 30 31  1  0
 31 32  1  0
 33 35  1  0
 33 34  2  0
M  END
>  <vina_dock>  (273) 
-8.797

$$$$
O14757_PocketFlow_idx-in-all-generaetd-463
     RDKit          3D

 14 15  0  0  0  0  0  0  0  0999 V2000
    0.7420   -5.4070   45.7520 C   0  0  0  0  0  0  0  0  0  0  0  0
    1.0740   -6.5910   45.0900 C   0  0  0  0  0  0  0  0  0  0  0  0
    2.3770   -6.8170   44.6440 C   0  0  0  0  0  0  0  0  0  0  0  0
    3.3740   -5.8760   44.8950 C   0  0  0  0  0  0  0  0  0  0  0  0
    3.0790   -4.7100   45.6140 C   0  0  0  0  0  0  0  0  0  0  0  0
    1.7610   -4.4980   46.0510 C   0  0  0  0  0  0  0  0  0  0  0  0
   -0.5370   -5.2390   46.2970 N   0  0  0  0  0  0  0  0  0  0  0  0
    4.1610   -3.6990   45.9210 C   0  0  0  0  0  0  0  0  0  0  0  0
    4.3890   -2.6780   44.8300 C   0  0  0  0  0  0  0  0  0  0  0  0
    5.4600   -1.7750   44.9080 C   0  0  0  0  0  0  0  0  0  0  0  0
    3.5260   -2.6080   43.7270 C   0  0  0  0  0  0  0  0  0  0  0  0
    5.6650   -0.8270   43.9040 C   0  0  0  0  0  0  0  0  0  0  0  0
    3.7320   -1.6590   42.7240 C   0  0  0  0  0  0  0  0  0  0  0  0
    4.8000   -0.7690   42.8130 C   0  0  0  0  0  0  0  0  0  0  0  0
  1  2  2  0
  1  6  1  0
  1  7  1  0
  2  3  1  0
  3  4  2  0
  4  5  1  0
  5  8  1  0
  5  6  2  0
  8  9  1  0
  9 11  1  0
  9 10  2  0
 10 12  1  0
 11 13  2  0
 12 14  2  0
 13 14  1  0
M  END
>  <vina_dock>  (274) 
-6.799

$$$$
O14757_PocketFlow_idx-in-all-generaetd-482
     RDKit          3D

 13 14  0  0  0  0  0  0  0  0999 V2000
    0.8570   -2.5300   42.2930 C   0  0  0  0  0  0  0  0  0  0  0  0
    1.8850   -3.0590   43.0780 C   0  0  0  0  0  0  0  0  0  0  0  0
    3.1360   -2.4240   43.1640 C   0  0  0  0  0  0  0  0  0  0  0  0
    1.0570   -1.2980   41.6670 C   0  0  0  0  0  0  0  0  0  0  0  0
    2.2960   -0.6590   41.7340 C   0  0  0  0  0  0  0  0  0  0  0  0
    3.3360   -1.2250   42.4710 C   0  0  0  0  0  0  0  0  0  0  0  0
   -0.4170   -3.1100   42.3160 N   0  0  0  0  0  0  0  0  0  0  0  0
    4.2450   -3.0210   43.9990 C   0  0  0  0  0  0  0  0  0  0  0  0
    4.8210   -2.0430   45.0430 C   0  0  1  0  0  0  0  0  0  0  0  0
    4.8630   -2.6900   46.4280 C   0  0  0  0  0  0  0  0  0  0  0  0
    6.2850   -1.7100   44.8090 C   0  0  0  0  0  0  0  0  0  0  0  0
    6.1840   -3.3450   46.5380 N   0  0  0  0  0  0  0  0  0  0  0  0
    6.9230   -2.7650   45.6480 C   0  0  0  0  0  0  0  0  0  0  0  0
  1  4  2  0
  1  7  1  0
  1  2  1  0
  2  3  2  0
  3  6  1  0
  3  8  1  0
  4  5  1  0
  5  6  2  0
  9  8  1  6
  9 11  1  0
  9 10  1  0
 10 12  1  0
 11 13  1  0
 12 13  1  0
M  END
>  <vina_dock>  (275) 
-6.349

$$$$
O14757_PocketFlow_idx-in-all-generaetd-568
     RDKit          3D

 33 36  0  0  0  0  0  0  0  0999 V2000
    1.9950   -5.1920   45.3970 C   0  0  0  0  0  0  0  0  0  0  0  0
    0.8430   -4.8600   46.1200 C   0  0  0  0  0  0  0  0  0  0  0  0
   -0.2740   -5.7030   46.1120 C   0  0  0  0  0  0  0  0  0  0  0  0
   -0.2690   -6.9040   45.3850 C   0  0  0  0  0  0  0  0  0  0  0  0
    0.8900   -7.2350   44.6690 C   0  0  0  0  0  0  0  0  0  0  0  0
    2.0080   -6.3930   44.6740 C   0  0  0  0  0  0  0  0  0  0  0  0
    3.1700   -4.3060   45.4020 C   0  0  0  0  0  0  0  0  0  0  0  0
    2.5460   -1.9420   42.5290 C   0  0  0  0  0  0  0  0  0  0  0  0
    3.6850   -1.1480   42.5940 C   0  0  0  0  0  0  0  0  0  0  0  0
    2.3810   -2.9780   43.4540 C   0  0  0  0  0  0  0  0  0  0  0  0
    4.6470   -1.3910   43.5770 C   0  0  0  0  0  0  0  0  0  0  0  0
    3.3400   -3.2490   44.4630 C   0  0  0  0  0  0  0  0  0  0  0  0
    4.5040   -2.4310   44.5260 C   0  0  0  0  0  0  0  0  0  0  0  0
    5.4780   -2.6820   45.5330 C   0  0  0  0  0  0  0  0  0  0  0  0
    4.1510   -4.5270   46.3790 C   0  0  0  0  0  0  0  0  0  0  0  0
    5.2850   -3.7280   46.4460 C   0  0  0  0  0  0  0  0  0  0  0  0
    1.4920   -1.7280   41.5080 C   0  0  0  0  0  0  0  0  0  0  0  0
    1.5080   -2.1430   40.3650 O   0  0  0  0  0  0  0  0  0  0  0  0
    0.4600   -1.0010   41.9700 O   0  0  0  0  0  0  0  0  0  0  0  0
    6.7220   -1.8320   45.6720 C   0  0  0  0  0  0  0  0  0  0  0  0
    7.5400   -2.2230   46.6930 F   0  0  0  0  0  0  0  0  0  0  0  0
    7.5070   -1.8480   44.5570 F   0  0  0  0  0  0  0  0  0  0  0  0
   -1.4460   -7.7880   45.3740 C   0  0  0  0  0  0  0  0  0  0  0  0
   -1.7810   -8.5590   46.5020 C   0  0  0  0  0  0  0  0  0  0  0  0
   -2.2660   -7.8860   44.2400 C   0  0  0  0  0  0  0  0  0  0  0  0
   -2.8990   -9.4070   46.5040 C   0  0  0  0  0  0  0  0  0  0  0  0
   -3.3840   -8.7240   44.2330 C   0  0  0  0  0  0  0  0  0  0  0  0
   -3.7000   -9.4790   45.3600 C   0  0  0  0  0  0  0  0  0  0  0  0
   -3.2510  -10.2030   47.7370 C   0  0  0  0  0  0  0  0  0  0  0  0
   -2.7260   -9.5360   49.0110 C   0  0  0  0  0  0  0  0  0  0  0  0
   -1.7930  -10.4460   49.7620 C   0  0  0  0  0  0  0  0  0  0  0  0
   -0.4570  -10.3440   49.8600 C   0  0  0  0  0  0  0  0  0  0  0  0
    0.4210   -9.2840   49.2780 C   0  0  0  0  0  0  0  0  0  0  0  0
  1  6  1  0
  1  7  1  0
  1  2  2  0
  2  3  1  0
  3  4  2  0
  4  5  1  0
  4 23  1  0
  5  6  2  0
  7 12  1  0
  7 15  2  0
  8 17  1  0
  8  9  2  0
  8 10  1  0
  9 11  1  0
 10 12  2  0
 11 13  2  0
 12 13  1  0
 13 14  1  0
 14 20  1  0
 14 16  2  0
 15 16  1  0
 17 18  2  0
 17 19  1  0
 20 22  1  0
 20 21  1  0
 23 25  1  0
 23 24  2  0
 24 26  1  0
 25 27  2  0
 26 28  2  0
 26 29  1  0
 27 28  1  0
 29 30  1  0
 30 31  1  0
 31 32  2  3
 32 33  1  0
M  END
>  <vina_dock>  (276) 
-10.364

$$$$
O14757_PocketFlow_idx-in-all-generaetd-321
     RDKit          3D

 35 37  0  0  0  0  0  0  0  0999 V2000
    6.3190   -2.4370   45.0150 C   0  0  0  0  0  0  0  0  0  0  0  0
    4.9830   -2.5750   45.0830 C   0  0  0  0  0  0  0  0  0  0  0  0
    7.1570   -1.8470   46.1160 C   0  0  0  0  0  0  0  0  0  0  0  0
    8.5970   -2.3780   46.1320 C   0  0  0  0  0  0  0  0  0  0  0  0
    8.6860   -3.8510   46.4310 C   0  0  0  0  0  0  0  0  0  0  0  0
    8.0260   -4.5370   47.3800 C   0  0  0  0  0  0  0  0  0  0  0  0
    7.0060   -4.0130   48.3630 C   0  0  1  0  0  0  0  0  0  0  0  0
    5.6760   -4.7510   48.1780 C   0  0  0  0  0  0  0  0  0  0  0  0
    7.5070   -4.2010   49.7760 C   0  0  0  0  0  0  0  0  0  0  0  0
    8.4470   -3.4900   50.4230 C   0  0  0  0  0  0  0  0  0  0  0  0
    9.2410   -2.3350   49.9070 C   0  0  0  0  0  0  0  0  0  0  0  0
    4.1210   -3.1670   43.9820 C   0  0  1  0  0  0  0  0  0  0  0  0
    3.2070   -4.2520   44.5570 C   0  0  0  0  0  0  0  0  0  0  0  0
    2.0050   -3.8940   45.1850 C   0  0  0  0  0  0  0  0  0  0  0  0
    3.5230   -5.6140   44.4500 C   0  0  0  0  0  0  0  0  0  0  0  0
    1.1510   -4.8730   45.7030 C   0  0  0  0  0  0  0  0  0  0  0  0
    2.6660   -6.5900   44.9670 C   0  0  0  0  0  0  0  0  0  0  0  0
    1.4660   -6.2360   45.6020 C   0  0  0  0  0  0  0  0  0  0  0  0
    0.5620   -7.2640   46.1370 C   0  0  0  0  0  0  0  0  0  0  0  0
    0.9420   -8.6140   46.1590 C   0  0  0  0  0  0  0  0  0  0  0  0
   -0.7060   -6.9300   46.6320 C   0  0  0  0  0  0  0  0  0  0  0  0
    0.0860   -9.5990   46.6650 C   0  0  0  0  0  0  0  0  0  0  0  0
   -1.5630   -7.9110   47.1430 C   0  0  0  0  0  0  0  0  0  0  0  0
   -1.1760   -9.2590   47.1740 C   0  0  0  0  0  0  0  0  0  0  0  0
   -2.1250  -10.2970   47.7410 C   0  0  1  0  0  0  0  0  0  0  0  0
   -2.1920  -10.0230   49.6880 Br  0  0  0  0  0  0  0  0  0  0  0  0
   -3.5440  -10.2440   47.1470 C   0  0  0  0  0  0  0  0  0  0  0  0
   -3.7150  -10.4020   45.6530 C   0  0  0  0  0  0  0  0  0  0  0  0
   -3.7600   -9.4460   44.7170 C   0  0  0  0  0  0  0  0  0  0  0  0
    3.3670   -2.1340   43.1350 C   0  0  0  0  0  0  0  0  0  0  0  0
    3.8470   -0.8350   42.8980 C   0  0  0  0  0  0  0  0  0  0  0  0
    2.1320   -2.4980   42.5630 C   0  0  0  0  0  0  0  0  0  0  0  0
    3.1160    0.0670   42.1190 C   0  0  0  0  0  0  0  0  0  0  0  0
    1.4030   -1.5950   41.7870 C   0  0  0  0  0  0  0  0  0  0  0  0
    1.8960   -0.3110   41.5660 C   0  0  0  0  0  0  0  0  0  0  0  0
  1  2  2  3
  1  3  1  0
  2 12  1  0
  3  4  1  0
  4  5  1  0
  5  6  2  3
  6  7  1  0
  7  8  1  1
  7  9  1  0
  9 10  2  3
 10 11  1  0
 12 30  1  1
 12 13  1  0
 13 15  1  0
 13 14  2  0
 14 16  1  0
 15 17  2  0
 16 18  2  0
 17 18  1  0
 18 19  1  0
 19 20  2  0
 19 21  1  0
 20 22  1  0
 21 23  2  0
 22 24  2  0
 23 24  1  0
 24 25  1  0
 25 27  1  0
 25 26  1  1
 27 28  1  0
 28 29  2  0
 30 32  1  0
 30 31  2  0
 31 33  1  0
 32 34  2  0
 33 35  2  0
 34 35  1  0
M  END
>  <vina_dock>  (277) 
-8.345

$$$$
O14757_PocketFlow_idx-in-all-generaetd-767
     RDKit          3D

 16 16  0  0  0  0  0  0  0  0999 V2000
    3.2590   -5.8700   44.6470 C   0  0  0  0  0  0  0  0  0  0  0  0
    2.1730   -6.7440   45.2120 C   0  0  0  0  0  0  0  0  0  0  0  0
    0.8900   -6.8070   44.8360 C   0  0  0  0  0  0  0  0  0  0  0  0
    0.0030   -7.6260   45.4750 N   0  0  0  0  0  0  0  0  0  0  0  0
   -0.8750   -7.0870   46.2500 C   0  0  0  0  0  0  0  0  0  0  0  0
   -1.1450   -5.7750   46.5160 N   0  0  0  0  0  0  0  0  0  0  0  0
    3.3090   -4.4220   45.1520 C   0  0  0  0  0  0  0  0  0  0  0  0
    2.9890   -3.4350   44.0540 C   0  0  0  0  0  0  0  0  0  0  0  0
    3.9280   -2.4640   43.6770 C   0  0  0  0  0  0  0  0  0  0  0  0
    1.7370   -3.4580   43.4220 C   0  0  0  0  0  0  0  0  0  0  0  0
    3.6260   -1.5350   42.6800 C   0  0  0  0  0  0  0  0  0  0  0  0
    1.4380   -2.5290   42.4180 C   0  0  0  0  0  0  0  0  0  0  0  0
    2.3820   -1.5640   42.0510 C   0  0  0  0  0  0  0  0  0  0  0  0
    0.1100   -2.5450   41.7490 C   0  0  0  0  0  0  0  0  0  0  0  0
   -0.4360   -3.6310   41.3020 N   0  0  0  0  0  0  0  0  0  0  0  0
   -0.5920   -1.3870   41.5910 N   0  0  0  0  0  0  0  0  0  0  0  0
  1  7  1  0
  1  2  1  0
  2  3  2  3
  3  4  1  0
  4  5  2  3
  5  6  1  0
  7  8  1  0
  8 10  2  0
  8  9  1  0
  9 11  2  0
 10 12  1  0
 11 13  1  0
 12 14  1  0
 12 13  2  0
 14 15  2  3
 14 16  1  0
M  END
>  <vina_dock>  (278) 
-6.874

$$$$
O14757_PocketFlow_idx-in-all-generaetd-633
     RDKit          3D

 20 22  0  0  0  0  0  0  0  0999 V2000
    0.8840   -3.1150   42.7870 C   0  0  0  0  0  0  0  0  0  0  0  0
    1.2930   -3.8800   43.9060 C   0  0  0  0  0  0  0  0  0  0  0  0
    2.5500   -3.6070   44.4640 C   0  0  0  0  0  0  0  0  0  0  0  0
    3.4460   -2.6950   43.8720 C   0  0  0  0  0  0  0  0  0  0  0  0
    3.0490   -2.0400   42.6980 C   0  0  0  0  0  0  0  0  0  0  0  0
    1.7840   -2.2580   42.1530 C   0  0  0  0  0  0  0  0  0  0  0  0
   -0.3720   -3.3530   42.1750 N   0  0  0  0  0  0  0  0  0  0  0  0
    0.3750   -4.7960   44.4620 N   0  0  0  0  0  0  0  0  0  0  0  0
    0.5970   -6.2210   44.2860 C   0  0  0  0  0  0  0  0  0  0  0  0
    4.7710   -2.4450   44.4630 C   0  0  0  0  0  0  0  0  0  0  0  0
    5.2520   -3.2350   45.5200 C   0  0  0  0  0  0  0  0  0  0  0  0
    5.5880   -1.4090   43.9860 C   0  0  0  0  0  0  0  0  0  0  0  0
    6.5180   -3.0090   46.0890 C   0  0  0  0  0  0  0  0  0  0  0  0
    6.8430   -1.1640   44.5500 C   0  0  0  0  0  0  0  0  0  0  0  0
    6.9740   -3.8600   47.2560 C   0  0  0  0  0  0  0  0  0  0  0  0
    7.3080   -1.9520   45.6090 C   0  0  0  0  0  0  0  0  0  0  0  0
    8.4250   -3.8410   47.5150 N   0  0  0  0  0  0  0  0  0  0  0  0
    8.6810   -1.7070   46.1840 C   0  0  0  0  0  0  0  0  0  0  0  0
    8.9140   -2.4550   47.5050 C   0  0  0  0  0  0  0  0  0  0  0  0
    9.1530   -4.7000   46.5840 C   0  0  0  0  0  0  0  0  0  0  0  0
  1  6  2  0
  1  7  1  0
  1  2  1  0
  2  8  1  0
  2  3  2  0
  3  4  1  0
  4  5  2  0
  4 10  1  0
  5  6  1  0
  8  9  1  0
 10 12  1  0
 10 11  2  0
 11 13  1  0
 12 14  2  0
 13 16  2  0
 13 15  1  0
 14 16  1  0
 15 17  1  0
 16 18  1  0
 17 20  1  0
 17 19  1  0
 18 19  1  0
M  END
>  <vina_dock>  (279) 
-8.67

$$$$
O14757_PocketFlow_idx-in-all-generaetd-84
     RDKit          3D

 21 22  0  0  0  0  0  0  0  0999 V2000
    2.1410   -3.3680   43.3850 C   0  0  0  0  0  0  0  0  0  0  0  0
    1.6140   -3.9380   44.7130 C   0  0  0  0  0  0  0  0  0  0  0  0
    1.7540   -5.4410   44.8480 C   0  0  0  0  0  0  0  0  0  0  0  0
    2.9460   -6.0520   44.7340 C   0  0  0  0  0  0  0  0  0  0  0  0
    0.5360   -6.2450   45.0790 C   0  0  0  0  0  0  0  0  0  0  0  0
   -1.3420   -7.5420   44.2300 C   0  0  0  0  0  0  0  0  0  0  0  0
   -1.7950   -7.7310   45.5300 C   0  0  0  0  0  0  0  0  0  0  0  0
   -0.1780   -6.7990   44.0060 C   0  0  0  0  0  0  0  0  0  0  0  0
   -1.1050   -7.1910   46.6080 C   0  0  0  0  0  0  0  0  0  0  0  0
    0.0570   -6.4500   46.3820 C   0  0  0  0  0  0  0  0  0  0  0  0
   -2.9250   -8.4480   45.7920 O   0  0  0  0  0  0  0  0  0  0  0  0
    3.3460   -2.4700   43.5400 C   0  0  0  0  0  0  0  0  0  0  0  0
    4.2150   -2.6260   44.6310 C   0  0  0  0  0  0  0  0  0  0  0  0
    3.6030   -1.4630   42.6030 C   0  0  0  0  0  0  0  0  0  0  0  0
    5.3320   -1.7920   44.8000 C   0  0  0  0  0  0  0  0  0  0  0  0
    4.7030   -0.6230   42.7570 C   0  0  0  0  0  0  0  0  0  0  0  0
    5.5580   -0.7840   43.8480 C   0  0  0  0  0  0  0  0  0  0  0  0
    6.2670   -1.9180   45.9820 C   0  0  1  0  0  0  0  0  0  0  0  0
    5.9530   -3.6910   46.7870 Br  0  0  0  0  0  0  0  0  0  0  0  0
    7.7840   -1.7720   45.7260 C   0  0  0  0  0  0  0  0  0  0  0  0
    8.3920   -0.6090   46.3810 N   0  0  0  0  0  0  0  0  0  0  0  0
  1 12  1  0
  1  2  1  0
  2  3  1  0
  3  4  2  0
  3  5  1  0
  5  8  1  0
  5 10  2  0
  6  8  2  0
  6  7  1  0
  7 11  1  0
  7  9  2  0
  9 10  1  0
 12 14  1  0
 12 13  2  0
 13 15  1  0
 14 16  2  0
 15 17  2  0
 15 18  1  0
 16 17  1  0
 18 20  1  0
 18 19  1  6
 20 21  1  0
M  END
>  <vina_dock>  (280) 
-7.832

$$$$
O14757_PocketFlow_idx-in-all-generaetd-907
     RDKit          3D

 22 23  0  0  0  0  0  0  0  0999 V2000
    0.5120   -6.0580   43.7670 C   0  0  0  0  0  0  0  0  0  0  0  0
    0.5290   -4.8100   44.2660 C   0  0  0  0  0  0  0  0  0  0  0  0
   -0.4270   -7.1300   44.2350 C   0  0  0  0  0  0  0  0  0  0  0  0
   -0.2200   -7.4490   45.6850 C   0  0  0  0  0  0  0  0  0  0  0  0
   -0.6830   -6.7730   46.7410 C   0  0  0  0  0  0  0  0  0  0  0  0
   -1.5040   -5.6850   46.6620 O   0  0  0  0  0  0  0  0  0  0  0  0
   -0.3470   -7.1730   48.0030 O   0  0  0  0  0  0  0  0  0  0  0  0
    1.4410   -3.7520   43.8090 C   0  0  0  0  0  0  0  0  0  0  0  0
    1.1040   -2.8700   42.7760 C   0  0  0  0  0  0  0  0  0  0  0  0
    2.7140   -3.6590   44.3890 C   0  0  0  0  0  0  0  0  0  0  0  0
    2.0090   -1.8920   42.3330 C   0  0  0  0  0  0  0  0  0  0  0  0
    3.6420   -2.6880   43.9760 C   0  0  0  0  0  0  0  0  0  0  0  0
    3.2670   -1.8090   42.9480 C   0  0  0  0  0  0  0  0  0  0  0  0
    1.6240   -0.9190   41.2520 C   0  0  1  0  0  0  0  0  0  0  0  0
    0.2860   -0.6990   41.1590 F   0  0  0  0  0  0  0  0  0  0  0  0
    2.1750    0.3550   41.5080 O   0  0  0  0  0  0  0  0  0  0  0  0
    4.9700   -2.5950   44.6060 C   0  0  0  0  0  0  0  0  0  0  0  0
    5.8580   -1.5580   44.2750 C   0  0  0  0  0  0  0  0  0  0  0  0
    5.3890   -3.5420   45.5560 C   0  0  0  0  0  0  0  0  0  0  0  0
    7.1180   -1.4690   44.8700 C   0  0  0  0  0  0  0  0  0  0  0  0
    6.6500   -3.4540   46.1530 C   0  0  0  0  0  0  0  0  0  0  0  0
    7.5140   -2.4170   45.8100 C   0  0  0  0  0  0  0  0  0  0  0  0
  1  3  1  0
  1  2  2  3
  2  8  1  0
  3  4  1  0
  4  5  2  3
  5  6  1  0
  5  7  1  0
  8  9  2  0
  8 10  1  0
  9 11  1  0
 10 12  2  0
 11 14  1  0
 11 13  2  0
 12 13  1  0
 12 17  1  0
 14 15  1  0
 14 16  1  1
 17 18  2  0
 17 19  1  0
 18 20  1  0
 19 21  2  0
 20 22  2  0
 21 22  1  0
M  END
>  <vina_dock>  (281) 
-9.235

$$$$
O14757_PocketFlow_idx-in-all-generaetd-530
     RDKit          3D

 12 13  0  0  0  0  0  0  0  0999 V2000
    1.0480   -1.6230   41.2230 C   0  0  0  0  0  0  0  0  0  0  0  0
    0.1360   -2.5990   41.6110 C   0  0  0  0  0  0  0  0  0  0  0  0
    2.2790   -1.5150   41.8770 C   0  0  0  0  0  0  0  0  0  0  0  0
    2.6180   -2.3810   42.9300 C   0  0  0  0  0  0  0  0  0  0  0  0
    0.4510   -3.4670   42.6530 C   0  0  0  0  0  0  0  0  0  0  0  0
    1.6830   -3.3590   43.3060 C   0  0  0  0  0  0  0  0  0  0  0  0
    3.9150   -2.2660   43.6190 C   0  0  0  0  0  0  0  0  0  0  0  0
    4.3350   -3.2420   44.5370 C   0  0  0  0  0  0  0  0  0  0  0  0
    4.7690   -1.1770   43.3790 C   0  0  0  0  0  0  0  0  0  0  0  0
    5.5660   -3.1350   45.1920 C   0  0  0  0  0  0  0  0  0  0  0  0
    5.9990   -1.0670   44.0330 C   0  0  0  0  0  0  0  0  0  0  0  0
    6.3970   -2.0470   44.9390 C   0  0  0  0  0  0  0  0  0  0  0  0
  1  2  2  0
  1  3  1  0
  2  5  1  0
  3  4  2  0
  4  6  1  0
  4  7  1  0
  5  6  2  0
  7  9  1  0
  7  8  2  0
  8 10  1  0
  9 11  2  0
 10 12  2  0
 11 12  1  0
M  END
>  <vina_dock>  (282) 
-7.089

$$$$
O14757_PocketFlow_idx-in-all-generaetd-206
     RDKit          3D

  9  9  0  0  0  0  0  0  0  0999 V2000
    2.2020   -1.8650   42.2830 C   0  0  0  0  0  0  0  0  0  0  0  0
    1.6280   -2.9430   42.9730 C   0  0  0  0  0  0  0  0  0  0  0  0
    2.3730   -3.6630   43.9090 C   0  0  0  0  0  0  0  0  0  0  0  0
    3.5320   -1.5150   42.5570 C   0  0  0  0  0  0  0  0  0  0  0  0
    4.2750   -2.2360   43.4930 C   0  0  0  0  0  0  0  0  0  0  0  0
    3.6960   -3.3090   44.1680 C   0  0  0  0  0  0  0  0  0  0  0  0
    1.3880   -1.0650   41.3000 C   0  0  0  0  0  0  0  0  0  0  0  0
    1.8350    0.2150   41.1510 F   0  0  0  0  0  0  0  0  0  0  0  0
    0.0760   -0.9590   41.6520 F   0  0  0  0  0  0  0  0  0  0  0  0
  1  7  1  0
  1  4  2  0
  1  2  1  0
  2  3  2  0
  3  6  1  0
  4  5  1  0
  5  6  2  0
  7  8  1  0
  7  9  1  0
M  END
>  <vina_dock>  (283) 
-5.383

$$$$
O14757_PocketFlow_idx-in-all-generaetd-588
     RDKit          3D

 33 37  0  0  0  0  0  0  0  0999 V2000
   10.7950   -1.6240   47.7010 C   0  0  0  0  0  0  0  0  0  0  0  0
    9.8090   -2.3910   48.3250 C   0  0  0  0  0  0  0  0  0  0  0  0
    8.5910   -2.6420   47.6730 C   0  0  0  0  0  0  0  0  0  0  0  0
   10.5570   -1.1070   46.4260 C   0  0  0  0  0  0  0  0  0  0  0  0
    7.5220   -3.4600   48.3540 C   0  0  0  0  0  0  0  0  0  0  0  0
    6.7470   -4.3110   47.3360 C   0  0  2  0  0  0  0  0  0  0  0  0
    6.2240   -3.4750   46.1830 C   0  0  0  0  0  0  0  0  0  0  0  0
    7.0070   -2.3640   45.7590 C   0  0  0  0  0  0  0  0  0  0  0  0
    6.4850   -1.5330   44.7590 C   0  0  0  0  0  0  0  0  0  0  0  0
    5.2440   -1.7940   44.1690 C   0  0  0  0  0  0  0  0  0  0  0  0
    8.3200   -2.1000   46.3980 C   0  0  0  0  0  0  0  0  0  0  0  0
    9.3350   -1.3440   45.7840 C   0  0  0  0  0  0  0  0  0  0  0  0
    4.5200   -2.9240   44.5800 C   0  0  0  0  0  0  0  0  0  0  0  0
    5.0010   -3.8180   45.5540 C   0  0  0  0  0  0  0  0  0  0  0  0
    5.5780   -4.9930   48.0310 C   0  0  0  0  0  0  0  0  0  0  0  0
    4.2610   -4.9890   45.9050 N   0  0  0  0  0  0  0  0  0  0  0  0
    4.8090   -5.8050   47.0100 C   0  0  0  0  0  0  0  0  0  0  0  0
   12.1000   -1.3390   48.3430 C   0  0  0  0  0  0  0  0  0  0  0  0
   12.9360   -2.1640   48.6610 O   0  0  0  0  0  0  0  0  0  0  0  0
   12.3010   -0.0260   48.5610 O   0  0  0  0  0  0  0  0  0  0  0  0
    4.6700   -0.8580   43.1370 C   0  0  0  0  0  0  0  0  0  0  0  0
    3.7160   -1.4410   42.3580 F   0  0  0  0  0  0  0  0  0  0  0  0
    5.6060   -0.3740   42.2720 F   0  0  0  0  0  0  0  0  0  0  0  0
    4.0810    0.2340   43.6980 F   0  0  0  0  0  0  0  0  0  0  0  0
    3.3300   -5.5700   45.0410 C   0  0  0  0  0  0  0  0  0  0  0  0
    2.0060   -5.7250   45.1950 C   0  0  0  0  0  0  0  0  0  0  0  0
    1.1200   -6.4040   44.1890 C   0  0  0  0  0  0  0  0  0  0  0  0
    0.0940   -7.2960   44.8440 C   0  0  0  0  0  0  0  0  0  0  0  0
   -1.1840   -7.4390   44.2830 C   0  0  0  0  0  0  0  0  0  0  0  0
    0.4080   -8.0150   46.0070 C   0  0  0  0  0  0  0  0  0  0  0  0
   -2.1310   -8.2730   44.8800 C   0  0  0  0  0  0  0  0  0  0  0  0
   -0.5400   -8.8490   46.6010 C   0  0  0  0  0  0  0  0  0  0  0  0
   -1.8090   -8.9760   46.0380 C   0  0  0  0  0  0  0  0  0  0  0  0
  1  4  2  0
  1  2  1  0
  1 18  1  0
  2  3  2  0
  3 11  1  0
  3  5  1  0
  4 12  1  0
  6  5  1  1
  6  7  1  0
  6 15  1  0
  7 14  1  0
  7  8  2  0
  8  9  1  0
  8 11  1  0
  9 10  2  0
 10 21  1  0
 10 13  1  0
 11 12  2  0
 13 14  2  0
 14 16  1  0
 15 17  1  0
 16 25  1  0
 16 17  1  0
 18 20  1  0
 18 19  2  0
 21 23  1  0
 21 22  1  0
 21 24  1  0
 25 26  2  3
 26 27  1  0
 27 28  1  0
 28 29  2  0
 28 30  1  0
 29 31  1  0
 30 32  2  0
 31 33  2  0
 32 33  1  0
M  END
>  <vina_dock>  (284) 
-9.454

$$$$
O14757_PocketFlow_idx-in-all-generaetd-137
     RDKit          3D

 14 14  0  0  0  0  0  0  0  0999 V2000
    1.0420   -3.5600   44.5880 C   0  0  0  0  0  0  0  0  0  0  0  0
    0.6860   -4.0190   43.2000 C   0  0  0  0  0  0  0  0  0  0  0  0
    0.5090   -3.2690   42.1010 C   0  0  0  0  0  0  0  0  0  0  0  0
    0.6670   -1.8360   42.0160 C   0  0  0  0  0  0  0  0  0  0  0  0
    1.5040   -1.2480   41.1600 C   0  0  0  0  0  0  0  0  0  0  0  0
    1.6270    0.0910   41.1130 F   0  0  0  0  0  0  0  0  0  0  0  0
    2.2210   -4.3230   45.1970 C   0  0  0  0  0  0  0  0  0  0  0  0
    3.3860   -4.5110   44.2210 C   0  0  0  0  0  0  0  0  0  0  0  0
    4.3570   -3.3570   44.2870 C   0  0  0  0  0  0  0  0  0  0  0  0
    5.4310   -3.3850   45.1870 C   0  0  0  0  0  0  0  0  0  0  0  0
    4.2140   -2.2560   43.4330 C   0  0  0  0  0  0  0  0  0  0  0  0
    6.3390   -2.3260   45.2380 C   0  0  0  0  0  0  0  0  0  0  0  0
    5.1230   -1.1980   43.4840 C   0  0  0  0  0  0  0  0  0  0  0  0
    6.1840   -1.2320   44.3870 C   0  0  0  0  0  0  0  0  0  0  0  0
  1  2  1  0
  1  7  1  0
  2  3  2  3
  3  4  1  0
  4  5  2  3
  5  6  1  0
  7  8  1  0
  8  9  1  0
  9 11  2  0
  9 10  1  0
 10 12  2  0
 11 13  1  0
 12 14  1  0
 13 14  2  0
M  END
>  <vina_dock>  (285) 
-6.422

$$$$
O14757_PocketFlow_idx-in-all-generaetd-764
     RDKit          3D

  8  8  0  0  0  0  0  0  0  0999 V2000
    2.7680   -1.8590   42.3850 C   0  0  0  0  0  0  0  0  0  0  0  0
    3.4910   -2.4770   43.4130 C   0  0  0  0  0  0  0  0  0  0  0  0
    1.4470   -2.2300   42.1280 C   0  0  0  0  0  0  0  0  0  0  0  0
    0.8360   -3.2180   42.8980 C   0  0  0  0  0  0  0  0  0  0  0  0
    1.5450   -3.8340   43.9280 C   0  0  0  0  0  0  0  0  0  0  0  0
    2.8660   -3.4650   44.1870 C   0  0  0  0  0  0  0  0  0  0  0  0
    4.9120   -2.0660   43.7030 C   0  0  0  0  0  0  0  0  0  0  0  0
    5.1640   -0.6090   43.3460 C   0  0  0  0  0  0  0  0  0  0  0  0
  1  3  2  0
  1  2  1  0
  2  7  1  0
  2  6  2  0
  3  4  1  0
  4  5  2  0
  5  6  1  0
  7  8  1  0
M  END
>  <vina_dock>  (286) 
-5.063

$$$$
O14757_PocketFlow_idx-in-all-generaetd-860
     RDKit          3D

 24 26  0  0  0  0  0  0  0  0999 V2000
    4.8600   -0.4940   42.8050 C   0  0  0  0  0  0  0  0  0  0  0  0
    5.5140   -0.8830   43.9110 C   0  0  0  0  0  0  0  0  0  0  0  0
    3.4390   -0.6020   42.5640 C   0  0  0  0  0  0  0  0  0  0  0  0
    2.8840   -1.6810   41.9890 C   0  0  0  0  0  0  0  0  0  0  0  0
    1.4450   -1.8260   41.7390 C   0  0  0  0  0  0  0  0  0  0  0  0
    0.5630   -0.7520   41.6780 C   0  0  0  0  0  0  0  0  0  0  0  0
    0.9080   -3.0880   41.4880 C   0  0  0  0  0  0  0  0  0  0  0  0
   -0.7650   -0.8600   41.4230 N   0  0  0  0  0  0  0  0  0  0  0  0
   -0.4560   -3.2210   41.2240 C   0  0  0  0  0  0  0  0  0  0  0  0
   -1.2580   -2.0870   41.2030 C   0  0  0  0  0  0  0  0  0  0  0  0
   -2.6260   -2.2000   40.9430 N   0  0  0  0  0  0  0  0  0  0  0  0
    4.9490   -1.4880   45.1660 C   0  0  0  0  0  0  0  0  0  0  0  0
    5.2990   -2.9720   45.3200 C   0  0  0  0  0  0  0  0  0  0  0  0
    4.6930   -3.8430   44.2160 C   0  0  0  0  0  0  0  0  0  0  0  0
    3.4030   -4.4860   44.6650 C   0  0  0  0  0  0  0  0  0  0  0  0
    3.3570   -5.8550   44.9650 C   0  0  0  0  0  0  0  0  0  0  0  0
    2.2300   -3.7320   44.7580 C   0  0  0  0  0  0  0  0  0  0  0  0
    2.1610   -6.4730   45.3670 C   0  0  0  0  0  0  0  0  0  0  0  0
    1.0320   -4.3310   45.1560 C   0  0  0  0  0  0  0  0  0  0  0  0
    2.1100   -7.8430   45.6730 C   0  0  0  0  0  0  0  0  0  0  0  0
    0.9820   -5.7000   45.4630 C   0  0  0  0  0  0  0  0  0  0  0  0
    0.9130   -8.4420   46.0700 C   0  0  0  0  0  0  0  0  0  0  0  0
   -0.2150   -6.3170   45.8640 C   0  0  0  0  0  0  0  0  0  0  0  0
   -0.2480   -7.6790   46.1660 C   0  0  0  0  0  0  0  0  0  0  0  0
  1  3  1  0
  1  2  2  3
  2 12  1  0
  3  4  2  3
  4  5  1  0
  5  7  1  0
  5  6  2  0
  6  8  1  0
  7  9  2  0
  8 10  2  0
  9 10  1  0
 10 11  1  0
 12 13  1  0
 13 14  1  0
 14 15  1  0
 15 17  1  0
 15 16  2  0
 16 18  1  0
 17 19  2  0
 18 21  2  0
 18 20  1  0
 19 21  1  0
 20 22  2  0
 21 23  1  0
 22 24  1  0
 23 24  2  0
M  END
>  <vina_dock>  (287) 
-8.622

$$$$
O14757_PocketFlow_idx-in-all-generaetd-142
     RDKit          3D

 35 39  0  0  0  0  0  0  0  0999 V2000
    0.5830   -2.2050   41.6460 C   0  0  0  0  0  0  0  0  0  0  0  0
    1.5500   -2.7240   42.5240 C   0  0  0  0  0  0  0  0  0  0  0  0
    2.6890   -1.9820   42.8820 C   0  0  0  0  0  0  0  0  0  0  0  0
    2.8410   -0.6990   42.3330 C   0  0  0  0  0  0  0  0  0  0  0  0
    1.8920   -0.1750   41.4540 C   0  0  0  0  0  0  0  0  0  0  0  0
    0.7690   -0.9250   41.1090 C   0  0  0  0  0  0  0  0  0  0  0  0
   -0.6240   -3.0290   41.2640 C   0  0  0  0  0  0  0  0  0  0  0  0
   -1.9030   -2.2350   41.1670 C   0  0  0  0  0  0  0  0  0  0  0  0
   -2.1390   -1.1170   41.5920 O   0  0  0  0  0  0  0  0  0  0  0  0
   -2.8650   -2.9180   40.5070 O   0  0  0  0  0  0  0  0  0  0  0  0
    3.6950   -2.5360   43.8020 C   0  0  0  0  0  0  0  0  0  0  0  0
    4.9160   -1.8750   44.0240 C   0  0  0  0  0  0  0  0  0  0  0  0
    3.4640   -3.7380   44.4870 C   0  0  0  0  0  0  0  0  0  0  0  0
    5.8870   -2.3900   44.9010 C   0  0  0  0  0  0  0  0  0  0  0  0
    4.4180   -4.2640   45.3630 C   0  0  0  0  0  0  0  0  0  0  0  0
    7.0960   -1.7180   45.1260 C   0  0  0  0  0  0  0  0  0  0  0  0
    5.6350   -3.6030   45.5770 C   0  0  0  0  0  0  0  0  0  0  0  0
    8.0590   -2.2440   45.9970 C   0  0  0  0  0  0  0  0  0  0  0  0
    6.6040   -4.1220   46.4530 C   0  0  0  0  0  0  0  0  0  0  0  0
    9.3020   -1.4620   46.2460 C   0  0  0  0  0  0  0  0  0  0  0  0
    7.8330   -3.4690   46.6470 C   0  0  0  0  0  0  0  0  0  0  0  0
   10.2460   -2.0230   47.0700 N   0  0  0  0  0  0  0  0  0  0  0  0
    9.4800   -0.3560   45.7510 O   0  0  0  0  0  0  0  0  0  0  0  0
    8.8800   -4.0190   47.5970 C   0  0  2  0  0  0  0  0  0  0  0  0
   10.2760   -3.4380   47.3660 C   0  0  0  0  0  0  0  0  0  0  0  0
    8.9570   -5.5470   47.7080 C   0  0  0  0  0  0  0  0  0  0  0  0
    8.4280   -6.2110   48.8300 N   0  0  0  0  0  0  0  0  0  0  0  0
    9.5000   -6.1380   46.7660 O   0  0  0  0  0  0  0  0  0  0  0  0
    8.2060   -5.5450   50.1180 C   0  0  0  0  0  0  0  0  0  0  0  0
    8.2730   -7.6530   48.8250 C   0  0  0  0  0  0  0  0  0  0  0  0
    7.1230   -8.2680   48.3060 C   0  0  0  0  0  0  0  0  0  0  0  0
    9.2500   -8.4970   49.3870 C   0  0  0  0  0  0  0  0  0  0  0  0
    6.9610   -9.6580   48.3270 C   0  0  0  0  0  0  0  0  0  0  0  0
    9.0910   -9.8870   49.4090 C   0  0  0  0  0  0  0  0  0  0  0  0
    7.9470  -10.4690   48.8780 C   0  0  0  0  0  0  0  0  0  0  0  0
  1  6  2  0
  1  7  1  0
  1  2  1  0
  2  3  2  0
  3  4  1  0
  3 11  1  0
  4  5  2  0
  5  6  1  0
  7  8  1  0
  8 10  1  0
  8  9  2  0
 11 12  2  0
 11 13  1  0
 12 14  1  0
 13 15  2  0
 14 16  2  0
 14 17  1  0
 15 17  1  0
 16 18  1  0
 17 19  2  0
 18 20  1  0
 18 21  2  0
 19 21  1  0
 20 23  2  0
 20 22  1  0
 21 24  1  0
 22 25  1  0
 24 25  1  0
 24 26  1  6
 26 28  2  0
 26 27  1  0
 27 30  1  0
 27 29  1  0
 30 31  2  0
 30 32  1  0
 31 33  1  0
 32 34  2  0
 33 35  2  0
 34 35  1  0
M  END
>  <vina_dock>  (288) 
-9.962

$$$$
O14757_PocketFlow_idx-in-all-generaetd-756
     RDKit          3D

 35 37  0  0  0  0  0  0  0  0999 V2000
    2.3830   -1.6180   41.8810 C   0  0  1  0  0  0  0  0  0  0  0  0
    2.0320   -0.6260   41.0240 F   0  0  0  0  0  0  0  0  0  0  0  0
    2.9800   -0.9740   43.0140 N   0  0  0  0  0  0  0  0  0  0  0  0
    4.3470   -0.8040   43.0430 C   0  0  0  0  0  0  0  0  0  0  0  0
    4.9200    0.0370   42.3680 O   0  0  0  0  0  0  0  0  0  0  0  0
    4.9320   -1.7210   43.8880 N   0  0  0  0  0  0  0  0  0  0  0  0
    5.1290   -1.4860   45.2350 C   0  0  0  0  0  0  0  0  0  0  0  0
    4.4340   -0.7780   45.9520 O   0  0  0  0  0  0  0  0  0  0  0  0
    6.2480   -2.2480   45.8500 C   0  0  0  0  0  0  0  0  0  0  0  0
    6.9530   -4.0300   47.3470 C   0  0  0  0  0  0  0  0  0  0  0  0
    5.9350   -3.2900   46.7310 C   0  0  0  0  0  0  0  0  0  0  0  0
    8.2890   -3.7170   47.0520 C   0  0  0  0  0  0  0  0  0  0  0  0
    8.6050   -2.6910   46.1570 C   0  0  0  0  0  0  0  0  0  0  0  0
    7.5850   -1.9570   45.5520 C   0  0  0  0  0  0  0  0  0  0  0  0
    6.6410   -5.1090   48.2790 C   0  0  0  0  0  0  0  0  0  0  0  0
    5.6230   -6.0130   48.0480 N   0  0  0  0  0  0  0  0  0  0  0  0
    7.3050   -5.3310   49.4240 N   0  0  0  0  0  0  0  0  0  0  0  0
    5.6640   -6.8000   49.0970 C   0  0  0  0  0  0  0  0  0  0  0  0
    6.6620   -6.3970   49.9220 N   0  0  0  0  0  0  0  0  0  0  0  0
    1.1960   -2.4080   42.3450 C   0  0  0  0  0  0  0  0  0  0  0  0
    1.1190   -3.3910   43.2600 C   0  0  0  0  0  0  0  0  0  0  0  0
    2.2450   -4.0170   44.0340 C   0  0  0  0  0  0  0  0  0  0  0  0
    1.8660   -5.3590   44.6130 C   0  0  0  0  0  0  0  0  0  0  0  0
    0.5280   -5.7780   44.5210 C   0  0  0  0  0  0  0  0  0  0  0  0
    2.7750   -6.2240   45.2280 C   0  0  0  0  0  0  0  0  0  0  0  0
    0.1100   -7.0160   45.0470 C   0  0  0  0  0  0  0  0  0  0  0  0
    2.3670   -7.4530   45.7600 C   0  0  0  0  0  0  0  0  0  0  0  0
    1.0330   -7.8650   45.6770 C   0  0  0  0  0  0  0  0  0  0  0  0
    4.1060   -5.9450   45.3550 O   0  0  0  0  0  0  0  0  0  0  0  0
   -1.3250   -7.3880   44.9510 C   0  0  0  0  0  0  0  0  0  0  0  0
   -1.9130   -7.8800   44.0070 O   0  0  0  0  0  0  0  0  0  0  0  0
   -1.9810   -7.1110   46.0970 O   0  0  0  0  0  0  0  0  0  0  0  0
    0.5610   -9.0600   46.1420 O   0  0  0  0  0  0  0  0  0  0  0  0
    0.8740   -9.4930   47.4640 C   0  0  0  0  0  0  0  0  0  0  0  0
   -0.2330   -9.1220   48.4370 C   0  0  0  0  0  0  0  0  0  0  0  0
  1  2  1  6
  1 20  1  0
  1  3  1  0
  3  4  1  0
  4  5  2  0
  4  6  1  0
  6  7  1  0
  7  9  1  0
  7  8  2  0
  9 14  1  0
  9 11  2  0
 10 11  1  0
 10 12  2  0
 10 15  1  0
 12 13  1  0
 13 14  2  0
 15 16  2  0
 15 17  1  0
 16 18  1  0
 17 19  1  0
 18 19  1  0
 20 21  2  3
 21 22  1  0
 22 23  1  0
 23 24  2  0
 23 25  1  0
 24 26  1  0
 25 29  1  0
 25 27  2  0
 26 30  1  0
 26 28  2  0
 27 28  1  0
 28 33  1  0
 30 31  2  0
 30 32  1  0
 33 34  1  0
 34 35  1  0
M  END
>  <vina_dock>  (289) 
-8.171

$$$$
O14757_PocketFlow_idx-in-all-generaetd-806
     RDKit          3D

 34 37  0  0  0  0  0  0  0  0999 V2000
    0.9180   -4.7440   44.0690 C   0  0  0  0  0  0  0  0  0  0  0  0
    0.7150   -4.8620   45.4510 C   0  0  0  0  0  0  0  0  0  0  0  0
   -0.0120   -5.9340   45.9790 C   0  0  0  0  0  0  0  0  0  0  0  0
   -0.5480   -6.9190   45.1380 C   0  0  0  0  0  0  0  0  0  0  0  0
   -0.3500   -6.8000   43.7570 C   0  0  0  0  0  0  0  0  0  0  0  0
    0.3770   -5.7290   43.2280 C   0  0  0  0  0  0  0  0  0  0  0  0
    1.6930   -3.6270   43.5090 C   0  0  0  0  0  0  0  0  0  0  0  0
    3.7870   -2.3420   43.5040 C   0  0  0  0  0  0  0  0  0  0  0  0
    2.9920   -3.3890   43.9980 C   0  0  0  0  0  0  0  0  0  0  0  0
    3.2770   -1.5250   42.4900 C   0  0  0  0  0  0  0  0  0  0  0  0
    1.9920   -1.7430   41.9920 C   0  0  0  0  0  0  0  0  0  0  0  0
    1.2050   -2.7840   42.4950 C   0  0  0  0  0  0  0  0  0  0  0  0
   -0.3690   -2.9940   41.8050 Cl  0  0  0  0  0  0  0  0  0  0  0  0
    5.1840   -2.1250   44.0390 C   0  0  0  0  0  0  0  0  0  0  0  0
    5.2480   -1.9180   45.5440 C   0  0  0  0  0  0  0  0  0  0  0  0
    4.6950   -0.9810   46.1190 O   0  0  0  0  0  0  0  0  0  0  0  0
    6.0210   -2.9020   46.3650 C   0  0  0  0  0  0  0  0  0  0  0  0
    6.1930   -4.6190   48.0470 C   0  0  0  0  0  0  0  0  0  0  0  0
    5.6040   -5.4070   48.9570 F   0  0  0  0  0  0  0  0  0  0  0  0
    7.5660   -4.7110   47.8530 C   0  0  0  0  0  0  0  0  0  0  0  0
    5.4130   -3.7260   47.3160 C   0  0  0  0  0  0  0  0  0  0  0  0
    8.1790   -3.8940   46.9080 C   0  0  0  0  0  0  0  0  0  0  0  0
    7.4100   -2.9930   46.1680 C   0  0  0  0  0  0  0  0  0  0  0  0
   -1.3170   -8.0420   45.6920 C   0  0  0  0  0  0  0  0  0  0  0  0
   -0.7090   -9.1170   46.3780 C   0  0  0  0  0  0  0  0  0  0  0  0
   -2.7150   -8.0420   45.5320 C   0  0  0  0  0  0  0  0  0  0  0  0
   -1.5200  -10.1470   46.8940 C   0  0  0  0  0  0  0  0  0  0  0  0
   -3.5020   -9.0760   46.0410 C   0  0  0  0  0  0  0  0  0  0  0  0
   -2.9040  -10.1280   46.7240 C   0  0  0  0  0  0  0  0  0  0  0  0
    0.7860   -9.1990   46.6150 C   0  0  0  0  0  0  0  0  0  0  0  0
    1.1310   -9.2650   48.0780 C   0  0  0  0  0  0  0  0  0  0  0  0
    2.3000   -9.7210   48.5580 C   0  0  0  0  0  0  0  0  0  0  0  0
    2.6360   -9.7790   50.0200 C   0  0  0  0  0  0  0  0  0  0  0  0
    4.0340   -9.2440   50.2880 C   0  0  0  0  0  0  0  0  0  0  0  0
  1  6  1  0
  1  7  1  0
  1  2  2  0
  2  3  1  0
  3  4  2  0
  4  5  1  0
  4 24  1  0
  5  6  2  0
  7 12  1  0
  7  9  2  0
  8 10  2  0
  8  9  1  0
  8 14  1  0
 10 11  1  0
 11 12  2  0
 12 13  1  0
 14 15  1  0
 15 16  2  0
 15 17  1  0
 17 23  2  0
 17 21  1  0
 18 21  2  0
 18 20  1  0
 18 19  1  0
 20 22  2  0
 22 23  1  0
 24 26  1  0
 24 25  2  0
 25 30  1  0
 25 27  1  0
 26 28  2  0
 27 29  2  0
 28 29  1  0
 30 31  1  0
 31 32  2  3
 32 33  1  0
 33 34  1  0
M  END
>  <vina_dock>  (290) 
-9.695

$$$$
O14757_PocketFlow_idx-in-all-generaetd-527
     RDKit          3D

 24 24  0  0  0  0  0  0  0  0999 V2000
   -0.0300   -5.3860   45.9840 C   0  0  0  0  0  0  0  0  0  0  0  0
    1.2030   -4.7480   45.4010 C   0  0  0  0  0  0  0  0  0  0  0  0
    2.2870   -3.3760   43.6810 C   0  0  0  0  0  0  0  0  0  0  0  0
    3.5430   -3.5330   44.3240 C   0  0  0  0  0  0  0  0  0  0  0  0
    1.1380   -3.9880   44.2300 C   0  0  0  0  0  0  0  0  0  0  0  0
    3.5900   -4.3210   45.4840 C   0  0  0  0  0  0  0  0  0  0  0  0
    2.4420   -4.9150   46.0180 C   0  0  0  0  0  0  0  0  0  0  0  0
    2.1120   -2.6020   42.3850 C   0  0  0  0  0  0  0  0  0  0  0  0
    0.6710   -2.2960   42.0840 C   0  0  0  0  0  0  0  0  0  0  0  0
    0.2360   -1.1180   41.6050 C   0  0  0  0  0  0  0  0  0  0  0  0
   -1.1910   -0.8110   41.2910 C   0  0  0  0  0  0  0  0  0  0  0  0
   -2.0050   -1.9850   41.5640 N   0  0  0  0  0  0  0  0  0  0  0  0
    4.7970   -2.9130   43.7230 C   0  0  0  0  0  0  0  0  0  0  0  0
    5.3340   -1.5260   44.1760 C   0  0  1  0  0  0  0  0  0  0  0  0
    6.7380   -1.6200   44.7870 C   0  0  0  0  0  0  0  0  0  0  0  0
    5.2310   -0.3650   43.2070 C   0  0  0  0  0  0  0  0  0  0  0  0
    4.1190    0.2350   42.7620 C   0  0  0  0  0  0  0  0  0  0  0  0
    0.2770   -6.7290   46.3490 O   0  0  0  0  0  0  0  0  0  0  0  0
    0.1330   -7.6560   45.2750 C   0  0  0  0  0  0  0  0  0  0  0  0
   -0.9500   -7.2050   44.2960 C   0  0  0  0  0  0  0  0  0  0  0  0
   -2.1900   -8.0970   44.3120 C   0  0  0  0  0  0  0  0  0  0  0  0
   -3.0210   -7.9590   45.5860 C   0  0  0  0  0  0  0  0  0  0  0  0
   -2.7600   -9.0250   46.4970 O   0  0  0  0  0  0  0  0  0  0  0  0
   -2.5550   -8.5880   47.8350 C   0  0  0  0  0  0  0  0  0  0  0  0
  1  2  1  0
  1 18  1  0
  2  5  2  0
  2  7  1  0
  3  8  1  0
  3  5  1  0
  3  4  2  0
  4 13  1  0
  4  6  1  0
  6  7  2  0
  8  9  1  0
  9 10  2  3
 10 11  1  0
 11 12  1  0
 13 14  1  0
 14 16  1  0
 14 15  1  6
 16 17  2  0
 18 19  1  0
 19 20  1  0
 20 21  1  0
 21 22  1  0
 22 23  1  0
 23 24  1  0
M  END
>  <vina_dock>  (291) 
-6.82

$$$$
O14757_PocketFlow_idx-in-all-generaetd-426
     RDKit          3D

 24 25  0  0  0  0  0  0  0  0999 V2000
    6.6480   -1.8710   44.8260 C   0  0  0  0  0  0  0  0  0  0  0  0
    5.6100   -1.5080   43.9680 C   0  0  0  0  0  0  0  0  0  0  0  0
    4.3290   -2.0750   44.0630 C   0  0  0  0  0  0  0  0  0  0  0  0
    4.1300   -3.0220   45.0840 C   0  0  0  0  0  0  0  0  0  0  0  0
    6.4210   -2.8270   45.8140 C   0  0  0  0  0  0  0  0  0  0  0  0
    5.1620   -3.4050   45.9430 C   0  0  0  0  0  0  0  0  0  0  0  0
    7.7060   -3.2790   46.8640 Cl  0  0  0  0  0  0  0  0  0  0  0  0
    4.9260   -4.3260   46.8890 F   0  0  0  0  0  0  0  0  0  0  0  0
    5.8680   -0.5910   43.0220 F   0  0  0  0  0  0  0  0  0  0  0  0
    3.2540   -1.6780   43.1440 C   0  0  0  0  0  0  0  0  0  0  0  0
    3.2260   -0.3920   42.5790 C   0  0  0  0  0  0  0  0  0  0  0  0
    2.2360   -2.5810   42.7960 C   0  0  0  0  0  0  0  0  0  0  0  0
    2.2150   -0.0200   41.6920 C   0  0  0  0  0  0  0  0  0  0  0  0
    1.2080   -2.2180   41.9080 C   0  0  0  0  0  0  0  0  0  0  0  0
    1.2130   -0.9300   41.3540 C   0  0  0  0  0  0  0  0  0  0  0  0
    0.1440   -3.2150   41.5220 C   0  0  0  0  0  0  0  0  0  0  0  0
   -1.1060   -2.6720   41.4760 F   0  0  0  0  0  0  0  0  0  0  0  0
    0.3640   -3.7480   40.2890 F   0  0  0  0  0  0  0  0  0  0  0  0
    0.0580   -4.2720   42.3790 F   0  0  0  0  0  0  0  0  0  0  0  0
    2.8780   -3.6290   45.2480 O   0  0  0  0  0  0  0  0  0  0  0  0
    2.9210   -4.9750   44.9230 C   0  0  0  0  0  0  0  0  0  0  0  0
    3.7540   -5.5250   44.2150 O   0  0  0  0  0  0  0  0  0  0  0  0
    1.8770   -5.5880   45.5390 O   0  0  0  0  0  0  0  0  0  0  0  0
    0.7880   -4.7150   45.8310 C   0  0  0  0  0  0  0  0  0  0  0  0
  1  2  2  0
  1  5  1  0
  2  9  1  0
  2  3  1  0
  3 10  1  0
  3  4  2  0
  4 20  1  0
  4  6  1  0
  5  6  2  0
  5  7  1  0
  6  8  1  0
 10 11  2  0
 10 12  1  0
 11 13  1  0
 12 14  2  0
 13 15  2  0
 14 15  1  0
 14 16  1  0
 16 18  1  0
 16 17  1  0
 16 19  1  0
 20 21  1  0
 21 22  2  0
 21 23  1  0
 23 24  1  0
M  END
>  <vina_dock>  (292) 
-8.612

$$$$
O14757_PocketFlow_idx-in-all-generaetd-75
     RDKit          3D

 22 22  0  0  0  0  0  0  0  0999 V2000
    6.7340   -1.4970   44.6290 C   0  0  0  0  0  0  0  0  0  0  0  0
    5.6260   -1.9560   44.0200 C   0  0  0  0  0  0  0  0  0  0  0  0
    7.1800   -1.7510   46.0410 C   0  0  1  0  0  0  0  0  0  0  0  0
    7.8140   -3.1490   46.1780 C   0  0  0  0  0  0  0  0  0  0  0  0
    7.7660   -3.6690   47.5950 C   0  0  0  0  0  0  0  0  0  0  0  0
    8.7820   -3.6320   48.4830 C   0  0  0  0  0  0  0  0  0  0  0  0
    6.4910   -4.2290   48.0990 C   0  0  0  0  0  0  0  0  0  0  0  0
    6.0150   -4.0870   49.2110 O   0  0  0  0  0  0  0  0  0  0  0  0
    5.8700   -4.9770   47.1700 O   0  0  0  0  0  0  0  0  0  0  0  0
   10.1680   -3.1260   48.2570 C   0  0  0  0  0  0  0  0  0  0  0  0
   10.1560   -1.6740   48.2940 N   0  0  0  0  0  0  0  0  0  0  0  0
    8.1270   -0.7280   46.3370 O   0  0  0  0  0  0  0  0  0  0  0  0
    4.5790   -2.8680   44.5940 C   0  0  0  0  0  0  0  0  0  0  0  0
    3.2820   -2.8180   43.8220 C   0  0  0  0  0  0  0  0  0  0  0  0
    3.1300   -1.9270   42.7490 C   0  0  0  0  0  0  0  0  0  0  0  0
    2.2160   -3.6640   44.1590 C   0  0  0  0  0  0  0  0  0  0  0  0
    1.9330   -1.8750   42.0300 C   0  0  0  0  0  0  0  0  0  0  0  0
    1.0180   -3.6130   43.4410 C   0  0  0  0  0  0  0  0  0  0  0  0
    0.8710   -2.7190   42.3740 C   0  0  0  0  0  0  0  0  0  0  0  0
   -0.4180   -2.7040   41.6420 C   0  0  0  0  0  0  0  0  0  0  0  0
   -1.2130   -1.7820   41.6190 O   0  0  0  0  0  0  0  0  0  0  0  0
   -0.6520   -3.8450   40.9700 O   0  0  0  0  0  0  0  0  0  0  0  0
  1  2  2  3
  1  3  1  0
  2 13  1  0
  3  4  1  0
  3 12  1  6
  4  5  1  0
  5  7  1  0
  5  6  2  3
  6 10  1  0
  7  9  1  0
  7  8  2  0
 10 11  1  0
 13 14  1  0
 14 15  2  0
 14 16  1  0
 15 17  1  0
 16 18  2  0
 17 19  2  0
 18 19  1  0
 19 20  1  0
 20 22  1  0
 20 21  2  0
M  END
>  <vina_dock>  (293) 
-6.94

$$$$
O14757_PocketFlow_idx-in-all-generaetd-217
     RDKit          3D

 35 38  0  0  0  0  0  0  0  0999 V2000
   -0.0950   -5.9010   46.1360 C   0  0  0  0  0  0  0  0  0  0  0  0
    0.4300   -4.7930   45.5790 C   0  0  0  0  0  0  0  0  0  0  0  0
   -0.0570   -7.3140   45.5910 C   0  0  1  0  0  0  0  0  0  0  0  0
    2.3270   -7.8130   45.8070 C   0  0  0  0  0  0  0  0  0  0  0  0
    1.0240   -8.0220   46.2920 N   0  0  0  0  0  0  0  0  0  0  0  0
    2.5860   -7.2280   44.7560 O   0  0  0  0  0  0  0  0  0  0  0  0
    0.6690   -9.1650   47.1560 C   0  0  2  0  0  0  0  0  0  0  0  0
   -1.4330   -7.9820   45.7330 C   0  0  0  0  0  0  0  0  0  0  0  0
    0.6290  -10.4820   46.3690 C   0  0  0  0  0  0  0  0  0  0  0  0
   -0.6130   -8.9110   47.9610 C   0  0  0  0  0  0  0  0  0  0  0  0
   -1.7870   -8.3290   47.1710 C   0  0  0  0  0  0  0  0  0  0  0  0
    3.4810   -8.2900   46.6020 C   0  0  0  0  0  0  0  0  0  0  0  0
    5.4220   -7.7540   47.9740 C   0  0  0  0  0  0  0  0  0  0  0  0
    4.3440   -7.3460   47.1730 C   0  0  0  0  0  0  0  0  0  0  0  0
    5.6000   -9.1320   48.1980 C   0  0  0  0  0  0  0  0  0  0  0  0
    4.7200  -10.0730   47.6580 C   0  0  0  0  0  0  0  0  0  0  0  0
    3.6500   -9.6510   46.8700 C   0  0  0  0  0  0  0  0  0  0  0  0
    6.3340   -6.7700   48.5700 C   0  0  0  0  0  0  0  0  0  0  0  0
    7.5920   -7.1570   49.0550 C   0  0  0  0  0  0  0  0  0  0  0  0
    8.4530   -6.2130   49.6230 C   0  0  0  0  0  0  0  0  0  0  0  0
    9.9880   -6.7160   50.2160 Cl  0  0  0  0  0  0  0  0  0  0  0  0
    8.0810   -4.8750   49.7140 C   0  0  0  0  0  0  0  0  0  0  0  0
    5.9700   -5.4150   48.6680 C   0  0  0  0  0  0  0  0  0  0  0  0
    6.8350   -4.4760   49.2390 C   0  0  0  0  0  0  0  0  0  0  0  0
    1.2210   -4.6930   44.3020 C   0  0  0  0  0  0  0  0  0  0  0  0
    2.5300   -3.9500   44.4640 C   0  0  0  0  0  0  0  0  0  0  0  0
    2.9850   -3.0570   43.4820 C   0  0  0  0  0  0  0  0  0  0  0  0
    3.3490   -4.1990   45.5710 C   0  0  0  0  0  0  0  0  0  0  0  0
    4.2270   -2.4250   43.6120 C   0  0  0  0  0  0  0  0  0  0  0  0
    4.5920   -3.5710   45.6940 C   0  0  0  0  0  0  0  0  0  0  0  0
    5.0580   -2.6900   44.7090 C   0  0  0  0  0  0  0  0  0  0  0  0
    6.4070   -2.0290   44.8870 C   0  0  0  0  0  0  0  0  0  0  0  0
    7.3530   -2.7530   45.8070 C   0  0  0  0  0  0  0  0  0  0  0  0
    8.4830   -2.2680   46.3490 C   0  0  0  0  0  0  0  0  0  0  0  0
    9.0330   -0.8880   46.1890 C   0  0  0  0  0  0  0  0  0  0  0  0
  1  2  2  3
  1  3  1  0
  2 25  1  0
  3  8  1  1
  3  5  1  0
  4  6  2  0
  4  5  1  0
  4 12  1  0
  5  7  1  0
  7  9  1  6
  7 10  1  0
  8 11  1  0
 10 11  1  0
 12 17  1  0
 12 14  2  0
 13 14  1  0
 13 15  2  0
 13 18  1  0
 15 16  1  0
 16 17  2  0
 18 23  1  0
 18 19  2  0
 19 20  1  0
 20 22  2  0
 20 21  1  0
 22 24  1  0
 23 24  2  0
 25 26  1  0
 26 27  2  0
 26 28  1  0
 27 29  1  0
 28 30  2  0
 29 31  2  0
 30 31  1  0
 31 32  1  0
 32 33  1  0
 33 34  2  3
 34 35  1  0
M  END
>  <vina_dock>  (294) 
-8.548

$$$$
O14757_PocketFlow_idx-in-all-generaetd-312
     RDKit          3D

 35 37  0  0  0  0  0  0  0  0999 V2000
    7.3990   -2.9450   45.4140 C   0  0  0  0  0  0  0  0  0  0  0  0
    6.1670   -3.3960   45.1310 C   0  0  0  0  0  0  0  0  0  0  0  0
    7.8900   -2.0890   46.5610 C   0  0  2  0  0  0  0  0  0  0  0  0
    8.8420   -0.9590   46.1510 C   0  0  0  0  0  0  0  0  0  0  0  0
    8.4320   -2.9870   47.6890 C   0  0  0  0  0  0  0  0  0  0  0  0
    8.9020   -4.3660   47.2160 C   0  0  0  0  0  0  0  0  0  0  0  0
   10.4020   -4.3470   46.8970 C   0  0  0  0  0  0  0  0  0  0  0  0
   10.8210   -5.3710   45.8410 C   0  0  0  0  0  0  0  0  0  0  0  0
   10.6170   -6.8150   46.2720 C   0  0  0  0  0  0  0  0  0  0  0  0
    4.8760   -3.2030   45.9020 C   0  0  2  0  0  0  0  0  0  0  0  0
    4.3880   -4.5520   46.5200 C   0  0  2  0  0  0  0  0  0  0  0  0
    5.3070   -5.0930   47.6300 C   0  0  0  0  0  0  0  0  0  0  0  0
    4.1750   -5.6150   45.4150 C   0  0  0  0  0  0  0  0  0  0  0  0
    2.7710   -6.1770   45.3830 C   0  0  0  0  0  0  0  0  0  0  0  0
    1.6990   -5.3990   44.9320 C   0  0  0  0  0  0  0  0  0  0  0  0
    2.5230   -7.4970   45.7860 C   0  0  0  0  0  0  0  0  0  0  0  0
    0.4090   -5.9360   44.8550 C   0  0  0  0  0  0  0  0  0  0  0  0
    1.2330   -8.0300   45.7120 C   0  0  0  0  0  0  0  0  0  0  0  0
    0.1560   -7.2640   45.2360 C   0  0  0  0  0  0  0  0  0  0  0  0
   -1.1910   -7.8450   45.1220 C   0  0  0  0  0  0  0  0  0  0  0  0
   -1.7720   -8.5460   46.1910 C   0  0  0  0  0  0  0  0  0  0  0  0
   -1.9320   -7.7060   43.9380 C   0  0  0  0  0  0  0  0  0  0  0  0
   -3.0470   -9.1100   46.0690 C   0  0  0  0  0  0  0  0  0  0  0  0
   -3.2000   -8.2740   43.8110 C   0  0  0  0  0  0  0  0  0  0  0  0
   -3.7560   -8.9820   44.8740 C   0  0  0  0  0  0  0  0  0  0  0  0
    3.8510   -2.5290   45.0110 C   0  0  0  0  0  0  0  0  0  0  0  0
    3.9300   -2.5020   43.6690 C   0  0  0  0  0  0  0  0  0  0  0  0
    2.9270   -1.8780   42.7940 C   0  0  0  0  0  0  0  0  0  0  0  0
    1.7930   -2.6180   42.4220 C   0  0  0  0  0  0  0  0  0  0  0  0
    3.0330   -0.5500   42.3740 C   0  0  0  0  0  0  0  0  0  0  0  0
    0.7860   -2.0620   41.6160 C   0  0  0  0  0  0  0  0  0  0  0  0
    2.0490    0.0170   41.5650 C   0  0  0  0  0  0  0  0  0  0  0  0
    0.9390   -0.7380   41.1840 C   0  0  0  0  0  0  0  0  0  0  0  0
   -0.3680   -2.9060   41.2530 C   0  0  0  0  0  0  0  0  0  0  0  0
   -1.6410   -2.5070   41.1260 C   0  0  0  0  0  0  0  0  0  0  0  0
  1  2  2  3
  1  3  1  0
 10  2  1  6
  3  4  1  6
  3  5  1  0
  5  6  1  0
  6  7  1  0
  7  8  1  0
  8  9  1  0
 10 26  1  0
 10 11  1  0
 11 13  1  0
 11 12  1  1
 13 14  1  0
 14 15  2  0
 14 16  1  0
 15 17  1  0
 16 18  2  0
 17 19  2  0
 18 19  1  0
 19 20  1  0
 20 22  1  0
 20 21  2  0
 21 23  1  0
 22 24  2  0
 23 25  2  0
 24 25  1  0
 26 27  2  3
 27 28  1  0
 28 30  1  0
 28 29  2  0
 29 31  1  0
 30 32  2  0
 31 33  2  0
 31 34  1  0
 32 33  1  0
 34 35  2  0
M  END
>  <vina_dock>  (295) 
-8.369

$$$$
O14757_PocketFlow_idx-in-all-generaetd-544
     RDKit          3D

 21 23  0  0  0  0  0  0  0  0999 V2000
    2.4340   -6.0180   45.2120 C   0  0  0  0  0  0  0  0  0  0  0  0
    1.2940   -5.4380   44.6470 C   0  0  0  0  0  0  0  0  0  0  0  0
    0.0790   -6.1340   44.6230 C   0  0  0  0  0  0  0  0  0  0  0  0
   -0.0320   -7.4210   45.1710 C   0  0  0  0  0  0  0  0  0  0  0  0
    1.1120   -7.9880   45.7500 C   0  0  0  0  0  0  0  0  0  0  0  0
    2.3290   -7.2940   45.7760 C   0  0  0  0  0  0  0  0  0  0  0  0
    3.7220   -5.3130   45.2860 C   0  0  0  0  0  0  0  0  0  0  0  0
    3.8390   -3.9760   45.3370 C   0  0  0  0  0  0  0  0  0  0  0  0
    5.1270   -3.2710   45.4110 C   0  0  0  0  0  0  0  0  0  0  0  0
    7.5790   -1.9360   45.6600 C   0  0  0  0  0  0  0  0  0  0  0  0
    9.0870   -1.1210   45.8070 Cl  0  0  0  0  0  0  0  0  0  0  0  0
    6.6420   -1.4950   44.7290 C   0  0  0  0  0  0  0  0  0  0  0  0
    7.3000   -3.0310   46.4740 C   0  0  0  0  0  0  0  0  0  0  0  0
    5.4170   -2.1590   44.6100 C   0  0  0  0  0  0  0  0  0  0  0  0
    6.0750   -3.6920   46.3540 C   0  0  0  0  0  0  0  0  0  0  0  0
   -1.3120   -8.1500   45.1440 C   0  0  0  0  0  0  0  0  0  0  0  0
   -2.2860   -7.8670   44.1720 C   0  0  0  0  0  0  0  0  0  0  0  0
   -1.5960   -9.1490   46.0900 C   0  0  0  0  0  0  0  0  0  0  0  0
   -3.4990   -8.5600   44.1440 C   0  0  0  0  0  0  0  0  0  0  0  0
   -2.8090   -9.8410   46.0650 C   0  0  0  0  0  0  0  0  0  0  0  0
   -3.7610   -9.5450   45.0920 C   0  0  0  0  0  0  0  0  0  0  0  0
  1  2  2  0
  1  7  1  0
  1  6  1  0
  2  3  1  0
  3  4  2  0
  4 16  1  0
  4  5  1  0
  5  6  2  0
  7  8  2  3
  8  9  1  0
  9 14  2  0
  9 15  1  0
 10 12  2  0
 10 11  1  0
 10 13  1  0
 12 14  1  0
 13 15  2  0
 16 17  2  0
 16 18  1  0
 17 19  1  0
 18 20  2  0
 19 21  2  0
 20 21  1  0
M  END
>  <vina_dock>  (296) 
-8.495

$$$$
O14757_PocketFlow_idx-in-all-generaetd-490
     RDKit          3D

  8  8  0  0  0  0  0  0  0  0999 V2000
    2.9550   -5.1720   45.3110 N   0  0  0  0  0  0  0  0  0  0  0  0
    4.1180   -4.8770   44.4420 C   0  0  0  0  0  0  0  0  0  0  0  0
    3.8980   -3.4650   43.8820 C   0  0  1  0  0  0  0  0  0  0  0  0
    2.0430   -4.3240   44.9560 C   0  0  0  0  0  0  0  0  0  0  0  0
    2.3840   -3.3550   43.8740 C   0  0  0  0  0  0  0  0  0  0  0  0
    4.5270   -2.4060   44.7610 C   0  0  0  0  0  0  0  0  0  0  0  0
    4.9790   -1.1970   44.3880 C   0  0  0  0  0  0  0  0  0  0  0  0
    4.9470   -0.5860   43.0250 C   0  0  0  0  0  0  0  0  0  0  0  0
  1  2  1  0
  1  4  1  0
  3  2  1  1
  3  5  1  0
  3  6  1  0
  4  5  1  0
  6  7  2  3
  7  8  1  0
M  END
>  <vina_dock>  (297) 
-4.236

$$$$
O14757_PocketFlow_idx-in-all-generaetd-475
     RDKit          3D

 15 15  0  0  0  0  0  0  0  0999 V2000
    1.5810   -5.2500   45.0210 C   0  0  0  0  0  0  0  0  0  0  0  0
    0.3200   -6.0770   44.7830 C   0  0  0  0  0  0  0  0  0  0  0  0
   -0.2990   -6.4720   46.1050 C   0  0  0  0  0  0  0  0  0  0  0  0
   -1.3860   -5.9200   46.5340 N   0  0  0  0  0  0  0  0  0  0  0  0
    0.2870   -7.4340   46.8640 N   0  0  0  0  0  0  0  0  0  0  0  0
    1.4340   -3.7720   44.6340 C   0  0  0  0  0  0  0  0  0  0  0  0
    2.1280   -3.3580   43.3140 C   0  0  2  0  0  0  0  0  0  0  0  0
    3.4160   -2.5730   43.5170 C   0  0  0  0  0  0  0  0  0  0  0  0
    4.3480   -3.0040   44.4740 C   0  0  0  0  0  0  0  0  0  0  0  0
    3.7170   -1.4290   42.7600 C   0  0  0  0  0  0  0  0  0  0  0  0
    5.5360   -2.3010   44.6840 C   0  0  0  0  0  0  0  0  0  0  0  0
    4.9050   -0.7260   42.9710 C   0  0  0  0  0  0  0  0  0  0  0  0
    5.8130   -1.1600   43.9330 C   0  0  0  0  0  0  0  0  0  0  0  0
    1.1570   -2.5790   42.4490 C   0  0  0  0  0  0  0  0  0  0  0  0
    0.1910   -3.1350   41.7030 C   0  0  0  0  0  0  0  0  0  0  0  0
  1  6  1  0
  1  2  1  0
  2  3  1  0
  3  4  2  3
  3  5  1  0
  7  6  1  1
  7 14  1  0
  7  8  1  0
  8 10  2  0
  8  9  1  0
  9 11  2  0
 10 12  1  0
 11 13  1  0
 12 13  2  0
 14 15  2  0
M  END
>  <vina_dock>  (298) 
-6.816

$$$$
O14757_PocketFlow_idx-in-all-generaetd-481
     RDKit          3D

 12 12  0  0  0  0  0  0  0  0999 V2000
    4.5170   -3.1580   44.1840 C   0  0  0  0  0  0  0  0  0  0  0  0
    3.1550   -3.8090   44.2030 C   0  0  0  0  0  0  0  0  0  0  0  0
    2.1580   -3.2430   43.4900 N   0  0  0  0  0  0  0  0  0  0  0  0
    0.9630   -3.8410   43.5220 C   0  0  0  0  0  0  0  0  0  0  0  0
    2.9710   -4.9810   44.9110 C   0  0  0  0  0  0  0  0  0  0  0  0
    0.6940   -4.9770   44.1710 N   0  0  0  0  0  0  0  0  0  0  0  0
    1.7110   -5.5230   44.8600 C   0  0  0  0  0  0  0  0  0  0  0  0
   -0.0550   -3.2720   42.7860 N   0  0  0  0  0  0  0  0  0  0  0  0
    4.6620   -2.0610   43.1310 C   0  0  0  0  0  0  0  0  0  0  0  0
    4.8240   -0.7050   43.7750 C   0  0  0  0  0  0  0  0  0  0  0  0
    4.8420    0.3580   43.1690 O   0  0  0  0  0  0  0  0  0  0  0  0
    4.9500   -0.7430   45.1330 N   0  0  0  0  0  0  0  0  0  0  0  0
  1  9  1  0
  1  2  1  0
  2  3  2  0
  2  5  1  0
  3  4  1  0
  4  8  1  0
  4  6  2  0
  5  7  2  0
  6  7  1  0
  9 10  1  0
 10 11  2  0
 10 12  1  0
M  END
>  <vina_dock>  (299) 
-5.728

$$$$
O14757_PocketFlow_idx-in-all-generaetd-777
     RDKit          3D

 35 39  0  0  0  0  0  0  0  0999 V2000
   -1.3260   -7.3620   47.6360 C   0  0  0  0  0  0  0  0  0  0  0  0
   -0.7560   -6.9850   46.2830 C   0  0  0  0  0  0  0  0  0  0  0  0
    0.8910   -5.7430   44.9550 C   0  0  0  0  0  0  0  0  0  0  0  0
    0.3390   -6.1060   46.1950 C   0  0  0  0  0  0  0  0  0  0  0  0
    0.3230   -6.2870   43.7930 C   0  0  0  0  0  0  0  0  0  0  0  0
   -0.7560   -7.1690   43.8670 C   0  0  0  0  0  0  0  0  0  0  0  0
   -1.2910   -7.5190   45.1060 C   0  0  0  0  0  0  0  0  0  0  0  0
    2.0290   -4.8150   44.8780 C   0  0  0  0  0  0  0  0  0  0  0  0
    8.8470   -1.9000   46.1330 C   0  0  0  0  0  0  0  0  0  0  0  0
    7.7470   -1.6380   45.3280 C   0  0  0  0  0  0  0  0  0  0  0  0
    8.7880   -2.8220   47.1200 N   0  0  0  0  0  0  0  0  0  0  0  0
    6.5470   -2.3420   45.5200 C   0  0  0  0  0  0  0  0  0  0  0  0
    7.6250   -3.4860   47.3000 C   0  0  0  0  0  0  0  0  0  0  0  0
    5.3540   -2.0300   44.6540 C   0  0  0  0  0  0  0  0  0  0  0  0
    6.4820   -3.2930   46.5360 C   0  0  0  0  0  0  0  0  0  0  0  0
    4.2220   -3.0270   44.7390 C   0  0  0  0  0  0  0  0  0  0  0  0
    5.2270   -4.0640   46.8310 C   0  0  0  0  0  0  0  0  0  0  0  0
    3.1920   -2.9740   43.7890 C   0  0  0  0  0  0  0  0  0  0  0  0
    4.1570   -3.9790   45.7680 C   0  0  0  0  0  0  0  0  0  0  0  0
    2.1150   -3.8610   43.8550 C   0  0  0  0  0  0  0  0  0  0  0  0
    3.0590   -4.8560   45.8300 C   0  0  0  0  0  0  0  0  0  0  0  0
   10.0770   -1.2640   46.0140 N   0  0  0  0  0  0  0  0  0  0  0  0
   11.3370   -1.7510   46.1460 C   0  0  0  0  0  0  0  0  0  0  0  0
   12.2840   -1.8390   45.2800 N   0  0  0  0  0  0  0  0  0  0  0  0
   -1.6190   -8.7980   47.7830 N   0  0  0  0  0  0  0  0  0  0  0  0
   -3.0640   -9.0090   47.9430 C   0  0  0  0  0  0  0  0  0  0  0  0
   -3.6420  -10.0710   47.0120 C   0  0  0  0  0  0  0  0  0  0  0  0
   -0.7750   -9.4800   48.7850 C   0  0  0  0  0  0  0  0  0  0  0  0
    0.3060  -10.4850   48.3300 C   0  0  0  0  0  0  0  0  0  0  0  0
    1.6230   -9.8950   47.8880 C   0  0  0  0  0  0  0  0  0  0  0  0
    1.7780   -9.3770   46.5950 C   0  0  0  0  0  0  0  0  0  0  0  0
    2.7060   -9.8330   48.7760 C   0  0  0  0  0  0  0  0  0  0  0  0
    2.9960   -8.8280   46.1920 C   0  0  0  0  0  0  0  0  0  0  0  0
    3.9230   -9.2810   48.3710 C   0  0  0  0  0  0  0  0  0  0  0  0
    4.0690   -8.7810   47.0790 C   0  0  0  0  0  0  0  0  0  0  0  0
  1  2  1  0
  1 25  1  0
  2  7  1  0
  2  4  2  0
  3  5  2  0
  3  8  1  0
  3  4  1  0
  5  6  1  0
  6  7  2  0
  8 20  2  0
  8 21  1  0
  9 10  2  0
  9 22  1  0
  9 11  1  0
 10 12  1  0
 11 13  2  0
 12 14  2  0
 12 15  1  0
 13 15  1  0
 14 16  1  0
 15 17  2  0
 16 18  2  0
 16 19  1  0
 17 19  1  0
 18 20  1  0
 19 21  2  0
 22 23  1  0
 23 24  2  3
 25 26  1  0
 25 28  1  0
 26 27  1  0
 28 29  1  0
 29 30  1  0
 30 31  2  0
 30 32  1  0
 31 33  1  0
 32 34  2  0
 33 35  2  0
 34 35  1  0
M  END
>  <vina_dock>  (300) 
-8.988

$$$$
O14757_PocketFlow_idx-in-all-generaetd-100
     RDKit          3D

 35 37  0  0  0  0  0  0  0  0999 V2000
   10.1730   -2.4750   47.5160 C   0  0  0  0  0  0  0  0  0  0  0  0
   11.2750   -2.6890   47.0340 O   0  0  0  0  0  0  0  0  0  0  0  0
    8.9230   -2.4040   46.7130 C   0  0  0  0  0  0  0  0  0  0  0  0
    6.5800   -2.1760   45.1420 C   0  0  0  0  0  0  0  0  0  0  0  0
    7.5360   -1.1480   45.1680 C   0  0  0  0  0  0  0  0  0  0  0  0
    6.8210   -3.3210   45.9200 C   0  0  0  0  0  0  0  0  0  0  0  0
    8.6950   -1.2580   45.9440 C   0  0  0  0  0  0  0  0  0  0  0  0
    7.9800   -3.4390   46.6970 C   0  0  0  0  0  0  0  0  0  0  0  0
    5.3640   -2.0610   44.3220 C   0  0  0  0  0  0  0  0  0  0  0  0
    3.0240   -1.8420   42.7410 C   0  0  0  0  0  0  0  0  0  0  0  0
    4.0090   -0.8510   42.6920 C   0  0  0  0  0  0  0  0  0  0  0  0
    3.2140   -2.9460   43.5790 C   0  0  0  0  0  0  0  0  0  0  0  0
    5.1630   -0.9590   43.4760 C   0  0  0  0  0  0  0  0  0  0  0  0
    4.3700   -3.0520   44.3590 C   0  0  0  0  0  0  0  0  0  0  0  0
    1.7910   -1.7400   41.8780 C   0  0  0  0  0  0  0  0  0  0  0  0
    0.6890   -2.6720   42.3730 C   0  0  0  0  0  0  0  0  0  0  0  0
   -0.0170   -3.3320   41.2150 C   0  0  0  0  0  0  0  0  0  0  0  0
   -1.1910   -2.7220   40.9430 F   0  0  0  0  0  0  0  0  0  0  0  0
    0.7370   -3.3010   40.0960 F   0  0  0  0  0  0  0  0  0  0  0  0
   -0.2840   -4.6270   41.4940 F   0  0  0  0  0  0  0  0  0  0  0  0
    9.9130   -2.2560   48.8300 O   0  0  0  0  0  0  0  0  0  0  0  0
   10.2180   -3.3740   49.6730 C   0  0  0  0  0  0  0  0  0  0  0  0
    8.9880   -4.2580   49.9340 C   0  0  0  0  0  0  0  0  0  0  0  0
    7.9760   -3.7520   50.4350 O   0  0  0  0  0  0  0  0  0  0  0  0
    9.0540   -5.6250   49.6480 N   0  0  0  0  0  0  0  0  0  0  0  0
   10.1440   -6.3180   48.9270 C   0  0  2  0  0  0  0  0  0  0  0  0
    9.9770   -6.1000   47.4490 C   0  0  0  0  0  0  0  0  0  0  0  0
   10.3720   -7.7300   49.4830 C   0  0  0  0  0  0  0  0  0  0  0  0
   10.1240   -6.9560   46.4280 C   0  0  0  0  0  0  0  0  0  0  0  0
   11.4960   -8.4890   48.7870 C   0  0  0  0  0  0  0  0  0  0  0  0
   10.4850   -8.3510   46.4580 C   0  0  0  0  0  0  0  0  0  0  0  0
   11.1140   -9.0140   47.4380 C   0  0  0  0  0  0  0  0  0  0  0  0
    7.8640   -6.4180   49.9420 C   0  0  0  0  0  0  0  0  0  0  0  0
    6.9970   -6.4600   48.7160 C   0  0  0  0  0  0  0  0  0  0  0  0
    5.8330   -5.8060   48.5980 C   0  0  0  0  0  0  0  0  0  0  0  0
  1  3  1  0
  1  2  2  0
  1 21  1  0
  3  7  2  0
  3  8  1  0
  4  9  1  0
  4  5  2  0
  4  6  1  0
  5  7  1  0
  6  8  2  0
  9 13  2  0
  9 14  1  0
 10 15  1  0
 10 11  2  0
 10 12  1  0
 11 13  1  0
 12 14  2  0
 15 16  1  0
 16 17  1  0
 17 19  1  0
 17 18  1  0
 17 20  1  0
 21 22  1  0
 22 23  1  0
 23 25  1  0
 23 24  2  0
 26 25  1  1
 25 33  1  0
 26 27  1  0
 26 28  1  0
 27 29  2  0
 28 30  1  0
 29 31  1  0
 30 32  1  0
 31 32  2  0
 33 34  1  0
 34 35  2  0
M  END
>  <vina_dock>  (301) 
-7.861

$$$$
O14757_PocketFlow_idx-in-all-generaetd-139
     RDKit          3D

 35 38  0  0  0  0  0  0  0  0999 V2000
    3.4450   -1.0250   42.3770 C   0  0  0  0  0  0  0  0  0  0  0  0
    3.9300   -2.0050   43.4170 C   0  0  0  0  0  0  0  0  0  0  0  0
    5.6390   -2.7330   45.0110 C   0  0  0  0  0  0  0  0  0  0  0  0
    4.8250   -3.8300   45.3370 C   0  0  0  0  0  0  0  0  0  0  0  0
    5.1690   -1.8250   44.0490 C   0  0  0  0  0  0  0  0  0  0  0  0
    3.5720   -4.0230   44.7330 C   0  0  0  0  0  0  0  0  0  0  0  0
    3.1420   -3.1100   43.7630 C   0  0  0  0  0  0  0  0  0  0  0  0
    6.9520   -2.5440   45.6540 C   0  0  0  0  0  0  0  0  0  0  0  0
    8.7270   -3.3420   47.1490 C   0  0  0  0  0  0  0  0  0  0  0  0
    9.4590   -2.1740   46.8940 C   0  0  0  0  0  0  0  0  0  0  0  0
    7.4800   -3.5140   46.5230 C   0  0  0  0  0  0  0  0  0  0  0  0
    8.9540   -1.2020   46.0330 C   0  0  0  0  0  0  0  0  0  0  0  0
    7.7120   -1.3860   45.4210 C   0  0  0  0  0  0  0  0  0  0  0  0
    9.2530   -4.3910   48.1100 C   0  0  2  0  0  0  0  0  0  0  0  0
   10.3640   -3.9500   48.7770 F   0  0  0  0  0  0  0  0  0  0  0  0
    9.5690   -5.7090   47.4740 C   0  0  0  0  0  0  0  0  0  0  0  0
   10.3150   -5.9960   46.4050 C   0  0  0  0  0  0  0  0  0  0  0  0
   10.1960   -7.4450   46.3220 C   0  0  0  0  0  0  0  0  0  0  0  0
    8.9970   -6.9480   48.0800 C   0  0  0  0  0  0  0  0  0  0  0  0
    9.4690   -8.0470   47.2110 N   0  0  0  0  0  0  0  0  0  0  0  0
    2.7380   -5.2340   45.0900 C   0  0  0  0  0  0  0  0  0  0  0  0
    1.5510   -5.3510   44.3030 O   0  0  0  0  0  0  0  0  0  0  0  0
    0.4910   -6.0400   44.8270 C   0  0  0  0  0  0  0  0  0  0  0  0
   -0.2350   -6.7860   43.8940 C   0  0  0  0  0  0  0  0  0  0  0  0
    0.0830   -6.0370   46.1600 C   0  0  0  0  0  0  0  0  0  0  0  0
   -1.3430   -7.5370   44.2910 C   0  0  0  0  0  0  0  0  0  0  0  0
   -1.0300   -6.7890   46.5560 C   0  0  0  0  0  0  0  0  0  0  0  0
   -1.7400   -7.5400   45.6250 C   0  0  0  0  0  0  0  0  0  0  0  0
    2.3380   -1.5470   41.6390 O   0  0  0  0  0  0  0  0  0  0  0  0
    1.2390   -0.6380   41.5660 C   0  0  0  0  0  0  0  0  0  0  0  0
   -0.0310   -1.3630   41.1230 C   0  0  1  0  0  0  0  0  0  0  0  0
   -0.0330   -2.7880   41.6570 C   0  0  0  0  0  0  0  0  0  0  0  0
   -0.0190   -3.7900   40.9550 O   0  0  0  0  0  0  0  0  0  0  0  0
   -0.0320   -2.8860   42.9970 O   0  0  0  0  0  0  0  0  0  0  0  0
   -1.1720   -0.6650   41.6500 O   0  0  0  0  0  0  0  0  0  0  0  0
  1 29  1  0
  1  2  1  0
  2  7  2  0
  2  5  1  0
  3  5  2  0
  3  4  1  0
  3  8  1  0
  4  6  2  0
  6  7  1  0
  6 21  1  0
  8 13  1  0
  8 11  2  0
  9 11  1  0
  9 10  2  0
  9 14  1  0
 10 12  1  0
 12 13  2  0
 14 16  1  0
 14 15  1  6
 16 17  2  0
 16 19  1  0
 17 18  1  0
 18 20  2  0
 19 20  1  0
 21 22  1  0
 22 23  1  0
 23 24  2  0
 23 25  1  0
 24 26  1  0
 25 27  2  0
 26 28  2  0
 27 28  1  0
 29 30  1  0
 30 31  1  0
 31 35  1  1
 31 32  1  0
 32 33  2  0
 32 34  1  0
M  END
>  <vina_dock>  (302) 
-8.888

$$$$
O14757_PocketFlow_idx-in-all-generaetd-146
     RDKit          3D

 27 28  0  0  0  0  0  0  0  0999 V2000
    2.2560   -4.6510   45.7090 C   0  0  1  0  0  0  0  0  0  0  0  0
    1.2310   -4.4950   44.5620 C   0  0  1  0  0  0  0  0  0  0  0  0
    0.4780   -5.8170   44.6620 C   0  0  1  0  0  0  0  0  0  0  0  0
    2.5400   -6.0590   45.8370 O   0  0  0  0  0  0  0  0  0  0  0  0
    1.6050   -6.7900   45.0100 C   0  0  1  0  0  0  0  0  0  0  0  0
    3.5330   -3.8770   45.4570 C   0  0  0  0  0  0  0  0  0  0  0  0
    4.8550   -2.3480   44.0600 C   0  0  0  0  0  0  0  0  0  0  0  0
    5.8610   -2.3570   45.0370 C   0  0  0  0  0  0  0  0  0  0  0  0
    3.6980   -3.1160   44.2880 C   0  0  0  0  0  0  0  0  0  0  0  0
    7.3100   -1.4310   44.8690 Cl  0  0  0  0  0  0  0  0  0  0  0  0
    5.7140   -3.1210   46.1980 C   0  0  0  0  0  0  0  0  0  0  0  0
    4.5580   -3.8740   46.4100 C   0  0  0  0  0  0  0  0  0  0  0  0
    4.9280   -1.5150   42.8010 C   0  0  0  0  0  0  0  0  0  0  0  0
    4.0800   -0.2730   42.8960 C   0  0  0  0  0  0  0  0  0  0  0  0
    2.8800   -0.0370   42.3350 C   0  0  0  0  0  0  0  0  0  0  0  0
    2.0200   -0.9220   41.4890 C   0  0  0  0  0  0  0  0  0  0  0  0
    1.7230   -2.1080   42.0770 F   0  0  0  0  0  0  0  0  0  0  0  0
    0.8280   -0.3150   41.2480 F   0  0  0  0  0  0  0  0  0  0  0  0
    0.3210   -3.3370   44.6840 N   0  0  0  0  0  0  0  0  0  0  0  0
   -0.5110   -5.7280   45.6950 O   0  0  0  0  0  0  0  0  0  0  0  0
    1.1370   -8.0550   45.7340 C   0  0  0  0  0  0  0  0  0  0  0  0
    2.3010   -8.8080   46.3300 C   0  0  0  0  0  0  0  0  0  0  0  0
    2.2910   -9.7510   47.2850 C   0  0  0  0  0  0  0  0  0  0  0  0
    1.1260  -10.2790   47.9610 C   0  0  0  0  0  0  0  0  0  0  0  0
    0.4490   -9.5810   48.8850 C   0  0  0  0  0  0  0  0  0  0  0  0
   -0.7100  -10.1060   49.5690 C   0  0  0  0  0  0  0  0  0  0  0  0
   -1.9600   -9.7240   49.2820 C   0  0  0  0  0  0  0  0  0  0  0  0
  1  2  1  0
  1  6  1  6
  1  4  1  0
  2  3  1  0
  2 19  1  1
  3  5  1  0
  3 20  1  1
  4  5  1  0
  5 21  1  1
  6  9  1  0
  6 12  2  0
  7 13  1  0
  7  9  2  0
  7  8  1  0
  8 10  1  0
  8 11  2  0
 11 12  1  0
 13 14  1  0
 14 15  2  3
 15 16  1  0
 16 18  1  0
 16 17  1  0
 21 22  1  0
 22 23  2  3
 23 24  1  0
 24 25  2  3
 25 26  1  0
 26 27  2  0
M  END
>  <vina_dock>  (303) 
-7.984

$$$$
O14757_PocketFlow_idx-in-all-generaetd-249
     RDKit          3D

 35 38  0  0  0  0  0  0  0  0999 V2000
    3.8990   -2.8830   44.2290 C   0  0  0  0  0  0  0  0  0  0  0  0
    3.4870   -2.0750   43.1590 C   0  0  0  0  0  0  0  0  0  0  0  0
    2.2330   -2.2460   42.5730 C   0  0  0  0  0  0  0  0  0  0  0  0
    3.0090   -3.8710   44.6930 C   0  0  0  0  0  0  0  0  0  0  0  0
    1.7400   -4.0620   44.1170 C   0  0  0  0  0  0  0  0  0  0  0  0
    1.3680   -3.2310   43.0490 C   0  0  0  0  0  0  0  0  0  0  0  0
    5.2230   -2.7060   44.8470 C   0  0  0  0  0  0  0  0  0  0  0  0
    7.7870   -2.3650   46.0440 C   0  0  0  0  0  0  0  0  0  0  0  0
    7.3270   -1.4850   45.0530 C   0  0  0  0  0  0  0  0  0  0  0  0
    6.9430   -3.4170   46.4270 C   0  0  0  0  0  0  0  0  0  0  0  0
    6.0670   -1.6530   44.4650 C   0  0  0  0  0  0  0  0  0  0  0  0
    5.6830   -3.5860   45.8380 C   0  0  0  0  0  0  0  0  0  0  0  0
    9.1110   -2.1880   46.6620 C   0  0  0  0  0  0  0  0  0  0  0  0
   11.2350   -0.9950   46.8420 C   0  0  0  0  0  0  0  0  0  0  0  0
    9.9740   -1.1650   46.2510 C   0  0  0  0  0  0  0  0  0  0  0  0
   11.6920   -1.8530   47.8440 C   0  0  0  0  0  0  0  0  0  0  0  0
   10.8110   -2.8530   48.2780 C   0  0  0  0  0  0  0  0  0  0  0  0
    9.5500   -3.0290   47.6920 C   0  0  0  0  0  0  0  0  0  0  0  0
   12.8990   -1.7050   48.5270 N   0  0  0  0  0  0  0  0  0  0  0  0
   13.2190   -0.5300   49.3090 C   0  0  2  0  0  0  0  0  0  0  0  0
   11.8170   -0.0410   50.2630 Cl  0  0  0  0  0  0  0  0  0  0  0  0
   13.6490    0.4810   48.5140 F   0  0  0  0  0  0  0  0  0  0  0  0
    0.8300   -5.1040   44.6200 C   0  0  0  0  0  0  0  0  0  0  0  0
    0.3570   -6.1210   43.7760 C   0  0  0  0  0  0  0  0  0  0  0  0
    0.4070   -5.1100   45.9580 C   0  0  0  0  0  0  0  0  0  0  0  0
   -0.5090   -7.1110   44.2520 C   0  0  0  0  0  0  0  0  0  0  0  0
   -0.4590   -6.0980   46.4380 C   0  0  0  0  0  0  0  0  0  0  0  0
   -0.9210   -7.1110   45.5900 C   0  0  0  0  0  0  0  0  0  0  0  0
   -1.8740   -8.1650   46.1010 C   0  0  0  0  0  0  0  0  0  0  0  0
   -1.3630   -9.0430   47.2140 C   0  0  0  0  0  0  0  0  0  0  0  0
   -0.3820   -8.7710   48.0950 C   0  0  0  0  0  0  0  0  0  0  0  0
    0.0930   -9.6720   49.1850 C   0  0  0  0  0  0  0  0  0  0  0  0
   -0.9100  -10.4600   49.6440 F   0  0  0  0  0  0  0  0  0  0  0  0
    1.0780  -10.4950   48.7500 F   0  0  0  0  0  0  0  0  0  0  0  0
    0.5850   -8.9930   50.2520 F   0  0  0  0  0  0  0  0  0  0  0  0
  1  2  2  0
  1  4  1  0
  1  7  1  0
  2  3  1  0
  3  6  2  0
  4  5  2  0
  5  6  1  0
  5 23  1  0
  7 11  2  0
  7 12  1  0
  8  9  2  0
  8 10  1  0
  8 13  1  0
  9 11  1  0
 10 12  2  0
 13 15  1  0
 13 18  2  0
 14 15  2  0
 14 16  1  0
 16 17  2  0
 16 19  1  0
 17 18  1  0
 19 20  1  0
 20 22  1  6
 20 21  1  0
 23 24  2  0
 23 25  1  0
 24 26  1  0
 25 27  2  0
 26 28  2  0
 27 28  1  0
 28 29  1  0
 29 30  1  0
 30 31  2  3
 31 32  1  0
 32 34  1  0
 32 33  1  0
 32 35  1  0
M  END
>  <vina_dock>  (304) 
-9.217

$$$$
O14757_PocketFlow_idx-in-all-generaetd-511
     RDKit          3D

 35 38  0  0  0  0  0  0  0  0999 V2000
    5.9050   -3.0350   45.5130 C   0  0  0  0  0  0  0  0  0  0  0  0
    5.4420   -2.1740   44.5110 C   0  0  0  0  0  0  0  0  0  0  0  0
    4.1150   -2.2250   44.0710 C   0  0  0  0  0  0  0  0  0  0  0  0
    3.2060   -3.1450   44.6180 C   0  0  0  0  0  0  0  0  0  0  0  0
    3.6620   -3.9960   45.6330 C   0  0  0  0  0  0  0  0  0  0  0  0
    4.9920   -3.9430   46.0700 C   0  0  0  0  0  0  0  0  0  0  0  0
    7.3030   -2.9850   45.9710 C   0  0  0  0  0  0  0  0  0  0  0  0
   10.0070   -2.8840   46.8250 C   0  0  0  0  0  0  0  0  0  0  0  0
    9.2730   -4.0830   46.8890 C   0  0  0  0  0  0  0  0  0  0  0  0
    9.3710   -1.7140   46.3560 C   0  0  0  0  0  0  0  0  0  0  0  0
    9.9800   -5.5630   47.4500 Cl  0  0  0  0  0  0  0  0  0  0  0  0
    7.9370   -4.1260   46.4780 C   0  0  0  0  0  0  0  0  0  0  0  0
    8.0450   -1.7950   45.9000 C   0  0  0  0  0  0  0  0  0  0  0  0
   11.4140   -2.8390   47.2560 C   0  0  0  0  0  0  0  0  0  0  0  0
   11.8720   -2.6520   48.5060 C   0  0  0  0  0  0  0  0  0  0  0  0
   11.1530   -2.4560   49.8210 C   0  0  1  0  0  0  0  0  0  0  0  0
   10.3330   -1.1600   49.8120 C   0  0  0  0  0  0  0  0  0  0  0  0
    9.0170   -1.4540   49.6210 F   0  0  0  0  0  0  0  0  0  0  0  0
   10.3320   -3.5710   50.1520 O   0  0  0  0  0  0  0  0  0  0  0  0
   10.0790   -0.5200   46.1340 N   0  0  0  0  0  0  0  0  0  0  0  0
    1.7680   -3.1560   44.1030 C   0  0  1  0  0  0  0  0  0  0  0  0
    1.6270   -2.8580   42.5920 C   0  0  0  0  0  0  0  0  0  0  0  0
    0.4660   -2.0620   42.3400 O   0  0  0  0  0  0  0  0  0  0  0  0
    1.0260   -4.4390   44.4760 C   0  0  0  0  0  0  0  0  0  0  0  0
    0.6740   -5.4000   43.5170 C   0  0  0  0  0  0  0  0  0  0  0  0
    0.6590   -4.6680   45.8110 C   0  0  0  0  0  0  0  0  0  0  0  0
   -0.0190   -6.5580   43.8840 C   0  0  0  0  0  0  0  0  0  0  0  0
   -0.0300   -5.8280   46.1770 C   0  0  0  0  0  0  0  0  0  0  0  0
   -0.3810   -6.7930   45.2200 C   0  0  0  0  0  0  0  0  0  0  0  0
   -1.1110   -8.0100   45.6060 C   0  0  0  0  0  0  0  0  0  0  0  0
   -0.5540   -8.9320   46.5090 C   0  0  0  0  0  0  0  0  0  0  0  0
   -2.3880   -8.2830   45.0860 C   0  0  0  0  0  0  0  0  0  0  0  0
   -1.2480  -10.0880   46.8780 C   0  0  0  0  0  0  0  0  0  0  0  0
   -3.0840   -9.4370   45.4560 C   0  0  0  0  0  0  0  0  0  0  0  0
   -2.5130  -10.3380   46.3530 C   0  0  0  0  0  0  0  0  0  0  0  0
  1  2  2  0
  1  7  1  0
  1  6  1  0
  2  3  1  0
  3  4  2  0
  4 21  1  0
  4  5  1  0
  5  6  2  0
  7 13  2  0
  7 12  1  0
  8 10  2  0
  8  9  1  0
  8 14  1  0
  9 12  2  0
  9 11  1  0
 10 13  1  0
 10 20  1  0
 14 15  2  3
 15 16  1  0
 16 17  1  0
 16 19  1  6
 17 18  1  0
 21 22  1  6
 21 24  1  0
 22 23  1  0
 24 25  2  0
 24 26  1  0
 25 27  1  0
 26 28  2  0
 27 29  2  0
 28 29  1  0
 29 30  1  0
 30 32  1  0
 30 31  2  0
 31 33  1  0
 32 34  2  0
 33 35  2  0
 34 35  1  0
M  END
>  <vina_dock>  (305) 
-8.92

$$$$
O14757_PocketFlow_idx-in-all-generaetd-472
     RDKit          3D

 21 23  0  0  0  0  0  0  0  0999 V2000
    3.2190   -2.9360   43.8820 C   0  0  0  0  0  0  0  0  0  0  0  0
    2.6720   -2.2740   42.7720 C   0  0  0  0  0  0  0  0  0  0  0  0
    2.4460   -3.9310   44.5080 C   0  0  0  0  0  0  0  0  0  0  0  0
    1.1580   -4.2540   44.0560 C   0  0  0  0  0  0  0  0  0  0  0  0
    0.6460   -3.5840   42.9390 C   0  0  0  0  0  0  0  0  0  0  0  0
    1.3970   -2.5960   42.3030 C   0  0  0  0  0  0  0  0  0  0  0  0
    4.5660   -2.6020   44.3760 C   0  0  0  0  0  0  0  0  0  0  0  0
    6.4790   -3.0880   45.8170 C   0  0  0  0  0  0  0  0  0  0  0  0
    7.1320   -1.9660   45.3220 C   0  0  0  0  0  0  0  0  0  0  0  0
    5.2000   -3.4030   45.3430 C   0  0  0  0  0  0  0  0  0  0  0  0
    6.5310   -1.1580   44.3670 C   0  0  0  0  0  0  0  0  0  0  0  0
    5.2530   -1.4750   43.8970 C   0  0  0  0  0  0  0  0  0  0  0  0
    8.3780   -1.6210   45.7540 O   0  0  0  0  0  0  0  0  0  0  0  0
    0.4140   -5.3250   44.7360 C   0  0  0  0  0  0  0  0  0  0  0  0
   -0.0280   -6.4330   44.1210 C   0  0  0  0  0  0  0  0  0  0  0  0
   -0.7710   -7.5040   44.7990 C   0  0  0  0  0  0  0  0  0  0  0  0
   -2.0520   -7.8360   44.3390 C   0  0  0  0  0  0  0  0  0  0  0  0
   -0.2660   -8.1670   45.9250 C   0  0  0  0  0  0  0  0  0  0  0  0
   -2.8020   -8.8290   44.9740 C   0  0  0  0  0  0  0  0  0  0  0  0
   -1.0160   -9.1610   46.5610 C   0  0  0  0  0  0  0  0  0  0  0  0
   -2.2820   -9.4930   46.0830 C   0  0  0  0  0  0  0  0  0  0  0  0
  1  2  2  0
  1  7  1  0
  1  3  1  0
  2  6  1  0
  3  4  2  0
  4  5  1  0
  4 14  1  0
  5  6  2  0
  7 12  1  0
  7 10  2  0
  8  9  2  0
  8 10  1  0
  9 11  1  0
  9 13  1  0
 11 12  2  0
 14 15  2  3
 15 16  1  0
 16 17  2  0
 16 18  1  0
 17 19  1  0
 18 20  2  0
 19 21  2  0
 20 21  1  0
M  END
>  <vina_dock>  (306) 
-9.362

$$$$
O14757_PocketFlow_idx-in-all-generaetd-598
     RDKit          3D

 35 36  0  0  0  0  0  0  0  0999 V2000
    8.0990   -2.1610   46.3850 C   0  0  0  0  0  0  0  0  0  0  0  0
    6.9740   -2.4350   45.6920 C   0  0  0  0  0  0  0  0  0  0  0  0
    6.4100   -1.5370   44.6210 C   0  0  0  0  0  0  0  0  0  0  0  0
    9.0250   -0.9900   46.2300 C   0  0  0  0  0  0  0  0  0  0  0  0
   10.4430   -1.4470   46.0450 C   0  0  0  0  0  0  0  0  0  0  0  0
   11.2820   -1.9770   46.9610 C   0  0  0  0  0  0  0  0  0  0  0  0
   10.9440   -2.1960   48.4210 C   0  0  0  0  0  0  0  0  0  0  0  0
   11.0500   -3.6520   48.9020 C   0  0  0  0  0  0  0  0  0  0  0  0
   10.0380   -4.0720   49.9760 C   0  0  0  0  0  0  0  0  0  0  0  0
    8.7170   -3.3660   49.8550 C   0  0  0  0  0  0  0  0  0  0  0  0
    7.5350   -3.9130   49.5250 C   0  0  0  0  0  0  0  0  0  0  0  0
    7.2300   -5.3480   49.2370 C   0  0  0  0  0  0  0  0  0  0  0  0
    7.8570   -5.7240   48.0880 F   0  0  0  0  0  0  0  0  0  0  0  0
   12.6110   -2.3120   46.5400 C   0  0  0  0  0  0  0  0  0  0  0  0
   13.6840   -2.5990   46.2060 N   0  0  0  0  0  0  0  0  0  0  0  0
    6.2470   -3.6680   46.0030 C   0  0  0  0  0  0  0  0  0  0  0  0
    5.0270   -3.7600   46.5570 C   0  0  0  0  0  0  0  0  0  0  0  0
    4.3900   -5.0310   46.8280 C   0  0  0  0  0  0  0  0  0  0  0  0
    3.7250   -5.7950   45.9470 C   0  0  0  0  0  0  0  0  0  0  0  0
    3.4960   -5.5430   44.4770 C   0  0  0  0  0  0  0  0  0  0  0  0
    2.0550   -5.0510   44.1680 C   0  0  2  0  0  0  0  0  0  0  0  0
    2.0170   -3.7270   43.4040 C   0  0  0  0  0  0  0  0  0  0  0  0
    3.1330   -2.8760   43.4550 C   0  0  0  0  0  0  0  0  0  0  0  0
    0.9070   -3.3210   42.6480 C   0  0  0  0  0  0  0  0  0  0  0  0
    3.1410   -1.6580   42.7720 C   0  0  0  0  0  0  0  0  0  0  0  0
    0.9150   -2.1020   41.9650 C   0  0  0  0  0  0  0  0  0  0  0  0
    2.0300   -1.2700   42.0280 C   0  0  0  0  0  0  0  0  0  0  0  0
    1.1660   -5.0720   45.4560 C   0  0  1  0  0  0  0  0  0  0  0  0
    0.6320   -3.7020   45.8980 C   0  0  0  0  0  0  0  0  0  0  0  0
    0.0800   -6.1430   45.3880 C   0  0  0  0  0  0  0  0  0  0  0  0
   -0.4800   -6.6280   46.5830 C   0  0  0  0  0  0  0  0  0  0  0  0
   -0.3640   -6.6910   44.1760 C   0  0  0  0  0  0  0  0  0  0  0  0
   -1.4640   -7.6190   46.5630 C   0  0  0  0  0  0  0  0  0  0  0  0
   -1.3470   -7.6830   44.1570 C   0  0  0  0  0  0  0  0  0  0  0  0
   -1.8980   -8.1440   45.3490 C   0  0  0  0  0  0  0  0  0  0  0  0
  1  2  2  3
  1  4  1  0
  2  3  1  0
  2 16  1  0
  4  5  1  0
  5  6  2  3
  6 14  1  0
  6  7  1  0
  7  8  1  0
  8  9  1  0
  9 10  1  0
 10 11  2  3
 11 12  1  0
 12 13  1  0
 14 15  3  0
 16 17  2  3
 17 18  1  0
 18 19  2  3
 19 20  1  0
 21 20  1  1
 21 22  1  0
 21 28  1  0
 22 24  1  0
 22 23  2  0
 23 25  1  0
 24 26  2  0
 25 27  2  0
 26 27  1  0
 28 30  1  0
 28 29  1  6
 30 32  1  0
 30 31  2  0
 31 33  1  0
 32 34  2  0
 33 35  2  0
 34 35  1  0
M  END
>  <vina_dock>  (307) 
-7.168

$$$$
O14757_PocketFlow_idx-in-all-generaetd-382
     RDKit          3D

 35 36  0  0  0  0  0  0  0  0999 V2000
    6.0900   -3.1600   46.1760 C   0  0  0  0  0  0  0  0  0  0  0  0
    7.0360   -3.6990   46.9730 C   0  0  0  0  0  0  0  0  0  0  0  0
    6.3780   -2.2820   44.9740 C   0  0  0  0  0  0  0  0  0  0  0  0
    5.4750   -1.0800   44.9290 C   0  0  0  0  0  0  0  0  0  0  0  0
    4.6610   -0.7010   43.9300 C   0  0  0  0  0  0  0  0  0  0  0  0
    4.4190   -1.4060   42.6230 C   0  0  0  0  0  0  0  0  0  0  0  0
    3.0070   -1.9300   42.5120 C   0  0  0  0  0  0  0  0  0  0  0  0
    1.2600   -3.4820   43.2200 C   0  0  0  0  0  0  0  0  0  0  0  0
    2.5760   -3.0010   43.3090 C   0  0  0  0  0  0  0  0  0  0  0  0
    0.3780   -2.8840   42.3120 C   0  0  0  0  0  0  0  0  0  0  0  0
    0.7950   -1.8150   41.5200 C   0  0  0  0  0  0  0  0  0  0  0  0
    2.1010   -1.3380   41.6220 C   0  0  0  0  0  0  0  0  0  0  0  0
    0.8100   -4.6420   44.0750 C   0  0  0  0  0  0  0  0  0  0  0  0
    0.5080   -4.2710   45.5060 C   0  0  0  0  0  0  0  0  0  0  0  0
    0.7390   -4.9040   46.5230 O   0  0  0  0  0  0  0  0  0  0  0  0
   -0.1060   -3.0700   45.5910 O   0  0  0  0  0  0  0  0  0  0  0  0
    4.6230   -3.4240   46.4620 C   0  0  0  0  0  0  0  0  0  0  0  0
    4.2080   -4.8750   46.4790 C   0  0  0  0  0  0  0  0  0  0  0  0
    3.8350   -5.6340   45.4360 C   0  0  0  0  0  0  0  0  0  0  0  0
    3.4560   -7.0220   45.5760 C   0  0  0  0  0  0  0  0  0  0  0  0
    3.9100   -7.8060   46.5690 C   0  0  0  0  0  0  0  0  0  0  0  0
    3.5940   -9.2640   46.8030 C   0  0  1  0  0  0  0  0  0  0  0  0
    3.3870   -9.5380   48.2920 C   0  0  0  0  0  0  0  0  0  0  0  0
    2.3900   -9.6420   46.0820 N   0  0  0  0  0  0  0  0  0  0  0  0
    1.1380   -9.7580   46.6350 C   0  0  0  0  0  0  0  0  0  0  0  0
    0.0290   -9.0450   46.3940 C   0  0  0  0  0  0  0  0  0  0  0  0
   -0.0850   -7.9610   45.4440 C   0  0  0  0  0  0  0  0  0  0  0  0
   -1.1910   -7.6020   44.7720 C   0  0  0  0  0  0  0  0  0  0  0  0
   -2.5580   -8.2010   44.8350 C   0  0  0  0  0  0  0  0  0  0  0  0
    8.4780   -3.5200   46.8090 C   0  0  0  0  0  0  0  0  0  0  0  0
    9.0590   -2.2580   46.9740 C   0  0  0  0  0  0  0  0  0  0  0  0
    9.2860   -4.6140   46.4810 C   0  0  0  0  0  0  0  0  0  0  0  0
   10.4350   -2.0930   46.8120 C   0  0  0  0  0  0  0  0  0  0  0  0
   10.6620   -4.4470   46.3200 C   0  0  0  0  0  0  0  0  0  0  0  0
   11.2360   -3.1870   46.4850 C   0  0  0  0  0  0  0  0  0  0  0  0
  1  3  1  0
  1 17  1  0
  1  2  2  3
  2 30  1  0
  3  4  1  0
  4  5  2  3
  5  6  1  0
  6  7  1  0
  7 12  1  0
  7  9  2  0
  8 10  2  0
  8  9  1  0
  8 13  1  0
 10 11  1  0
 11 12  2  0
 13 14  1  0
 14 16  1  0
 14 15  2  0
 17 18  1  0
 18 19  2  3
 19 20  1  0
 20 21  2  3
 21 22  1  0
 22 24  1  0
 22 23  1  1
 24 25  1  0
 25 26  2  3
 26 27  1  0
 27 28  2  3
 28 29  1  0
 30 32  1  0
 30 31  2  0
 31 33  1  0
 32 34  2  0
 33 35  2  0
 34 35  1  0
M  END
>  <vina_dock>  (308) 
-8.084

$$$$
O14757_PocketFlow_idx-in-all-generaetd-35
     RDKit          3D

 33 36  0  0  0  0  0  0  0  0999 V2000
    3.1980   -3.6580   44.7420 C   0  0  0  0  0  0  0  0  0  0  0  0
    2.7150   -4.6360   45.5480 N   0  0  0  0  0  0  0  0  0  0  0  0
    1.5060   -5.1670   45.2840 C   0  0  0  0  0  0  0  0  0  0  0  0
    0.7090   -4.7020   44.2490 C   0  0  0  0  0  0  0  0  0  0  0  0
    1.1910   -3.7020   43.4030 C   0  0  0  0  0  0  0  0  0  0  0  0
    2.4560   -3.1670   43.6680 C   0  0  0  0  0  0  0  0  0  0  0  0
    4.5460   -3.1630   45.0920 C   0  0  0  0  0  0  0  0  0  0  0  0
    6.5240   -3.2690   46.5520 C   0  0  0  0  0  0  0  0  0  0  0  0
    5.2370   -3.7000   46.1980 C   0  0  0  0  0  0  0  0  0  0  0  0
    7.1520   -2.2980   45.7680 C   0  0  0  0  0  0  0  0  0  0  0  0
    6.4950   -1.7510   44.6690 C   0  0  0  0  0  0  0  0  0  0  0  0
    5.2070   -2.1770   44.3370 C   0  0  0  0  0  0  0  0  0  0  0  0
    7.2500   -3.8560   47.6830 C   0  0  2  0  0  0  0  0  0  0  0  0
    9.2170   -5.0120   48.6950 C   0  0  0  0  0  0  0  0  0  0  0  0
    8.4660   -4.4120   47.6270 C   0  0  0  0  0  0  0  0  0  0  0  0
   10.3490   -5.4590   48.1330 C   0  0  0  0  0  0  0  0  0  0  0  0
    9.3520   -4.6020   46.4610 C   0  0  0  0  0  0  0  0  0  0  0  0
   10.4570   -5.2230   46.7740 N   0  0  0  0  0  0  0  0  0  0  0  0
    6.5840   -3.8760   48.8640 F   0  0  0  0  0  0  0  0  0  0  0  0
    1.1180   -6.1780   46.1520 N   0  0  0  0  0  0  0  0  0  0  0  0
    0.8170   -7.4860   45.5910 C   0  0  0  0  0  0  0  0  0  0  0  0
   -0.6340   -7.8800   45.7470 C   0  0  0  0  0  0  0  0  0  0  0  0
   -1.4940   -7.8500   44.6370 C   0  0  0  0  0  0  0  0  0  0  0  0
   -1.1450   -8.2800   46.9900 C   0  0  0  0  0  0  0  0  0  0  0  0
   -2.8430   -8.2130   44.7540 C   0  0  0  0  0  0  0  0  0  0  0  0
   -2.4900   -8.6300   47.1180 C   0  0  0  0  0  0  0  0  0  0  0  0
   -3.7530   -8.1350   43.5620 C   0  0  0  0  0  0  0  0  0  0  0  0
   -3.3380   -8.5890   46.0060 C   0  0  0  0  0  0  0  0  0  0  0  0
    0.3590   -3.1900   42.2560 C   0  0  0  0  0  0  0  0  0  0  0  0
    0.2810   -1.7680   42.3380 O   0  0  0  0  0  0  0  0  0  0  0  0
    0.8460   -1.0910   41.2110 C   0  0  0  0  0  0  0  0  0  0  0  0
    1.4920   -2.0750   40.2400 C   0  0  0  0  0  0  0  0  0  0  0  0
    1.8870   -0.1150   41.7520 C   0  0  0  0  0  0  0  0  0  0  0  0
  1  6  1  0
  1  7  1  0
  1  2  2  0
  2  3  1  0
  3  4  2  0
  3 20  1  0
  4  5  1  0
  5 29  1  0
  5  6  2  0
  7 12  1  0
  7  9  2  0
  8 10  2  0
  8  9  1  0
  8 13  1  0
 10 11  1  0
 11 12  2  0
 13 15  1  0
 13 19  1  6
 14 15  2  0
 14 16  1  0
 15 17  1  0
 16 18  1  0
 17 18  2  0
 20 21  1  0
 21 22  1  0
 22 23  2  0
 22 24  1  0
 23 25  1  0
 24 26  2  0
 25 27  1  0
 25 28  2  0
 26 28  1  0
 29 30  1  0
 30 31  1  0
 31 32  1  0
 31 33  1  0
M  END
>  <vina_dock>  (309) 
-9.821

$$$$
O14757_PocketFlow_idx-in-all-generaetd-815
     RDKit          3D

 35 38  0  0  0  0  0  0  0  0999 V2000
    8.3500   -3.1670   46.1010 C   0  0  0  0  0  0  0  0  0  0  0  0
    7.0300   -2.7870   45.4630 C   0  0  0  0  0  0  0  0  0  0  0  0
    4.6780   -3.3010   44.9940 C   0  0  0  0  0  0  0  0  0  0  0  0
    4.5630   -2.0630   44.3420 C   0  0  0  0  0  0  0  0  0  0  0  0
    5.9190   -3.6440   45.5570 C   0  0  0  0  0  0  0  0  0  0  0  0
    5.6560   -1.1980   44.2510 C   0  0  0  0  0  0  0  0  0  0  0  0
    6.8820   -1.5570   44.8100 C   0  0  0  0  0  0  0  0  0  0  0  0
    3.5350   -4.2230   45.0800 C   0  0  0  0  0  0  0  0  0  0  0  0
    1.3260   -6.0160   45.2510 C   0  0  0  0  0  0  0  0  0  0  0  0
    2.5650   -6.4350   44.7390 C   0  0  0  0  0  0  0  0  0  0  0  0
    1.2170   -4.6790   45.6720 C   0  0  0  0  0  0  0  0  0  0  0  0
    3.6490   -5.5540   44.6550 C   0  0  0  0  0  0  0  0  0  0  0  0
    2.3000   -3.7950   45.5880 C   0  0  0  0  0  0  0  0  0  0  0  0
    0.2030   -6.9690   45.3210 C   0  0  0  0  0  0  0  0  0  0  0  0
   -1.9460   -8.7640   45.4770 C   0  0  0  0  0  0  0  0  0  0  0  0
   -2.9710   -9.6220   45.5510 F   0  0  0  0  0  0  0  0  0  0  0  0
   -1.8060   -7.9570   44.3550 C   0  0  0  0  0  0  0  0  0  0  0  0
   -1.0340   -8.6950   46.5230 C   0  0  0  0  0  0  0  0  0  0  0  0
   -0.7370   -7.0640   44.2790 C   0  0  0  0  0  0  0  0  0  0  0  0
    0.0360   -7.8010   46.4450 C   0  0  0  0  0  0  0  0  0  0  0  0
    0.0200   -4.2240   46.1610 O   0  0  0  0  0  0  0  0  0  0  0  0
    8.5540   -2.5510   47.4890 C   0  0  0  0  0  0  0  0  0  0  0  0
    8.7600   -1.3420   47.6240 O   0  0  0  0  0  0  0  0  0  0  0  0
    8.5810   -3.4350   48.5740 N   0  0  0  0  0  0  0  0  0  0  0  0
    9.0910   -2.9120   49.8390 C   0  0  0  0  0  0  0  0  0  0  0  0
    7.7720   -4.6100   48.6560 C   0  0  0  0  0  0  0  0  0  0  0  0
    8.3340   -5.8690   48.4070 C   0  0  0  0  0  0  0  0  0  0  0  0
    6.4200   -4.5400   49.0220 C   0  0  0  0  0  0  0  0  0  0  0  0
    7.5650   -7.0430   48.5020 C   0  0  0  0  0  0  0  0  0  0  0  0
    5.6450   -5.6960   49.1180 C   0  0  0  0  0  0  0  0  0  0  0  0
    6.2120   -6.9430   48.8560 C   0  0  0  0  0  0  0  0  0  0  0  0
    8.1720   -8.3870   48.1810 C   0  0  0  0  0  0  0  0  0  0  0  0
    8.5900   -9.0580   49.2910 F   0  0  0  0  0  0  0  0  0  0  0  0
    9.2590   -8.3040   47.3630 F   0  0  0  0  0  0  0  0  0  0  0  0
    7.2930   -9.2140   47.5520 F   0  0  0  0  0  0  0  0  0  0  0  0
  1  2  1  0
  1 22  1  0
  2  7  1  0
  2  5  2  0
  3  4  2  0
  3  8  1  0
  3  5  1  0
  4  6  1  0
  6  7  2  0
  8 12  2  0
  8 13  1  0
  9 10  2  0
  9 14  1  0
  9 11  1  0
 10 12  1  0
 11 13  2  0
 11 21  1  0
 14 19  2  0
 14 20  1  0
 15 17  2  0
 15 16  1  0
 15 18  1  0
 17 19  1  0
 18 20  2  0
 22 23  2  0
 22 24  1  0
 24 26  1  0
 24 25  1  0
 26 27  2  0
 26 28  1  0
 27 29  1  0
 28 30  2  0
 29 32  1  0
 29 31  2  0
 30 31  1  0
 32 34  1  0
 32 35  1  0
 32 33  1  0
M  END
>  <vina_dock>  (310) 
-9.439

$$$$
O14757_PocketFlow_idx-in-all-generaetd-922
     RDKit          3D

 20 22  0  0  0  0  0  0  0  0999 V2000
    0.3630   -6.0640   44.0610 C   0  0  0  0  0  0  0  0  0  0  0  0
    0.7450   -4.8460   44.4830 C   0  0  0  0  0  0  0  0  0  0  0  0
   -0.1050   -7.2140   44.9240 C   0  0  0  0  0  0  0  0  0  0  0  0
   -1.5460   -7.6990   44.7890 C   0  0  0  0  0  0  0  0  0  0  0  0
   -1.7170   -8.8930   45.4050 F   0  0  0  0  0  0  0  0  0  0  0  0
   -1.8820   -7.8600   43.4870 F   0  0  0  0  0  0  0  0  0  0  0  0
    1.1810   -3.7510   43.5890 C   0  0  0  0  0  0  0  0  0  0  0  0
    2.4560   -3.1730   43.7590 C   0  0  0  0  0  0  0  0  0  0  0  0
    0.3430   -3.3350   42.5370 C   0  0  0  0  0  0  0  0  0  0  0  0
    3.2860   -3.5770   44.7500 N   0  0  0  0  0  0  0  0  0  0  0  0
    2.8430   -2.1510   42.8660 C   0  0  0  0  0  0  0  0  0  0  0  0
    0.7420   -2.3270   41.6660 C   0  0  0  0  0  0  0  0  0  0  0  0
    4.4940   -3.0080   44.8990 C   0  0  0  0  0  0  0  0  0  0  0  0
    4.1030   -1.5620   43.0290 C   0  0  0  0  0  0  0  0  0  0  0  0
    1.9870   -1.7330   41.8330 C   0  0  0  0  0  0  0  0  0  0  0  0
    5.3280   -3.4380   45.9230 C   0  0  0  0  0  0  0  0  0  0  0  0
    4.9530   -1.9850   44.0540 C   0  0  0  0  0  0  0  0  0  0  0  0
    6.5940   -2.8800   46.1230 C   0  0  0  0  0  0  0  0  0  0  0  0
    6.2270   -1.4190   44.2490 C   0  0  0  0  0  0  0  0  0  0  0  0
    7.0450   -1.8680   45.2840 C   0  0  0  0  0  0  0  0  0  0  0  0
  1  2  2  3
  1  3  1  0
  2  7  1  0
  3  4  1  0
  4  6  1  0
  4  5  1  0
  7  9  2  0
  7  8  1  0
  8 11  2  0
  8 10  1  0
  9 12  1  0
 10 13  2  0
 11 15  1  0
 11 14  1  0
 12 15  2  0
 13 17  1  0
 13 16  1  0
 14 17  2  0
 16 18  2  0
 17 19  1  0
 18 20  1  0
 19 20  2  0
M  END
>  <vina_dock>  (311) 
-9.485

$$$$
O14757_PocketFlow_idx-in-all-generaetd-617
     RDKit          3D

 10 10  0  0  0  0  0  0  0  0999 V2000
    2.7080   -3.4120   43.8520 C   0  0  0  0  0  0  0  0  0  0  0  0
    1.8000   -2.8600   43.0300 C   0  0  0  0  0  0  0  0  0  0  0  0
    4.0200   -2.8150   44.1400 C   0  0  0  0  0  0  0  0  0  0  0  0
    5.6160   -1.0250   43.7460 C   0  0  0  0  0  0  0  0  0  0  0  0
    6.4800   -1.5770   44.6890 C   0  0  0  0  0  0  0  0  0  0  0  0
    4.3900   -1.6380   43.4770 C   0  0  0  0  0  0  0  0  0  0  0  0
    6.1170   -2.7380   45.3670 C   0  0  0  0  0  0  0  0  0  0  0  0
    4.8910   -3.3520   45.0980 C   0  0  0  0  0  0  0  0  0  0  0  0
    0.4370   -3.4010   42.6900 C   0  0  0  0  0  0  0  0  0  0  0  0
   -0.0060   -3.2840   41.2370 C   0  0  0  0  0  0  0  0  0  0  0  0
  1  2  2  3
  1  3  1  0
  2  9  1  0
  3  6  2  0
  3  8  1  0
  4  6  1  0
  4  5  2  0
  5  7  1  0
  7  8  2  0
  9 10  1  0
M  END
>  <vina_dock>  (312) 
-5.867

$$$$
O14757_PocketFlow_idx-in-all-generaetd-566
     RDKit          3D

 28 31  0  0  0  0  0  0  0  0999 V2000
    8.7410   -2.8910   47.6010 C   0  0  0  0  0  0  0  0  0  0  0  0
    7.6460   -2.6540   46.5840 C   0  0  0  0  0  0  0  0  0  0  0  0
    1.0790   -3.1950   42.8780 C   0  0  0  0  0  0  0  0  0  0  0  0
    2.2850   -2.4900   42.8200 C   0  0  0  0  0  0  0  0  0  0  0  0
    0.8780   -4.1370   43.8920 C   0  0  0  0  0  0  0  0  0  0  0  0
    3.2850   -2.7280   43.7750 C   0  0  0  0  0  0  0  0  0  0  0  0
    1.8740   -4.3720   44.8430 C   0  0  0  0  0  0  0  0  0  0  0  0
    4.5530   -1.9670   43.6940 C   0  0  0  0  0  0  0  0  0  0  0  0
    3.0890   -3.6690   44.7940 C   0  0  0  0  0  0  0  0  0  0  0  0
    5.6090   -2.2170   44.7010 C   0  0  0  0  0  0  0  0  0  0  0  0
    4.7240   -1.1420   42.8040 O   0  0  0  0  0  0  0  0  0  0  0  0
    4.1390   -3.9510   45.8360 C   0  0  0  0  0  0  0  0  0  0  0  0
    6.8100   -1.5010   44.6220 C   0  0  0  0  0  0  0  0  0  0  0  0
    5.4110   -3.1540   45.7180 C   0  0  0  0  0  0  0  0  0  0  0  0
    7.8210   -1.7180   45.5580 C   0  0  0  0  0  0  0  0  0  0  0  0
    6.4360   -3.3630   46.6570 C   0  0  0  0  0  0  0  0  0  0  0  0
   -0.0090   -2.9820   41.8940 C   0  0  0  0  0  0  0  0  0  0  0  0
   -0.5260   -1.9140   41.6280 O   0  0  0  0  0  0  0  0  0  0  0  0
   -0.3960   -4.1180   41.2900 O   0  0  0  0  0  0  0  0  0  0  0  0
    9.8190   -3.8440   47.1340 C   0  0  0  0  0  0  0  0  0  0  0  0
    9.4780   -5.0570   46.5170 C   0  0  0  0  0  0  0  0  0  0  0  0
   11.1740   -3.5280   47.3080 C   0  0  0  0  0  0  0  0  0  0  0  0
   10.4730   -5.9380   46.0860 C   0  0  0  0  0  0  0  0  0  0  0  0
   12.1710   -4.4070   46.8770 C   0  0  0  0  0  0  0  0  0  0  0  0
   11.8230   -5.6170   46.2650 C   0  0  0  0  0  0  0  0  0  0  0  0
   12.8450   -6.5830   45.7920 C   0  0  0  0  0  0  0  0  0  0  0  0
   14.0450   -6.3880   45.7480 O   0  0  0  0  0  0  0  0  0  0  0  0
   12.3140   -7.7530   45.3950 O   0  0  0  0  0  0  0  0  0  0  0  0
  1  2  1  0
  1 20  1  0
  2 15  2  0
  2 16  1  0
  3 17  1  0
  3  4  2  0
  3  5  1  0
  4  6  1  0
  5  7  2  0
  6  8  1  0
  6  9  2  0
  7  9  1  0
  8 11  2  0
  8 10  1  0
  9 12  1  0
 10 13  2  0
 10 14  1  0
 12 14  1  0
 13 15  1  0
 14 16  2  0
 17 19  1  0
 17 18  2  0
 20 21  2  0
 20 22  1  0
 21 23  1  0
 22 24  2  0
 23 25  2  0
 24 25  1  0
 25 26  1  0
 26 28  1  0
 26 27  2  0
M  END
>  <vina_dock>  (313) 
-9.444

$$$$
O14757_PocketFlow_idx-in-all-generaetd-281
     RDKit          3D

  6  6  0  0  0  0  0  0  0  0999 V2000
    4.0720   -1.0110   42.7640 C   0  0  0  0  0  0  0  0  0  0  0  0
    5.2740   -0.5310   43.2840 C   0  0  0  0  0  0  0  0  0  0  0  0
    3.5740   -2.2450   43.1820 C   0  0  0  0  0  0  0  0  0  0  0  0
    5.9770   -1.2850   44.2240 C   0  0  0  0  0  0  0  0  0  0  0  0
    5.4790   -2.5190   44.6420 C   0  0  0  0  0  0  0  0  0  0  0  0
    4.2770   -2.9990   44.1220 C   0  0  0  0  0  0  0  0  0  0  0  0
  1  3  2  0
  1  2  1  0
  2  4  2  0
  3  6  1  0
  4  5  1  0
  5  6  2  0
M  END
>  <vina_dock>  (314) 
-3.974

$$$$
O14757_PocketFlow_idx-in-all-generaetd-180
     RDKit          3D

 35 42  0  0  0  0  0  0  0  0999 V2000
   10.7950   -8.7360   49.0700 C   0  0  0  0  0  0  0  0  0  0  0  0
    9.3370   -8.4570   49.1940 C   0  0  0  0  0  0  0  0  0  0  0  0
   11.5810   -9.4200   49.9050 C   0  0  0  0  0  0  0  0  0  0  0  0
   12.9720   -9.4850   49.3820 C   0  0  1  0  0  0  0  0  0  0  0  0
   12.9180   -8.8780   48.0340 N   0  0  0  0  0  0  0  0  0  0  0  0
   11.5680   -8.2590   47.8850 C   0  0  2  0  0  0  0  0  0  0  0  0
   11.7020   -6.7280   47.8000 C   0  0  0  0  0  0  0  0  0  0  0  0
   10.4070   -6.0170   47.4920 C   0  0  0  0  0  0  0  0  0  0  0  0
   10.3670   -5.0070   46.5090 C   0  0  0  0  0  0  0  0  0  0  0  0
    9.2250   -4.2030   46.3250 C   0  0  0  0  0  0  0  0  0  0  0  0
    8.0730   -4.4330   47.0830 C   0  0  0  0  0  0  0  0  0  0  0  0
    8.0920   -5.5220   47.9450 C   0  0  0  0  0  0  0  0  0  0  0  0
    9.2530   -6.2330   48.2360 C   0  0  0  0  0  0  0  0  0  0  0  0
    9.1190   -7.0300   49.4030 N   0  0  0  0  0  0  0  0  0  0  0  0
    6.9260   -3.4330   47.1810 C   0  0  2  0  0  0  0  0  0  0  0  0
   13.9570   -8.7260   50.2610 C   0  0  0  0  0  0  0  0  0  0  0  0
    7.7990   -6.5940   49.9560 C   0  0  0  0  0  0  0  0  0  0  0  0
    6.9520   -5.9980   48.7950 C   0  0  2  0  0  0  0  0  0  0  0  0
    6.1570   -7.1290   48.1150 C   0  0  0  0  0  0  0  0  0  0  0  0
    6.0020   -4.8580   49.0950 C   0  0  0  0  0  0  0  0  0  0  0  0
    5.9630   -3.7410   48.3380 C   0  0  0  0  0  0  0  0  0  0  0  0
    6.1970   -3.1620   45.8650 C   0  0  0  0  0  0  0  0  0  0  0  0
    5.0400   -3.7490   45.4600 C   0  0  0  0  0  0  0  0  0  0  0  0
    6.7930   -2.1500   44.9930 C   0  0  0  0  0  0  0  0  0  0  0  0
    4.4290   -3.3730   44.0880 C   0  0  0  0  0  0  0  0  0  0  0  0
    4.3050   -4.7470   46.2290 C   0  0  0  0  0  0  0  0  0  0  0  0
    6.1150   -1.5400   44.0100 C   0  0  0  0  0  0  0  0  0  0  0  0
    2.9450   -3.6920   43.9700 C   0  0  0  0  0  0  0  0  0  0  0  0
    4.7490   -1.9220   43.6900 C   0  0  0  0  0  0  0  0  0  0  0  0
    3.0420   -5.0920   45.9360 C   0  0  0  0  0  0  0  0  0  0  0  0
    2.3170   -4.4900   44.8480 C   0  0  0  0  0  0  0  0  0  0  0  0
    2.2590   -3.0750   42.7870 C   0  0  0  0  0  0  0  0  0  0  0  0
    3.8600   -1.0950   43.0890 C   0  0  0  0  0  0  0  0  0  0  0  0
    2.4510   -1.5580   42.7670 C   0  0  0  0  0  0  0  0  0  0  0  0
    4.1110    0.3450   42.7220 C   0  0  0  0  0  0  0  0  0  0  0  0
  1  6  1  0
  1  2  1  0
  1  3  2  0
  2 14  1  0
  3  4  1  0
  4  5  1  0
  4 16  1  1
  5  6  1  0
  6  7  1  1
  7  8  1  0
  8  9  2  0
  8 13  1  0
  9 10  1  0
 10 11  2  0
 11 15  1  0
 11 12  1  0
 12 13  2  0
 12 18  1  0
 13 14  1  0
 14 17  1  0
 15 22  1  6
 15 21  1  0
 17 18  1  0
 18 19  1  6
 18 20  1  0
 20 21  2  0
 22 24  2  0
 22 23  1  0
 23 25  2  0
 23 26  1  0
 24 27  1  0
 25 29  1  0
 25 28  1  0
 26 30  2  0
 27 29  2  0
 28 32  1  0
 28 31  2  0
 29 33  1  0
 30 31  1  0
 32 34  1  0
 33 35  1  0
 33 34  1  0
M  END
>  <vina_dock>  (315) 
-9.029

$$$$
O14757_PocketFlow_idx-in-all-generaetd-896
     RDKit          3D

 17 18  0  0  0  0  0  0  0  0999 V2000
    3.3180   -3.2520   44.3050 C   0  0  0  0  0  0  0  0  0  0  0  0
    2.7280   -2.6290   43.1940 C   0  0  0  0  0  0  0  0  0  0  0  0
    2.5760   -4.2380   44.9810 C   0  0  0  0  0  0  0  0  0  0  0  0
    1.2800   -4.5910   44.5750 C   0  0  0  0  0  0  0  0  0  0  0  0
    1.4460   -2.9810   42.7690 C   0  0  0  0  0  0  0  0  0  0  0  0
    0.7300   -3.9620   43.4530 C   0  0  0  0  0  0  0  0  0  0  0  0
    4.6730   -2.8870   44.7470 C   0  0  0  0  0  0  0  0  0  0  0  0
    6.6150   -1.4130   44.6440 C   0  0  0  0  0  0  0  0  0  0  0  0
    7.2710   -2.1900   45.5970 C   0  0  0  0  0  0  0  0  0  0  0  0
    5.3280   -1.7590   44.2240 C   0  0  0  0  0  0  0  0  0  0  0  0
    6.6390   -3.3120   46.1290 C   0  0  0  0  0  0  0  0  0  0  0  0
    5.3520   -3.6570   45.7070 C   0  0  0  0  0  0  0  0  0  0  0  0
    0.5070   -5.6420   45.2520 C   0  0  0  0  0  0  0  0  0  0  0  0
    0.0790   -6.7620   44.6480 C   0  0  0  0  0  0  0  0  0  0  0  0
   -0.6750   -7.7800   45.3440 C   0  0  0  0  0  0  0  0  0  0  0  0
   -1.8670   -8.2810   44.9840 C   0  0  0  0  0  0  0  0  0  0  0  0
   -2.7080   -7.9260   43.8000 C   0  0  0  0  0  0  0  0  0  0  0  0
  1  2  2  0
  1  7  1  0
  1  3  1  0
  2  5  1  0
  3  4  2  0
  4  6  1  0
  4 13  1  0
  5  6  2  0
  7 10  1  0
  7 12  2  0
  8 10  2  0
  8  9  1  0
  9 11  2  0
 11 12  1  0
 13 14  2  3
 14 15  1  0
 15 16  2  3
 16 17  1  0
M  END
>  <vina_dock>  (316) 
-8.113

$$$$
O14757_PocketFlow_idx-in-all-generaetd-239
     RDKit          3D

 25 28  0  0  0  0  0  0  0  0999 V2000
   -1.6020   -1.6800   41.3640 C   0  0  0  0  0  0  0  0  0  0  0  0
   -0.7910   -2.8600   41.3470 O   0  0  0  0  0  0  0  0  0  0  0  0
    0.3860   -2.8270   42.0400 C   0  0  0  0  0  0  0  0  0  0  0  0
    0.7350   -3.6710   43.0890 C   0  0  0  0  0  0  0  0  0  0  0  0
    1.3070   -1.8860   41.6000 C   0  0  0  0  0  0  0  0  0  0  0  0
    1.9860   -3.5640   43.7270 C   0  0  0  0  0  0  0  0  0  0  0  0
    2.5530   -1.7660   42.2250 C   0  0  0  0  0  0  0  0  0  0  0  0
    2.2970   -4.4270   44.7800 C   0  0  0  0  0  0  0  0  0  0  0  0
    2.9330   -2.5940   43.3090 C   0  0  0  0  0  0  0  0  0  0  0  0
    3.5240   -4.3460   45.4340 C   0  0  0  0  0  0  0  0  0  0  0  0
    4.2010   -2.5090   43.9860 C   0  0  0  0  0  0  0  0  0  0  0  0
    4.4770   -3.3990   45.0540 C   0  0  0  0  0  0  0  0  0  0  0  0
    5.2200   -1.5820   43.6590 C   0  0  0  0  0  0  0  0  0  0  0  0
    5.7070   -3.3400   45.7370 C   0  0  0  0  0  0  0  0  0  0  0  0
    6.4390   -1.5370   44.3460 C   0  0  0  0  0  0  0  0  0  0  0  0
    6.7040   -2.4150   45.3980 C   0  0  0  0  0  0  0  0  0  0  0  0
    7.9830   -2.3720   46.1250 C   0  0  0  0  0  0  0  0  0  0  0  0
    8.7740   -1.2110   46.1290 C   0  0  0  0  0  0  0  0  0  0  0  0
    8.4480   -3.4900   46.8360 C   0  0  0  0  0  0  0  0  0  0  0  0
    9.9890   -1.1700   46.8180 C   0  0  0  0  0  0  0  0  0  0  0  0
    9.6630   -3.4500   47.5260 C   0  0  0  0  0  0  0  0  0  0  0  0
   10.4330   -2.2900   47.5170 C   0  0  0  0  0  0  0  0  0  0  0  0
   -2.8110   -1.8790   40.5040 C   0  0  0  0  0  0  0  0  0  0  0  0
   -3.7160   -0.9570   40.1550 C   0  0  0  0  0  0  0  0  0  0  0  0
   -3.7610    0.3680   40.4840 N   0  0  0  0  0  0  0  0  0  0  0  0
  1 23  1  0
  1  2  1  0
  2  3  1  0
  3  5  2  0
  3  4  1  0
  4  6  2  0
  5  7  1  0
  6  9  1  0
  6  8  1  0
  7  9  2  0
  8 10  2  0
  9 11  1  0
 10 12  1  0
 11 13  2  0
 11 12  1  0
 12 14  2  0
 13 15  1  0
 14 16  1  0
 15 16  2  0
 16 17  1  0
 17 18  2  0
 17 19  1  0
 18 20  1  0
 19 21  2  0
 20 22  2  0
 21 22  1  0
 23 24  2  3
 24 25  1  0
M  END
>  <vina_dock>  (317) 
-9.604

$$$$
O14757_PocketFlow_idx-in-all-generaetd-151
     RDKit          3D

 20 22  0  0  0  0  0  0  0  0999 V2000
    3.9930   -2.0800   43.3970 C   0  0  0  0  0  0  0  0  0  0  0  0
    4.9120   -2.8900   44.0740 C   0  0  0  0  0  0  0  0  0  0  0  0
    2.6590   -2.5100   43.2940 C   0  0  0  0  0  0  0  0  0  0  0  0
    2.2390   -3.7260   43.8600 C   0  0  0  0  0  0  0  0  0  0  0  0
    3.1770   -4.5310   44.5420 C   0  0  0  0  0  0  0  0  0  0  0  0
    4.5080   -4.1000   44.6420 C   0  0  0  0  0  0  0  0  0  0  0  0
    0.9080   -4.1580   43.7630 C   0  0  0  0  0  0  0  0  0  0  0  0
    0.5050   -5.3690   44.3320 C   0  0  0  0  0  0  0  0  0  0  0  0
    1.4240   -6.1740   45.0120 C   0  0  0  0  0  0  0  0  0  0  0  0
    2.7580   -5.7480   45.1090 C   0  0  0  0  0  0  0  0  0  0  0  0
    4.4310   -0.7820   42.7600 C   0  0  1  0  0  0  0  0  0  0  0  0
    3.3800    0.0200   42.4400 F   0  0  0  0  0  0  0  0  0  0  0  0
    5.2650   -0.0090   43.6630 N   0  0  0  0  0  0  0  0  0  0  0  0
    0.9910   -7.4900   45.6220 C   0  0  0  0  0  0  0  0  0  0  0  0
   -0.4770   -7.8050   45.4430 C   0  0  0  0  0  0  0  0  0  0  0  0
   -1.2300   -8.3140   46.5100 C   0  0  0  0  0  0  0  0  0  0  0  0
   -1.1060   -7.6020   44.2060 C   0  0  0  0  0  0  0  0  0  0  0  0
   -2.5850   -8.6110   46.3440 C   0  0  0  0  0  0  0  0  0  0  0  0
   -2.4600   -7.8970   44.0420 C   0  0  0  0  0  0  0  0  0  0  0  0
   -3.1990   -8.4010   45.1100 C   0  0  0  0  0  0  0  0  0  0  0  0
  1 11  1  0
  1  3  2  0
  1  2  1  0
  2  6  2  0
  3  4  1  0
  4  7  2  0
  4  5  1  0
  5  6  1  0
  5 10  2  0
  7  8  1  0
  8  9  2  0
  9 10  1  0
  9 14  1  0
 11 12  1  0
 11 13  1  1
 14 15  1  0
 15 17  1  0
 15 16  2  0
 16 18  1  0
 17 19  2  0
 18 20  2  0
 19 20  1  0
M  END
>  <vina_dock>  (318) 
-8.892

$$$$
O14757_PocketFlow_idx-in-all-generaetd-570
     RDKit          3D

 20 21  0  0  0  0  0  0  0  0999 V2000
    4.5020   -4.2170   44.7990 C   0  0  0  0  0  0  0  0  0  0  0  0
    4.4160   -2.8730   44.1120 C   0  0  0  0  0  0  0  0  0  0  0  0
    3.2830   -1.3440   42.5920 C   0  0  0  0  0  0  0  0  0  0  0  0
    4.2740   -0.3840   42.8200 C   0  0  0  0  0  0  0  0  0  0  0  0
    3.3560   -2.5860   43.2370 C   0  0  0  0  0  0  0  0  0  0  0  0
    5.3320   -0.6620   43.6840 C   0  0  0  0  0  0  0  0  0  0  0  0
    5.4030   -1.9000   44.3250 C   0  0  0  0  0  0  0  0  0  0  0  0
    2.1790   -1.0060   41.6610 C   0  0  0  0  0  0  0  0  0  0  0  0
    1.5340   -1.7970   40.9990 O   0  0  0  0  0  0  0  0  0  0  0  0
    1.9310    0.3150   41.6010 O   0  0  0  0  0  0  0  0  0  0  0  0
    3.1590   -4.8800   45.0030 C   0  0  0  0  0  0  0  0  0  0  0  0
    2.9230   -6.1770   44.5300 C   0  0  0  0  0  0  0  0  0  0  0  0
    2.1200   -4.2000   45.6510 C   0  0  0  0  0  0  0  0  0  0  0  0
    1.6770   -6.7850   44.7130 C   0  0  0  0  0  0  0  0  0  0  0  0
    0.8760   -4.8100   45.8340 C   0  0  0  0  0  0  0  0  0  0  0  0
    0.6450   -6.1140   45.3790 C   0  0  0  0  0  0  0  0  0  0  0  0
   -0.6590   -6.7760   45.5230 C   0  0  0  0  0  0  0  0  0  0  0  0
   -1.2360   -7.5110   44.5590 C   0  0  0  0  0  0  0  0  0  0  0  0
   -2.5220   -8.1460   44.7270 C   0  0  0  0  0  0  0  0  0  0  0  0
   -3.4370   -8.2070   43.7530 C   0  0  0  0  0  0  0  0  0  0  0  0
  1  2  1  0
  1 11  1  0
  2  5  2  0
  2  7  1  0
  3  8  1  0
  3  4  2  0
  3  5  1  0
  4  6  1  0
  6  7  2  0
  8  9  2  0
  8 10  1  0
 11 12  2  0
 11 13  1  0
 12 14  1  0
 13 15  2  0
 14 16  2  0
 15 16  1  0
 16 17  1  0
 17 18  2  3
 18 19  1  0
 19 20  2  0
M  END
>  <vina_dock>  (319) 
-8.437

$$$$
O14757_PocketFlow_idx-in-all-generaetd-24
     RDKit          3D

 10 10  0  0  0  0  0  0  0  0999 V2000
    2.4170   -2.9910   43.2790 C   0  0  0  0  0  0  0  0  0  0  0  0
    1.9560   -2.0600   42.1930 C   0  0  0  0  0  0  0  0  0  0  0  0
    0.9230   -2.2200   41.3500 C   0  0  0  0  0  0  0  0  0  0  0  0
   -0.0190   -3.3760   41.2660 C   0  0  0  0  0  0  0  0  0  0  0  0
    3.7700   -2.6040   43.8290 C   0  0  0  0  0  0  0  0  0  0  0  0
    4.3710   -3.3540   44.8480 C   0  0  0  0  0  0  0  0  0  0  0  0
    4.4340   -1.4680   43.3390 C   0  0  0  0  0  0  0  0  0  0  0  0
    5.6170   -2.9830   45.3580 C   0  0  0  0  0  0  0  0  0  0  0  0
    5.6780   -1.1000   43.8510 C   0  0  0  0  0  0  0  0  0  0  0  0
    6.2710   -1.8580   44.8590 C   0  0  0  0  0  0  0  0  0  0  0  0
  1  2  1  0
  1  5  1  0
  2  3  2  3
  3  4  1  0
  5  7  2  0
  5  6  1  0
  6  8  2  0
  7  9  1  0
  8 10  1  0
  9 10  2  0
M  END
>  <vina_dock>  (320) 
-5.794

$$$$
O14757_PocketFlow_idx-in-all-generaetd-157
     RDKit          3D

 30 32  0  0  0  0  0  0  0  0999 V2000
    7.2740   -3.0760   46.5230 C   0  0  0  0  0  0  0  0  0  0  0  0
    6.7690   -3.8150   47.5920 C   0  0  0  0  0  0  0  0  0  0  0  0
    5.5150   -4.4310   47.5070 C   0  0  0  0  0  0  0  0  0  0  0  0
    4.7070   -4.3150   46.3650 C   0  0  0  0  0  0  0  0  0  0  0  0
    5.2440   -3.6170   45.2590 C   0  0  0  0  0  0  0  0  0  0  0  0
    6.5060   -2.9890   45.3600 C   0  0  0  0  0  0  0  0  0  0  0  0
    8.6040   -2.4340   46.6040 C   0  0  0  0  0  0  0  0  0  0  0  0
    9.6310   -3.1360   47.1240 C   0  0  0  0  0  0  0  0  0  0  0  0
    8.6780   -1.0280   46.0750 C   0  0  0  0  0  0  0  0  0  0  0  0
   11.0450   -2.6750   47.3120 C   0  0  0  0  0  0  0  0  0  0  0  0
   11.7980   -2.9330   46.0320 C   0  0  0  0  0  0  0  0  0  0  0  0
   12.2430   -1.9960   45.2610 N   0  0  0  0  0  0  0  0  0  0  0  0
    4.5090   -3.4800   43.9370 C   0  0  0  0  0  0  0  0  0  0  0  0
    4.4130   -2.0440   43.4900 C   0  0  0  0  0  0  0  0  0  0  0  0
    3.4290   -1.4740   42.7740 C   0  0  0  0  0  0  0  0  0  0  0  0
    2.2200   -2.1500   42.3000 C   0  0  0  0  0  0  0  0  0  0  0  0
    1.7900   -2.0180   40.9750 C   0  0  0  0  0  0  0  0  0  0  0  0
    1.4960   -2.9620   43.1790 C   0  0  0  0  0  0  0  0  0  0  0  0
    0.6410   -2.6800   40.5390 C   0  0  0  0  0  0  0  0  0  0  0  0
    0.3510   -3.6270   42.7410 C   0  0  0  0  0  0  0  0  0  0  0  0
   -0.0780   -3.4850   41.4220 C   0  0  0  0  0  0  0  0  0  0  0  0
    3.4750   -4.9680   46.2560 N   0  0  0  0  0  0  0  0  0  0  0  0
    3.3410   -6.3140   45.7010 C   0  0  0  0  0  0  0  0  0  0  0  0
    2.3350   -6.3580   44.5450 C   0  0  0  0  0  0  0  0  0  0  0  0
    1.0580   -7.0550   44.9430 C   0  0  0  0  0  0  0  0  0  0  0  0
   -0.1280   -6.8330   44.2310 C   0  0  0  0  0  0  0  0  0  0  0  0
    1.0490   -7.9560   46.0160 C   0  0  0  0  0  0  0  0  0  0  0  0
   -1.3020   -7.4990   44.5890 C   0  0  0  0  0  0  0  0  0  0  0  0
   -0.1250   -8.6210   46.3720 C   0  0  0  0  0  0  0  0  0  0  0  0
   -1.2990   -8.3930   45.6580 C   0  0  0  0  0  0  0  0  0  0  0  0
  1  6  2  0
  1  7  1  0
  1  2  1  0
  2  3  2  0
  3  4  1  0
  4  5  2  0
  4 22  1  0
  5 13  1  0
  5  6  1  0
  7  9  1  0
  7  8  2  3
  8 10  1  0
 10 11  1  0
 11 12  2  3
 13 14  1  0
 14 15  2  3
 15 16  1  0
 16 17  2  0
 16 18  1  0
 17 19  1  0
 18 20  2  0
 19 21  2  0
 20 21  1  0
 22 23  1  0
 23 24  1  0
 24 25  1  0
 25 26  2  0
 25 27  1  0
 26 28  1  0
 27 29  2  0
 28 30  2  0
 29 30  1  0
M  END
>  <vina_dock>  (321) 
-8.999

$$$$
O14757_PocketFlow_idx-in-all-generaetd-68
     RDKit          3D

 20 22  0  0  0  0  0  0  0  0999 V2000
    1.4760   -2.5690   42.5960 C   0  0  0  0  0  0  0  0  0  0  0  0
    1.5160   -3.5650   43.5700 C   0  0  0  0  0  0  0  0  0  0  0  0
    2.6540   -3.7210   44.3700 C   0  0  0  0  0  0  0  0  0  0  0  0
    3.7930   -2.8950   44.2300 C   0  0  0  0  0  0  0  0  0  0  0  0
    3.7390   -1.8870   43.2370 C   0  0  0  0  0  0  0  0  0  0  0  0
    2.5920   -1.7360   42.4380 C   0  0  0  0  0  0  0  0  0  0  0  0
    4.9720   -3.0260   45.0300 C   0  0  0  0  0  0  0  0  0  0  0  0
    5.0340   -4.1020   46.0920 C   0  0  0  0  0  0  0  0  0  0  0  0
    6.0700   -2.1530   44.8230 C   0  0  0  0  0  0  0  0  0  0  0  0
    5.9780   -1.1680   43.8300 C   0  0  0  0  0  0  0  0  0  0  0  0
    4.8320   -1.0370   43.0490 C   0  0  0  0  0  0  0  0  0  0  0  0
    0.2800   -2.3610   41.7140 C   0  0  0  0  0  0  0  0  0  0  0  0
   -0.4180   -3.7170   40.8550 Cl  0  0  0  0  0  0  0  0  0  0  0  0
   -0.1670   -1.2170   41.6320 O   0  0  0  0  0  0  0  0  0  0  0  0
    7.3130   -2.2280   45.6040 C   0  0  0  0  0  0  0  0  0  0  0  0
    8.1000   -1.0850   45.8090 C   0  0  0  0  0  0  0  0  0  0  0  0
    7.7440   -3.4480   46.1500 C   0  0  0  0  0  0  0  0  0  0  0  0
    9.2840   -1.1570   46.5460 C   0  0  0  0  0  0  0  0  0  0  0  0
    8.9270   -3.5200   46.8870 C   0  0  0  0  0  0  0  0  0  0  0  0
    9.6970   -2.3740   47.0850 C   0  0  0  0  0  0  0  0  0  0  0  0
  1 12  1  0
  1  6  2  0
  1  2  1  0
  2  3  2  0
  3  4  1  0
  4  5  2  0
  4  7  1  0
  5  6  1  0
  5 11  1  0
  7  9  2  0
  7  8  1  0
  9 10  1  0
  9 15  1  0
 10 11  2  0
 12 13  1  0
 12 14  2  0
 15 16  2  0
 15 17  1  0
 16 18  1  0
 17 19  2  0
 18 20  2  0
 19 20  1  0
M  END
>  <vina_dock>  (322) 
-9.71

$$$$
O14757_PocketFlow_idx-in-all-generaetd-348
     RDKit          3D

 35 38  0  0  0  0  0  0  0  0999 V2000
    3.2290   -3.5030   45.0170 C   0  0  0  0  0  0  0  0  0  0  0  0
    3.8240   -2.8680   43.9170 C   0  0  0  0  0  0  0  0  0  0  0  0
    3.0800   -2.4580   42.8040 C   0  0  0  0  0  0  0  0  0  0  0  0
    1.7040   -2.6880   42.7460 C   0  0  0  0  0  0  0  0  0  0  0  0
    1.0970   -3.3450   43.8240 C   0  0  0  0  0  0  0  0  0  0  0  0
    1.8410   -3.7700   44.9480 C   0  0  0  0  0  0  0  0  0  0  0  0
    3.9800   -3.9320   46.1210 N   0  0  0  0  0  0  0  0  0  0  0  0
    5.3170   -3.8040   46.4880 C   0  0  0  0  0  0  0  0  0  0  0  0
    7.9090   -3.6640   47.3520 C   0  0  0  0  0  0  0  0  0  0  0  0
    6.8830   -4.1330   48.1410 C   0  0  0  0  0  0  0  0  0  0  0  0
    7.5190   -3.2760   46.0910 C   0  0  0  0  0  0  0  0  0  0  0  0
    5.6010   -4.2170   47.7350 N   0  0  0  0  0  0  0  0  0  0  0  0
    6.2490   -3.3360   45.6450 N   0  0  0  0  0  0  0  0  0  0  0  0
    9.3320   -3.6020   47.8140 C   0  0  0  0  0  0  0  0  0  0  0  0
   10.2410   -4.6010   47.1480 C   0  0  0  0  0  0  0  0  0  0  0  0
   10.7400   -6.8480   46.3990 C   0  0  0  0  0  0  0  0  0  0  0  0
    9.8760   -5.9490   47.0200 C   0  0  0  0  0  0  0  0  0  0  0  0
   11.9480   -6.3480   45.9260 C   0  0  0  0  0  0  0  0  0  0  0  0
   12.3380   -5.0560   46.0300 N   0  0  0  0  0  0  0  0  0  0  0  0
   11.4780   -4.2150   46.6390 C   0  0  0  0  0  0  0  0  0  0  0  0
   10.5260   -8.1810   46.2010 O   0  0  0  0  0  0  0  0  0  0  0  0
    9.3660   -8.7440   46.8020 C   0  0  0  0  0  0  0  0  0  0  0  0
    1.0840   -4.5060   46.0410 C   0  0  0  0  0  0  0  0  0  0  0  0
    0.2480   -5.6680   45.5520 C   0  0  0  0  0  0  0  0  0  0  0  0
   -0.5550   -6.3860   46.4540 C   0  0  0  0  0  0  0  0  0  0  0  0
    0.2260   -6.0300   44.1990 C   0  0  0  0  0  0  0  0  0  0  0  0
   -1.3550   -7.4600   46.0280 C   0  0  0  0  0  0  0  0  0  0  0  0
   -0.5710   -7.0880   43.7610 C   0  0  0  0  0  0  0  0  0  0  0  0
   -1.3590   -7.7940   44.6690 C   0  0  0  0  0  0  0  0  0  0  0  0
   -2.2170   -8.1820   47.0330 C   0  0  0  0  0  0  0  0  0  0  0  0
   -3.5850   -8.1950   46.6460 O   0  0  0  0  0  0  0  0  0  0  0  0
    0.8890   -2.2300   41.5580 C   0  0  0  0  0  0  0  0  0  0  0  0
   -0.3690   -3.4380   41.1920 Cl  0  0  0  0  0  0  0  0  0  0  0  0
    1.6490   -2.0540   40.4380 F   0  0  0  0  0  0  0  0  0  0  0  0
    0.2770   -1.0290   41.7720 F   0  0  0  0  0  0  0  0  0  0  0  0
  1  2  2  0
  1  6  1  0
  1  7  1  0
  2  3  1  0
  3  4  2  0
  4 32  1  0
  4  5  1  0
  5  6  2  0
  6 23  1  0
  7  8  1  0
  8 13  1  0
  8 12  2  0
  9 11  1  0
  9 14  1  0
  9 10  2  0
 10 12  1  0
 11 13  2  0
 14 15  1  0
 15 20  1  0
 15 17  2  0
 16 18  2  0
 16 21  1  0
 16 17  1  0
 18 19  1  0
 19 20  2  0
 21 22  1  0
 23 24  1  0
 24 26  1  0
 24 25  2  0
 25 27  1  0
 26 28  2  0
 27 29  2  0
 27 30  1  0
 28 29  1  0
 30 31  1  0
 32 34  1  0
 32 33  1  0
 32 35  1  0
M  END
>  <vina_dock>  (323) 
-9.044

$$$$
O14757_PocketFlow_idx-in-all-generaetd-65
     RDKit          3D

  6  5  0  0  0  0  0  0  0  0999 V2000
    5.9050   -0.5950   44.1740 N   0  0  0  0  0  0  0  0  0  0  0  0
    4.7980   -0.5720   43.3610 C   0  0  0  0  0  0  0  0  0  0  0  0
    4.4190    0.4410   42.7850 O   0  0  0  0  0  0  0  0  0  0  0  0
    4.0440   -2.1340   43.2630 Cl  0  0  0  0  0  0  0  0  0  0  0  0
    6.3200   -1.7750   44.8960 C   0  0  0  0  0  0  0  0  0  0  0  0
    7.6960   -1.6000   45.5140 C   0  0  0  0  0  0  0  0  0  0  0  0
  1  2  1  0
  1  5  1  0
  2  3  2  0
  2  4  1  0
  5  6  1  0
M  END
>  <vina_dock>  (324) 
-3.515

$$$$
O14757_PocketFlow_idx-in-all-generaetd-45
     RDKit          3D

 35 39  0  0  0  0  0  0  0  0999 V2000
    1.9220   -5.0000   44.5230 C   0  0  0  0  0  0  0  0  0  0  0  0
    1.9410   -3.8870   43.6630 C   0  0  0  0  0  0  0  0  0  0  0  0
    3.0060   -2.9500   43.6250 C   0  0  0  0  0  0  0  0  0  0  0  0
    3.0110   -1.8270   42.7510 C   0  0  0  0  0  0  0  0  0  0  0  0
    4.1030   -0.9470   42.7520 C   0  0  0  0  0  0  0  0  0  0  0  0
    5.1780   -1.1510   43.6090 C   0  0  0  0  0  0  0  0  0  0  0  0
    4.1080   -3.1550   44.5010 C   0  0  0  0  0  0  0  0  0  0  0  0
    4.0780   -4.2760   45.3630 C   0  0  0  0  0  0  0  0  0  0  0  0
    5.2010   -2.2410   44.4880 C   0  0  0  0  0  0  0  0  0  0  0  0
    3.0120   -5.1770   45.3730 C   0  0  0  0  0  0  0  0  0  0  0  0
    0.7930   -5.9410   44.5230 C   0  0  0  0  0  0  0  0  0  0  0  0
   -0.6810   -7.5190   45.6760 C   0  0  0  0  0  0  0  0  0  0  0  0
   -1.3320   -7.6880   44.4550 C   0  0  0  0  0  0  0  0  0  0  0  0
    0.4010   -6.6240   45.6840 C   0  0  0  0  0  0  0  0  0  0  0  0
   -0.9980   -7.0530   43.3070 N   0  0  0  0  0  0  0  0  0  0  0  0
    0.0490   -6.2000   43.3720 C   0  0  0  0  0  0  0  0  0  0  0  0
   -1.1010   -8.2390   46.8870 C   0  0  0  0  0  0  0  0  0  0  0  0
   -2.8590   -9.1830   48.2950 C   0  0  0  0  0  0  0  0  0  0  0  0
   -1.9030   -9.6150   49.2100 C   0  0  0  0  0  0  0  0  0  0  0  0
   -2.4580   -8.4990   47.1420 C   0  0  0  0  0  0  0  0  0  0  0  0
   -2.3920  -10.4550   50.6280 Cl  0  0  0  0  0  0  0  0  0  0  0  0
   -0.5510   -9.3700   48.9810 C   0  0  0  0  0  0  0  0  0  0  0  0
   -0.1550   -8.6850   47.8270 C   0  0  0  0  0  0  0  0  0  0  0  0
    1.8870   -1.5310   41.7770 C   0  0  0  0  0  0  0  0  0  0  0  0
    1.6760   -0.0360   41.5830 C   0  0  0  0  0  0  0  0  0  0  0  0
    6.3740   -2.3910   45.3650 C   0  0  0  0  0  0  0  0  0  0  0  0
    7.4750   -1.5310   45.2410 C   0  0  0  0  0  0  0  0  0  0  0  0
    6.4100   -3.3910   46.3470 C   0  0  0  0  0  0  0  0  0  0  0  0
    8.5870   -1.6700   46.0750 C   0  0  0  0  0  0  0  0  0  0  0  0
    7.5210   -3.5320   47.1820 C   0  0  0  0  0  0  0  0  0  0  0  0
    8.6190   -2.6680   47.0600 C   0  0  0  0  0  0  0  0  0  0  0  0
    9.8290   -2.8350   47.9470 C   0  0  0  0  0  0  0  0  0  0  0  0
   10.1600   -1.6950   48.6170 F   0  0  0  0  0  0  0  0  0  0  0  0
    9.6460   -3.7900   48.8990 F   0  0  0  0  0  0  0  0  0  0  0  0
   10.9500   -3.1990   47.2620 F   0  0  0  0  0  0  0  0  0  0  0  0
  1  2  2  0
  1 11  1  0
  1 10  1  0
  2  3  1  0
  3  4  2  0
  3  7  1  0
  4 24  1  0
  4  5  1  0
  5  6  2  0
  6  9  1  0
  7  9  2  0
  7  8  1  0
  8 10  2  0
  9 26  1  0
 11 16  1  0
 11 14  2  0
 12 13  2  0
 12 14  1  0
 12 17  1  0
 13 15  1  0
 15 16  2  0
 17 20  1  0
 17 23  2  0
 18 20  2  0
 18 19  1  0
 19 22  2  0
 19 21  1  0
 22 23  1  0
 24 25  1  0
 26 27  2  0
 26 28  1  0
 27 29  1  0
 28 30  2  0
 29 31  2  0
 30 31  1  0
 31 32  1  0
 32 35  1  0
 32 33  1  0
 32 34  1  0
M  END
>  <vina_dock>  (325) 
-11.273

$$$$
O14757_PocketFlow_idx-in-all-generaetd-496
     RDKit          3D

 27 31  0  0  0  0  0  0  0  0999 V2000
    8.5530   -2.4510   46.9110 C   0  0  0  0  0  0  0  0  0  0  0  0
    8.2290   -3.4060   47.8830 C   0  0  0  0  0  0  0  0  0  0  0  0
    7.6480   -2.2230   45.8620 C   0  0  0  0  0  0  0  0  0  0  0  0
    6.4370   -2.9310   45.7760 C   0  0  0  0  0  0  0  0  0  0  0  0
    6.1230   -3.8920   46.7610 C   0  0  0  0  0  0  0  0  0  0  0  0
    7.0280   -4.1180   47.8090 C   0  0  0  0  0  0  0  0  0  0  0  0
    5.5300   -2.7050   44.7310 C   0  0  0  0  0  0  0  0  0  0  0  0
    4.3300   -3.4170   44.6580 C   0  0  0  0  0  0  0  0  0  0  0  0
    4.0000   -4.3770   45.6260 C   0  0  0  0  0  0  0  0  0  0  0  0
    4.9110   -4.6000   46.6720 C   0  0  0  0  0  0  0  0  0  0  0  0
    9.8040   -1.7030   46.9790 C   0  0  0  0  0  0  0  0  0  0  0  0
   10.7400   -1.9180   47.9710 N   0  0  0  0  0  0  0  0  0  0  0  0
   10.1640   -0.7490   46.1020 N   0  0  0  0  0  0  0  0  0  0  0  0
   11.6960   -1.0680   47.6860 C   0  0  0  0  0  0  0  0  0  0  0  0
   11.3600   -0.3700   46.5750 N   0  0  0  0  0  0  0  0  0  0  0  0
    2.7360   -5.1270   45.5480 C   0  0  0  0  0  0  0  0  0  0  0  0
    1.5100   -4.5160   45.8500 C   0  0  0  0  0  0  0  0  0  0  0  0
    2.7180   -6.4770   45.1700 C   0  0  0  0  0  0  0  0  0  0  0  0
    0.3080   -5.2310   45.7760 C   0  0  0  0  0  0  0  0  0  0  0  0
    1.5170   -7.1920   45.0950 C   0  0  0  0  0  0  0  0  0  0  0  0
    0.2910   -6.5820   45.3970 C   0  0  0  0  0  0  0  0  0  0  0  0
   -0.9740   -7.3330   45.3190 C   0  0  0  0  0  0  0  0  0  0  0  0
   -1.5650   -7.8750   46.4730 C   0  0  0  0  0  0  0  0  0  0  0  0
   -1.6260   -7.5270   44.0910 C   0  0  0  0  0  0  0  0  0  0  0  0
   -2.7670   -8.5860   46.4000 C   0  0  0  0  0  0  0  0  0  0  0  0
   -2.8260   -8.2390   44.0150 C   0  0  0  0  0  0  0  0  0  0  0  0
   -3.3960   -8.7680   45.1720 C   0  0  0  0  0  0  0  0  0  0  0  0
  1  3  1  0
  1 11  1  0
  1  2  2  0
  2  6  1  0
  3  4  2  0
  4  7  1  0
  4  5  1  0
  5 10  1  0
  5  6  2  0
  7  8  2  0
  8  9  1  0
  9 16  1  0
  9 10  2  0
 11 13  1  0
 11 12  2  0
 12 14  1  0
 13 15  1  0
 14 15  1  0
 16 18  1  0
 16 17  2  0
 17 19  1  0
 18 20  2  0
 19 21  2  0
 20 21  1  0
 21 22  1  0
 22 24  1  0
 22 23  2  0
 23 25  1  0
 24 26  2  0
 25 27  2  0
 26 27  1  0
M  END
>  <vina_dock>  (326) 
-9.689

$$$$
O14757_PocketFlow_idx-in-all-generaetd-162
     RDKit          3D

 35 38  0  0  0  0  0  0  0  0999 V2000
    1.6410   -8.2850   46.0240 C   0  0  0  0  0  0  0  0  0  0  0  0
    1.5020   -6.9690   45.6250 N   0  0  0  0  0  0  0  0  0  0  0  0
    2.5540   -6.3150   44.8600 C   0  0  0  0  0  0  0  0  0  0  0  0
    1.9720   -4.9320   44.5280 C   0  0  1  0  0  0  0  0  0  0  0  0
    0.5130   -6.0050   46.0900 C   0  0  0  0  0  0  0  0  0  0  0  0
    1.1220   -4.6440   45.7730 C   0  0  0  0  0  0  0  0  0  0  0  0
    2.6400   -8.9570   45.7780 O   0  0  0  0  0  0  0  0  0  0  0  0
    0.5440   -8.9040   46.8000 C   0  0  0  0  0  0  0  0  0  0  0  0
   -1.6850   -9.8510   46.8350 C   0  0  0  0  0  0  0  0  0  0  0  0
   -0.6320   -9.2620   46.1340 C   0  0  0  0  0  0  0  0  0  0  0  0
   -1.5640  -10.0510   48.2120 C   0  0  0  0  0  0  0  0  0  0  0  0
   -0.3980   -9.6660   48.8830 C   0  0  0  0  0  0  0  0  0  0  0  0
    0.6570   -9.0880   48.1800 C   0  0  0  0  0  0  0  0  0  0  0  0
   -2.7710  -10.1670   46.0660 O   0  0  0  0  0  0  0  0  0  0  0  0
   -3.7600   -9.1720   45.8570 C   0  0  0  0  0  0  0  0  0  0  0  0
   -3.5120   -8.2490   44.6720 C   0  0  0  0  0  0  0  0  0  0  0  0
   -3.7180   -8.4670   43.4900 O   0  0  0  0  0  0  0  0  0  0  0  0
   -2.9910   -7.0630   45.0560 O   0  0  0  0  0  0  0  0  0  0  0  0
    2.9250   -3.8060   44.1890 C   0  0  0  0  0  0  0  0  0  0  0  0
    4.1530   -3.6600   44.8670 C   0  0  0  0  0  0  0  0  0  0  0  0
    2.6050   -2.8420   43.2150 C   0  0  0  0  0  0  0  0  0  0  0  0
    5.0610   -2.6230   44.5730 C   0  0  0  0  0  0  0  0  0  0  0  0
    1.1040   -2.8610   42.3530 Cl  0  0  0  0  0  0  0  0  0  0  0  0
    3.4920   -1.8070   42.9090 C   0  0  0  0  0  0  0  0  0  0  0  0
    4.7110   -1.7020   43.5780 C   0  0  0  0  0  0  0  0  0  0  0  0
    6.3420   -2.5100   45.2950 C   0  0  0  0  0  0  0  0  0  0  0  0
    7.1990   -1.4190   45.0800 C   0  0  0  0  0  0  0  0  0  0  0  0
    6.7410   -3.4910   46.2220 C   0  0  0  0  0  0  0  0  0  0  0  0
    8.4090   -1.3070   45.7670 C   0  0  0  0  0  0  0  0  0  0  0  0
    7.9580   -3.3930   46.9170 C   0  0  0  0  0  0  0  0  0  0  0  0
    8.7850   -2.2880   46.6810 C   0  0  0  0  0  0  0  0  0  0  0  0
    8.3690   -4.4550   47.9110 C   0  0  0  0  0  0  0  0  0  0  0  0
    8.9370   -5.6150   47.2240 N   0  0  0  0  0  0  0  0  0  0  0  0
   10.3980   -5.6030   47.2000 C   0  0  0  0  0  0  0  0  0  0  0  0
   10.9730   -5.5040   45.7940 C   0  0  0  0  0  0  0  0  0  0  0  0
  1  2  1  0
  1  7  2  0
  1  8  1  0
  2  3  1  0
  2  5  1  0
  3  4  1  0
  4 19  1  1
  4  6  1  0
  5  6  1  0
  8 10  1  0
  8 13  2  0
  9 14  1  0
  9 10  2  0
  9 11  1  0
 11 12  2  0
 12 13  1  0
 14 15  1  0
 15 16  1  0
 16 17  2  0
 16 18  1  0
 19 21  1  0
 19 20  2  0
 20 22  1  0
 21 23  1  0
 21 24  2  0
 22 25  2  0
 22 26  1  0
 24 25  1  0
 26 27  2  0
 26 28  1  0
 27 29  1  0
 28 30  2  0
 29 31  2  0
 30 31  1  0
 30 32  1  0
 32 33  1  0
 33 34  1  0
 34 35  1  0
M  END
>  <vina_dock>  (327) 
-9.315

$$$$
O14757_PocketFlow_idx-in-all-generaetd-222
     RDKit          3D

 14 15  0  0  0  0  0  0  0  0999 V2000
    0.2250   -5.4480   44.5990 N   0  0  0  0  0  0  0  0  0  0  0  0
    1.0970   -4.4310   44.1640 C   0  0  0  0  0  0  0  0  0  0  0  0
    0.7090   -3.6380   43.0770 C   0  0  0  0  0  0  0  0  0  0  0  0
    2.3620   -4.2090   44.7240 C   0  0  0  0  0  0  0  0  0  0  0  0
    1.5510   -2.6420   42.5720 C   0  0  0  0  0  0  0  0  0  0  0  0
    3.2240   -3.2100   44.2320 C   0  0  0  0  0  0  0  0  0  0  0  0
    2.8120   -2.4190   43.1410 C   0  0  0  0  0  0  0  0  0  0  0  0
    4.4870   -2.9850   44.8060 C   0  0  0  0  0  0  0  0  0  0  0  0
    3.6730   -1.4270   42.6460 C   0  0  0  0  0  0  0  0  0  0  0  0
    5.3380   -1.9840   44.3180 C   0  0  0  0  0  0  0  0  0  0  0  0
    4.9270   -1.2160   43.2260 C   0  0  0  0  0  0  0  0  0  0  0  0
    6.6970   -1.7830   44.9200 C   0  0  0  0  0  0  0  0  0  0  0  0
   -0.0180   -5.8540   45.8780 C   0  0  0  0  0  0  0  0  0  0  0  0
   -1.1260   -5.8950   46.5280 N   0  0  0  0  0  0  0  0  0  0  0  0
  1  2  1  0
  1 13  1  0
  2  3  2  0
  2  4  1  0
  3  5  1  0
  4  6  2  0
  5  7  2  0
  6  7  1  0
  6  8  1  0
  7  9  1  0
  8 10  2  0
  9 11  2  0
 10 11  1  0
 10 12  1  0
 13 14  1  0
M  END
>  <vina_dock>  (328) 
-7.792

$$$$
O14757_PocketFlow_idx-in-all-generaetd-229
     RDKit          3D

 13 14  0  0  0  0  0  0  0  0999 V2000
    6.3510   -2.0360   44.9920 C   0  0  0  0  0  0  0  0  0  0  0  0
    5.9860   -1.0960   44.0240 C   0  0  0  0  0  0  0  0  0  0  0  0
    5.4630   -3.0710   45.2980 C   0  0  0  0  0  0  0  0  0  0  0  0
    4.2410   -3.1780   44.6280 C   0  0  0  0  0  0  0  0  0  0  0  0
    3.8680   -2.2490   43.6440 C   0  0  0  0  0  0  0  0  0  0  0  0
    4.7610   -1.2050   43.3560 C   0  0  0  0  0  0  0  0  0  0  0  0
    7.6490   -1.9010   45.7330 C   0  0  0  0  0  0  0  0  0  0  0  0
    2.5800   -2.3640   42.9400 C   0  0  0  0  0  0  0  0  0  0  0  0
    1.6450   -3.3500   43.2950 C   0  0  0  0  0  0  0  0  0  0  0  0
    2.2490   -1.4900   41.8910 C   0  0  0  0  0  0  0  0  0  0  0  0
    0.4230   -3.4600   42.6270 C   0  0  0  0  0  0  0  0  0  0  0  0
    1.0270   -1.5970   41.2220 C   0  0  0  0  0  0  0  0  0  0  0  0
    0.1140   -2.5820   41.5910 C   0  0  0  0  0  0  0  0  0  0  0  0
  1  2  2  0
  1  3  1  0
  1  7  1  0
  2  6  1  0
  3  4  2  0
  4  5  1  0
  5  8  1  0
  5  6  2  0
  8 10  1  0
  8  9  2  0
  9 11  1  0
 10 12  2  0
 11 13  2  0
 12 13  1  0
M  END
>  <vina_dock>  (329) 
-7.62

$$$$
O14757_PocketFlow_idx-in-all-generaetd-575
     RDKit          3D

 14 15  0  0  0  0  0  0  0  0999 V2000
    1.2690   -2.8340   42.5990 C   0  0  0  0  0  0  0  0  0  0  0  0
    1.4620   -3.7630   43.6230 C   0  0  0  0  0  0  0  0  0  0  0  0
    2.6450   -3.7480   44.3670 C   0  0  0  0  0  0  0  0  0  0  0  0
    3.6490   -2.8050   44.0970 C   0  0  0  0  0  0  0  0  0  0  0  0
    4.8440   -2.7780   44.8370 C   0  0  0  0  0  0  0  0  0  0  0  0
    5.8440   -1.8330   44.5680 C   0  0  0  0  0  0  0  0  0  0  0  0
    5.6450   -0.9110   43.5360 C   0  0  0  0  0  0  0  0  0  0  0  0
    4.4630   -0.9250   42.7920 C   0  0  0  0  0  0  0  0  0  0  0  0
    3.4570   -1.8640   43.0600 C   0  0  0  0  0  0  0  0  0  0  0  0
    2.2640   -1.8890   42.3200 C   0  0  0  0  0  0  0  0  0  0  0  0
    0.0570   -2.8470   41.8350 C   0  0  0  0  0  0  0  0  0  0  0  0
   -0.9260   -2.8570   41.2170 N   0  0  0  0  0  0  0  0  0  0  0  0
    7.1270   -1.8310   45.3590 C   0  0  0  0  0  0  0  0  0  0  0  0
    7.3330   -3.1390   46.1060 C   0  0  0  0  0  0  0  0  0  0  0  0
  1 11  1  0
  1 10  2  0
  1  2  1  0
  2  3  2  0
  3  4  1  0
  4  9  2  0
  4  5  1  0
  5  6  2  0
  6  7  1  0
  6 13  1  0
  7  8  2  0
  8  9  1  0
  9 10  1  0
 11 12  3  0
 13 14  1  0
M  END
>  <vina_dock>  (330) 
-7.471

$$$$
O14757_PocketFlow_idx-in-all-generaetd-234
     RDKit          3D

 14 15  0  0  0  0  0  0  0  0999 V2000
    2.2830   -3.0340   43.4970 C   0  0  0  0  0  0  0  0  0  0  0  0
    2.9750   -2.0170   42.7970 C   0  0  0  0  0  0  0  0  0  0  0  0
    0.9840   -3.3650   43.0790 C   0  0  0  0  0  0  0  0  0  0  0  0
    0.4000   -2.7370   41.9800 C   0  0  0  0  0  0  0  0  0  0  0  0
    4.2740   -1.6630   43.1990 C   0  0  0  0  0  0  0  0  0  0  0  0
    4.8880   -2.3010   44.2820 C   0  0  0  0  0  0  0  0  0  0  0  0
    4.2090   -3.3030   44.9780 C   0  0  0  0  0  0  0  0  0  0  0  0
    2.9170   -3.6640   44.5880 C   0  0  0  0  0  0  0  0  0  0  0  0
    4.9050   -4.1330   46.3240 Cl  0  0  0  0  0  0  0  0  0  0  0  0
    1.0660   -1.7300   41.3040 C   0  0  0  0  0  0  0  0  0  0  0  0
    2.3520   -1.3720   41.7120 C   0  0  0  0  0  0  0  0  0  0  0  0
    6.4880   -1.8000   44.7060 Cl  0  0  0  0  0  0  0  0  0  0  0  0
    0.2520   -4.2980   43.7690 O   0  0  0  0  0  0  0  0  0  0  0  0
   -0.8310   -3.1260   41.5350 O   0  0  0  0  0  0  0  0  0  0  0  0
  1  2  1  0
  1  3  2  0
  1  8  1  0
  2 11  2  0
  2  5  1  0
  3  4  1  0
  3 13  1  0
  4 10  2  0
  4 14  1  0
  5  6  2  0
  6 12  1  0
  6  7  1  0
  7  8  2  0
  7  9  1  0
 10 11  1  0
M  END
>  <vina_dock>  (331) 
-7.408

$$$$
O14757_PocketFlow_idx-in-all-generaetd-831
     RDKit          3D

 20 22  0  0  0  0  0  0  0  0999 V2000
    5.4700   -2.5460   44.9340 C   0  0  0  0  0  0  0  0  0  0  0  0
    5.1580   -1.9200   43.7330 C   0  0  0  0  0  0  0  0  0  0  0  0
    4.5370   -3.3990   45.5270 C   0  0  0  0  0  0  0  0  0  0  0  0
    3.2840   -3.6250   44.9310 C   0  0  0  0  0  0  0  0  0  0  0  0
    2.3670   -4.4720   45.5660 C   0  0  0  0  0  0  0  0  0  0  0  0
    1.1140   -4.6960   45.0120 C   0  0  0  0  0  0  0  0  0  0  0  0
    0.7580   -4.0960   43.8110 C   0  0  0  0  0  0  0  0  0  0  0  0
    1.6610   -3.2610   43.1200 C   0  0  0  0  0  0  0  0  0  0  0  0
    2.9430   -2.9980   43.7000 C   0  0  0  0  0  0  0  0  0  0  0  0
    3.9150   -2.1400   43.1310 C   0  0  0  0  0  0  0  0  0  0  0  0
   -0.0070   -5.7190   45.8230 Cl  0  0  0  0  0  0  0  0  0  0  0  0
    6.7860   -2.3050   45.5740 C   0  0  0  0  0  0  0  0  0  0  0  0
    7.4030   -1.0600   45.5790 N   0  0  0  0  0  0  0  0  0  0  0  0
    7.4750   -3.2750   46.1470 N   0  0  0  0  0  0  0  0  0  0  0  0
    8.7040   -1.3290   46.1490 C   0  0  0  0  0  0  0  0  0  0  0  0
    8.6370   -2.7050   46.6270 N   0  0  0  0  0  0  0  0  0  0  0  0
    1.2260   -2.6300   41.7920 C   0  0  1  0  0  0  0  0  0  0  0  0
    0.1800   -3.4630   41.0330 C   0  0  0  0  0  0  0  0  0  0  0  0
    0.7460   -1.1850   42.0450 C   0  0  0  0  0  0  0  0  0  0  0  0
    1.5160   -0.1410   41.2470 C   0  0  0  0  0  0  0  0  0  0  0  0
  1  2  2  0
  1  3  1  0
  1 12  1  0
  2 10  1  0
  3  4  2  0
  4  9  1  0
  4  5  1  0
  5  6  2  0
  6  7  1  0
  6 11  1  0
  7  8  2  0
  8 17  1  0
  8  9  1  0
  9 10  2  0
 12 13  1  0
 12 14  2  0
 13 15  1  0
 14 16  1  0
 15 16  1  0
 17 18  1  1
 17 19  1  0
 19 20  1  0
M  END
>  <vina_dock>  (332) 
-9.059

$$$$
O14757_PocketFlow_idx-in-all-generaetd-995
     RDKit          3D

 16 17  0  0  0  0  0  0  0  0999 V2000
    0.7390   -5.1570   44.2100 C   0  0  0  0  0  0  0  0  0  0  0  0
    0.5660   -6.4850   44.3110 C   0  0  0  0  0  0  0  0  0  0  0  0
    2.0250   -4.4800   44.4260 C   0  0  0  0  0  0  0  0  0  0  0  0
    2.9230   -5.0110   45.3510 C   0  0  0  0  0  0  0  0  0  0  0  0
    4.1660   -4.4080   45.5610 C   0  0  0  0  0  0  0  0  0  0  0  0
    4.5620   -3.2560   44.8430 C   0  0  0  0  0  0  0  0  0  0  0  0
    2.4050   -3.3500   43.6930 C   0  0  0  0  0  0  0  0  0  0  0  0
    5.8060   -2.5980   45.0110 C   0  0  0  0  0  0  0  0  0  0  0  0
    3.6540   -2.7300   43.8920 C   0  0  0  0  0  0  0  0  0  0  0  0
    6.9920   -3.1530   46.1460 Cl  0  0  0  0  0  0  0  0  0  0  0  0
    6.1340   -1.4640   44.2600 C   0  0  0  0  0  0  0  0  0  0  0  0
    4.0030   -1.5910   43.1470 C   0  0  0  0  0  0  0  0  0  0  0  0
    5.2340   -0.9620   43.3290 C   0  0  0  0  0  0  0  0  0  0  0  0
   -0.7090   -7.1260   44.0880 C   0  0  0  0  0  0  0  0  0  0  0  0
   -1.4740   -7.5930   45.0860 C   0  0  0  0  0  0  0  0  0  0  0  0
   -2.7950   -8.2590   44.8790 C   0  0  0  0  0  0  0  0  0  0  0  0
  1  2  2  3
  1  3  1  0
  2 14  1  0
  3  7  2  0
  3  4  1  0
  4  5  2  0
  5  6  1  0
  6  9  2  0
  6  8  1  0
  7  9  1  0
  8 11  2  0
  8 10  1  0
  9 12  1  0
 11 13  1  0
 12 13  2  0
 14 15  2  3
 15 16  1  0
M  END
>  <vina_dock>  (333) 
-8.204

$$$$
O14757_PocketFlow_idx-in-all-generaetd-730
     RDKit          3D

 30 31  0  0  0  0  0  0  0  0999 V2000
    1.2980   -5.3610   45.1230 C   0  0  0  0  0  0  0  0  0  0  0  0
    0.8430   -6.4200   44.4170 C   0  0  0  0  0  0  0  0  0  0  0  0
    0.4150   -4.6680   46.1430 C   0  0  0  0  0  0  0  0  0  0  0  0
    2.7310   -4.7760   44.9510 C   0  0  1  0  0  0  0  0  0  0  0  0
    3.6860   -6.1900   44.2260 Cl  0  0  0  0  0  0  0  0  0  0  0  0
    2.7170   -3.5350   43.9730 C   0  0  0  0  0  0  0  0  0  0  0  0
    6.0480   -1.7130   44.5380 C   0  0  0  0  0  0  0  0  0  0  0  0
    5.9100   -0.6540   43.6510 C   0  0  0  0  0  0  0  0  0  0  0  0
    5.0190   -2.6650   44.6460 C   0  0  0  0  0  0  0  0  0  0  0  0
    4.7550   -0.5550   42.8830 C   0  0  0  0  0  0  0  0  0  0  0  0
    3.8170   -2.5990   43.8930 C   0  0  0  0  0  0  0  0  0  0  0  0
    3.7220   -1.5020   42.9890 C   0  0  0  0  0  0  0  0  0  0  0  0
    2.5950   -1.3410   42.1790 C   0  0  0  0  0  0  0  0  0  0  0  0
    1.6110   -3.3260   43.1100 C   0  0  0  0  0  0  0  0  0  0  0  0
    1.5340   -2.2400   42.2300 C   0  0  0  0  0  0  0  0  0  0  0  0
    7.2540   -1.8800   45.3850 C   0  0  0  0  0  0  0  0  0  0  0  0
    7.7040   -2.9370   45.7850 O   0  0  0  0  0  0  0  0  0  0  0  0
    7.8420   -0.7110   45.6910 O   0  0  0  0  0  0  0  0  0  0  0  0
    0.3370   -2.0720   41.3260 C   0  0  0  0  0  0  0  0  0  0  0  0
   -0.6720   -2.9370   41.6220 F   0  0  0  0  0  0  0  0  0  0  0  0
   -0.2140   -0.8270   41.3930 F   0  0  0  0  0  0  0  0  0  0  0  0
    3.5250   -4.3330   46.2090 C   0  0  0  0  0  0  0  0  0  0  0  0
    4.5140   -5.3290   46.7610 C   0  0  0  0  0  0  0  0  0  0  0  0
    4.3370   -6.5050   47.0290 O   0  0  0  0  0  0  0  0  0  0  0  0
    5.7100   -4.7560   47.0180 O   0  0  0  0  0  0  0  0  0  0  0  0
   -0.4780   -7.0050   44.4880 C   0  0  0  0  0  0  0  0  0  0  0  0
   -0.9100   -7.9190   45.3760 C   0  0  0  0  0  0  0  0  0  0  0  0
   -0.2340   -8.6480   46.4960 C   0  0  1  0  0  0  0  0  0  0  0  0
    0.9760   -9.0940   46.0720 F   0  0  0  0  0  0  0  0  0  0  0  0
    0.0400   -7.8470   47.6190 O   0  0  0  0  0  0  0  0  0  0  0  0
  1  2  2  3
  1  4  1  0
  1  3  1  0
  2 26  1  0
  4  6  1  0
  4  5  1  6
  4 22  1  0
  6 14  2  0
  6 11  1  0
  7  8  2  0
  7  9  1  0
  7 16  1  0
  8 10  1  0
  9 11  2  0
 10 12  2  0
 11 12  1  0
 12 13  1  0
 13 15  2  0
 14 15  1  0
 15 19  1  0
 16 18  1  0
 16 17  2  0
 19 21  1  0
 19 20  1  0
 22 23  1  0
 23 25  1  0
 23 24  2  0
 26 27  2  3
 27 28  1  0
 28 29  1  0
 28 30  1  1
M  END
>  <vina_dock>  (334) 
-9.343

$$$$
O14757_PocketFlow_idx-in-all-generaetd-964
     RDKit          3D

 21 22  0  0  0  0  0  0  0  0999 V2000
    3.2520   -2.7900   43.7180 C   0  0  0  0  0  0  0  0  0  0  0  0
    3.3370   -1.7710   42.7430 C   0  0  0  0  0  0  0  0  0  0  0  0
    4.4400   -0.9080   42.7640 C   0  0  0  0  0  0  0  0  0  0  0  0
    5.4500   -1.0520   43.7230 C   0  0  0  0  0  0  0  0  0  0  0  0
    5.3750   -2.0720   44.6740 C   0  0  0  0  0  0  0  0  0  0  0  0
    4.2690   -2.9310   44.6740 C   0  0  0  0  0  0  0  0  0  0  0  0
    2.1290   -3.7370   43.7940 C   0  0  0  0  0  0  0  0  0  0  0  0
    1.9240   -4.4960   44.8820 C   0  0  0  0  0  0  0  0  0  0  0  0
    0.8370   -5.4730   45.0210 C   0  0  0  0  0  0  0  0  0  0  0  0
    0.3850   -6.2750   43.9690 C   0  0  0  0  0  0  0  0  0  0  0  0
    0.1590   -5.5910   46.2340 C   0  0  0  0  0  0  0  0  0  0  0  0
   -0.6790   -7.1550   44.1700 C   0  0  0  0  0  0  0  0  0  0  0  0
   -0.8780   -6.4340   46.4590 N   0  0  0  0  0  0  0  0  0  0  0  0
   -1.2700   -7.1990   45.4210 C   0  0  0  0  0  0  0  0  0  0  0  0
    2.3140   -1.6570   41.7800 N   0  0  0  0  0  0  0  0  0  0  0  0
    1.3250   -0.7340   41.7000 C   0  0  0  0  0  0  0  0  0  0  0  0
    0.1420   -0.8050   41.9670 O   0  0  0  0  0  0  0  0  0  0  0  0
    1.8380    0.4210   41.2400 O   0  0  0  0  0  0  0  0  0  0  0  0
    6.4200   -2.2690   45.7140 C   0  0  0  0  0  0  0  0  0  0  0  0
    6.4220   -3.2510   46.4440 O   0  0  0  0  0  0  0  0  0  0  0  0
    7.4110   -1.3300   45.8030 N   0  0  0  0  0  0  0  0  0  0  0  0
  1  2  2  0
  1  7  1  0
  1  6  1  0
  2 15  1  0
  2  3  1  0
  3  4  2  0
  4  5  1  0
  5  6  2  0
  5 19  1  0
  7  8  2  3
  8  9  1  0
  9 10  2  0
  9 11  1  0
 10 12  1  0
 11 13  2  0
 12 14  2  0
 13 14  1  0
 15 16  1  0
 16 18  1  0
 16 17  2  0
 19 21  1  0
 19 20  2  0
M  END
>  <vina_dock>  (335) 
-8.301

$$$$
O14757_PocketFlow_idx-in-all-generaetd-524
     RDKit          3D

 30 33  0  0  0  0  0  0  0  0999 V2000
    0.1710   -2.2330   41.3120 C   0  0  0  0  0  0  0  0  0  0  0  0
   -0.6680   -1.0040   41.6500 C   0  0  0  0  0  0  0  0  0  0  0  0
   -2.1130   -1.2350   41.3080 C   0  0  0  0  0  0  0  0  0  0  0  0
   -3.0120   -0.4130   41.3090 O   0  0  0  0  0  0  0  0  0  0  0  0
   -2.3500   -2.5130   40.9480 O   0  0  0  0  0  0  0  0  0  0  0  0
    1.4120   -2.3300   42.1650 C   0  0  0  0  0  0  0  0  0  0  0  0
    2.3800   -1.3280   42.1010 C   0  0  0  0  0  0  0  0  0  0  0  0
    1.6200   -3.4010   43.0500 C   0  0  0  0  0  0  0  0  0  0  0  0
    2.1980   -0.2710   41.2940 F   0  0  0  0  0  0  0  0  0  0  0  0
    3.5400   -1.3880   42.8660 C   0  0  0  0  0  0  0  0  0  0  0  0
    0.6290   -4.3580   43.1090 O   0  0  0  0  0  0  0  0  0  0  0  0
    2.7830   -3.4760   43.8370 C   0  0  0  0  0  0  0  0  0  0  0  0
    3.7640   -2.4620   43.7390 C   0  0  0  0  0  0  0  0  0  0  0  0
    0.7100   -5.4020   44.0180 C   0  0  0  0  0  0  0  0  0  0  0  0
    2.9650   -4.6470   44.7690 C   0  0  0  0  0  0  0  0  0  0  0  0
    1.7870   -5.5570   44.8070 C   0  0  0  0  0  0  0  0  0  0  0  0
    1.8010   -6.5830   45.6940 F   0  0  0  0  0  0  0  0  0  0  0  0
    5.0080   -2.4990   44.5180 C   0  0  0  0  0  0  0  0  0  0  0  0
    6.0100   -1.5410   44.3070 C   0  0  0  0  0  0  0  0  0  0  0  0
    5.2210   -3.4940   45.4850 C   0  0  0  0  0  0  0  0  0  0  0  0
    7.2000   -1.5810   45.0360 C   0  0  0  0  0  0  0  0  0  0  0  0
    6.4120   -3.5330   46.2160 C   0  0  0  0  0  0  0  0  0  0  0  0
    7.4010   -2.5770   45.9890 C   0  0  0  0  0  0  0  0  0  0  0  0
   -0.3640   -6.2720   44.1180 N   0  0  0  0  0  0  0  0  0  0  0  0
   -0.9220   -6.9640   45.2060 C   0  0  0  0  0  0  0  0  0  0  0  0
   -1.5620   -8.1900   44.9540 C   0  0  0  0  0  0  0  0  0  0  0  0
   -0.8470   -6.5410   46.5360 C   0  0  0  0  0  0  0  0  0  0  0  0
   -2.1130   -8.9550   45.9880 C   0  0  0  0  0  0  0  0  0  0  0  0
   -1.3920   -7.3050   47.5760 C   0  0  0  0  0  0  0  0  0  0  0  0
   -2.0230   -8.5140   47.3030 C   0  0  0  0  0  0  0  0  0  0  0  0
  1  2  1  0
  1  6  1  0
  2  3  1  0
  3  5  1  0
  3  4  2  0
  6  7  2  0
  6  8  1  0
  7  9  1  0
  7 10  1  0
  8 11  1  0
  8 12  1  0
 10 13  2  0
 11 14  1  0
 12 13  1  0
 12 15  2  0
 13 18  1  0
 14 24  1  0
 14 16  2  0
 15 16  1  0
 16 17  1  0
 18 19  2  0
 18 20  1  0
 19 21  1  0
 20 22  2  0
 21 23  2  0
 22 23  1  0
 24 25  1  0
 25 26  2  0
 25 27  1  0
 26 28  1  0
 27 29  2  0
 28 30  2  0
 29 30  1  0
M  END
>  <vina_dock>  (336) 
-10.478

$$$$
O14757_PocketFlow_idx-in-all-generaetd-640
     RDKit          3D

 32 34  0  0  0  0  0  0  0  0999 V2000
    9.7600   -5.0990   47.1670 C   0  0  1  0  0  0  0  0  0  0  0  0
    9.4530   -3.6940   46.7620 C   0  0  0  0  0  0  0  0  0  0  0  0
   10.6070   -2.9210   46.8130 C   0  0  0  0  0  0  0  0  0  0  0  0
   11.7350   -3.6120   47.3040 N   0  0  0  0  0  0  0  0  0  0  0  0
   11.3100   -5.0290   47.2850 C   0  0  0  0  0  0  0  0  0  0  0  0
   10.5650   -1.5760   46.5000 C   0  0  0  0  0  0  0  0  0  0  0  0
    9.3420   -1.0180   46.1080 C   0  0  0  0  0  0  0  0  0  0  0  0
    8.1640   -1.7880   46.0490 C   0  0  0  0  0  0  0  0  0  0  0  0
    8.2320   -3.1480   46.3840 C   0  0  0  0  0  0  0  0  0  0  0  0
    9.0870   -5.3790   48.3930 O   0  0  0  0  0  0  0  0  0  0  0  0
    8.4420   -6.6470   48.3980 C   0  0  0  0  0  0  0  0  0  0  0  0
    7.4660   -6.7070   49.5670 C   0  0  0  0  0  0  0  0  0  0  0  0
    6.0140   -6.7520   49.0950 C   0  0  0  0  0  0  0  0  0  0  0  0
    5.6160   -5.4750   48.4060 C   0  0  0  0  0  0  0  0  0  0  0  0
    5.8490   -4.3340   48.7620 O   0  0  0  0  0  0  0  0  0  0  0  0
    4.9070   -5.7110   47.2860 O   0  0  0  0  0  0  0  0  0  0  0  0
    6.9160   -1.2320   45.7080 N   0  0  0  0  0  0  0  0  0  0  0  0
    5.7590   -1.8070   45.1510 C   0  0  0  0  0  0  0  0  0  0  0  0
    5.4920   -1.5940   43.7920 C   0  0  0  0  0  0  0  0  0  0  0  0
    4.8260   -2.5380   45.8920 C   0  0  0  0  0  0  0  0  0  0  0  0
    4.3370   -2.1060   43.1890 C   0  0  0  0  0  0  0  0  0  0  0  0
    3.6670   -3.0480   45.2970 C   0  0  0  0  0  0  0  0  0  0  0  0
    3.4000   -2.8310   43.9380 C   0  0  0  0  0  0  0  0  0  0  0  0
    2.1400   -3.4170   43.3090 C   0  0  1  0  0  0  0  0  0  0  0  0
    1.2230   -4.0790   44.3310 C   0  0  0  0  0  0  0  0  0  0  0  0
    1.2870   -5.2510   45.0010 C   0  0  0  0  0  0  0  0  0  0  0  0
    2.3540   -6.2960   44.7910 C   0  0  0  0  0  0  0  0  0  0  0  0
    0.2620   -5.6760   46.0500 C   0  0  0  0  0  0  0  0  0  0  0  0
   -0.5480   -6.9440   45.7820 C   0  0  0  0  0  0  0  0  0  0  0  0
   -0.8400   -7.1420   44.0330 Cl  0  0  0  0  0  0  0  0  0  0  0  0
    1.4740   -2.4350   42.3720 C   0  0  0  0  0  0  0  0  0  0  0  0
    0.3880   -2.7090   41.6340 C   0  0  0  0  0  0  0  0  0  0  0  0
  1  2  1  0
  1  5  1  0
  1 10  1  1
  2  9  2  0
  2  3  1  0
  3  6  2  0
  3  4  1  0
  4  5  1  0
  6  7  1  0
  7  8  2  0
  8 17  1  0
  8  9  1  0
 10 11  1  0
 11 12  1  0
 12 13  1  0
 13 14  1  0
 14 16  1  0
 14 15  2  0
 17 18  1  0
 18 19  2  0
 18 20  1  0
 19 21  1  0
 20 22  2  0
 21 23  2  0
 22 23  1  0
 23 24  1  0
 24 31  1  1
 24 25  1  0
 25 26  2  3
 26 27  1  0
 26 28  1  0
 28 29  1  0
 29 30  1  0
 31 32  2  0
M  END
>  <vina_dock>  (337) 
-7.79

$$$$
O14757_PocketFlow_idx-in-all-generaetd-625
     RDKit          3D

 32 34  0  0  0  0  0  0  0  0999 V2000
    4.6050   -4.8390   46.7000 C   0  0  0  0  0  0  0  0  0  0  0  0
    3.2880   -4.5220   45.9570 C   0  0  0  0  0  0  0  0  0  0  0  0
    2.5820   -5.6970   45.3900 N   0  0  0  0  0  0  0  0  0  0  0  0
    3.2610   -6.9490   45.7430 C   0  0  0  0  0  0  0  0  0  0  0  0
    1.1770   -5.6960   45.8330 C   0  0  0  0  0  0  0  0  0  0  0  0
    0.3670   -6.9480   45.4630 C   0  0  2  0  0  0  0  0  0  0  0  0
   -2.7840   -8.2070   43.9890 C   0  0  0  0  0  0  0  0  0  0  0  0
   -1.7480   -7.7260   44.7760 C   0  0  0  0  0  0  0  0  0  0  0  0
   -3.6320   -9.1810   44.5210 C   0  0  0  0  0  0  0  0  0  0  0  0
   -0.7290   -6.6860   44.4130 C   0  0  2  0  0  0  0  0  0  0  0  0
   -1.5470   -8.1950   46.0790 C   0  0  0  0  0  0  0  0  0  0  0  0
   -3.4380   -9.6560   45.8270 C   0  0  0  0  0  0  0  0  0  0  0  0
   -0.2270   -6.8410   43.1610 F   0  0  0  0  0  0  0  0  0  0  0  0
   -0.3620   -7.5220   46.7010 C   0  0  0  0  0  0  0  0  0  0  0  0
   -2.3930   -9.1570   46.6160 C   0  0  0  0  0  0  0  0  0  0  0  0
   -2.2160   -9.6630   48.0030 C   0  0  0  0  0  0  0  0  0  0  0  0
   -3.0500   -9.3180   48.9320 N   0  0  0  0  0  0  0  0  0  0  0  0
   -1.1500  -10.4870   48.2640 N   0  0  0  0  0  0  0  0  0  0  0  0
   -0.1760  -10.1600   49.2820 C   0  0  0  0  0  0  0  0  0  0  0  0
    5.3700   -3.6640   46.9810 O   0  0  0  0  0  0  0  0  0  0  0  0
    6.3540   -3.3840   45.9890 C   0  0  0  0  0  0  0  0  0  0  0  0
    6.4820   -1.8650   45.7740 C   0  0  2  0  0  0  0  0  0  0  0  0
    6.0190   -1.4470   44.3710 C   0  0  0  0  0  0  0  0  0  0  0  0
    4.5280   -1.6820   44.0920 C   0  0  0  0  0  0  0  0  0  0  0  0
    4.0800   -1.3150   42.6760 C   0  0  0  0  0  0  0  0  0  0  0  0
    2.6740   -1.7890   42.4010 C   0  0  0  0  0  0  0  0  0  0  0  0
    2.1740   -2.9340   43.0350 C   0  0  0  0  0  0  0  0  0  0  0  0
    1.8410   -1.0760   41.5310 C   0  0  0  0  0  0  0  0  0  0  0  0
    0.8670   -3.3640   42.7940 C   0  0  0  0  0  0  0  0  0  0  0  0
    0.5350   -1.5060   41.2900 C   0  0  0  0  0  0  0  0  0  0  0  0
    0.0490   -2.6500   41.9210 C   0  0  0  0  0  0  0  0  0  0  0  0
    7.8430   -1.4860   45.9800 O   0  0  0  0  0  0  0  0  0  0  0  0
  1  2  1  0
  1 20  1  0
  2  3  1  0
  3  4  1  0
  3  5  1  0
  6  5  1  1
  6 10  1  0
  6 14  1  0
  7  9  2  0
  7  8  1  0
  8 10  1  0
  8 11  2  0
  9 12  1  0
 10 13  1  6
 11 15  1  0
 11 14  1  0
 12 15  2  0
 15 16  1  0
 16 18  1  0
 16 17  2  3
 18 19  1  0
 20 21  1  0
 21 22  1  0
 22 23  1  0
 22 32  1  6
 23 24  1  0
 24 25  1  0
 25 26  1  0
 26 28  1  0
 26 27  2  0
 27 29  1  0
 28 30  2  0
 29 31  2  0
 30 31  1  0
M  END
>  <vina_dock>  (338) 
-7.715

$$$$
O14757_PocketFlow_idx-in-all-generaetd-603
     RDKit          3D

 28 30  0  0  0  0  0  0  0  0999 V2000
    5.4620   -3.1900   45.6460 C   0  0  0  0  0  0  0  0  0  0  0  0
    4.8180   -2.6880   44.5050 C   0  0  0  0  0  0  0  0  0  0  0  0
    4.7480   -4.0590   46.4770 C   0  0  0  0  0  0  0  0  0  0  0  0
    3.4280   -4.4110   46.1790 C   0  0  0  0  0  0  0  0  0  0  0  0
    3.4910   -3.0300   44.1910 C   0  0  0  0  0  0  0  0  0  0  0  0
    2.8790   -2.5050   43.0420 C   0  0  0  0  0  0  0  0  0  0  0  0
    2.7690   -3.9080   45.0350 C   0  0  0  0  0  0  0  0  0  0  0  0
    1.4300   -4.2330   44.6890 C   0  0  0  0  0  0  0  0  0  0  0  0
    0.8420   -3.6940   43.5350 C   0  0  0  0  0  0  0  0  0  0  0  0
    1.5650   -2.8340   42.7160 C   0  0  0  0  0  0  0  0  0  0  0  0
    6.8550   -2.8180   45.9560 C   0  0  0  0  0  0  0  0  0  0  0  0
    9.4720   -1.9550   46.5320 C   0  0  0  0  0  0  0  0  0  0  0  0
    9.0060   -3.1860   47.0180 C   0  0  0  0  0  0  0  0  0  0  0  0
    8.6360   -1.1570   45.7510 C   0  0  0  0  0  0  0  0  0  0  0  0
    7.7160   -3.6580   46.7160 C   0  0  0  0  0  0  0  0  0  0  0  0
    7.3390   -1.5850   45.4730 C   0  0  0  0  0  0  0  0  0  0  0  0
   10.8530   -1.5430   46.8770 C   0  0  0  0  0  0  0  0  0  0  0  0
   11.6880   -2.2340   47.4310 O   0  0  0  0  0  0  0  0  0  0  0  0
   11.1290   -0.2790   46.5100 O   0  0  0  0  0  0  0  0  0  0  0  0
    7.2310   -4.8660   47.2520 N   0  0  0  0  0  0  0  0  0  0  0  0
    7.6630   -5.2970   48.5700 C   0  0  0  0  0  0  0  0  0  0  0  0
    0.6010   -5.1290   45.5110 C   0  0  0  0  0  0  0  0  0  0  0  0
   -0.0280   -6.2340   45.0580 C   0  0  0  0  0  0  0  0  0  0  0  0
    0.0130   -6.7210   43.6360 C   0  0  0  0  0  0  0  0  0  0  0  0
   -0.8560   -7.1000   45.9620 C   0  0  0  0  0  0  0  0  0  0  0  0
   -2.1620   -7.0960   45.5960 F   0  0  0  0  0  0  0  0  0  0  0  0
   -0.4410   -8.3910   45.9340 F   0  0  0  0  0  0  0  0  0  0  0  0
   -0.8140   -6.7040   47.2600 F   0  0  0  0  0  0  0  0  0  0  0  0
  1  2  2  0
  1 11  1  0
  1  3  1  0
  2  5  1  0
  3  4  2  0
  4  7  1  0
  5  6  2  0
  5  7  1  0
  6 10  1  0
  7  8  2  0
  8  9  1  0
  8 22  1  0
  9 10  2  0
 11 16  2  0
 11 15  1  0
 12 14  2  0
 12 17  1  0
 12 13  1  0
 13 15  2  0
 14 16  1  0
 15 20  1  0
 17 19  1  0
 17 18  2  0
 20 21  1  0
 22 23  2  3
 23 24  1  0
 23 25  1  0
 25 26  1  0
 25 27  1  0
 25 28  1  0
M  END
>  <vina_dock>  (339) 
-9.665

$$$$
O14757_PocketFlow_idx-in-all-generaetd-290
     RDKit          3D

 10 10  0  0  0  0  0  0  0  0999 V2000
    4.8680   -0.3720   43.1250 C   0  0  0  0  0  0  0  0  0  0  0  0
    4.7260   -1.8790   43.3700 C   0  0  2  0  0  0  0  0  0  0  0  0
    3.2930   -2.3240   43.1300 C   0  0  0  0  0  0  0  0  0  0  0  0
    2.7020   -3.3490   43.8850 C   0  0  0  0  0  0  0  0  0  0  0  0
    2.5280   -1.7020   42.1320 C   0  0  0  0  0  0  0  0  0  0  0  0
    1.3830   -3.7420   43.6460 C   0  0  0  0  0  0  0  0  0  0  0  0
    1.2100   -2.0950   41.8940 C   0  0  0  0  0  0  0  0  0  0  0  0
    0.6380   -3.1150   42.6500 C   0  0  0  0  0  0  0  0  0  0  0  0
    5.2460   -2.2440   44.7760 C   0  0  0  0  0  0  0  0  0  0  0  0
    6.7090   -1.8720   44.9870 C   0  0  0  0  0  0  0  0  0  0  0  0
  2  1  1  1
  2  3  1  0
  2  9  1  0
  3  5  2  0
  3  4  1  0
  4  6  2  0
  5  7  1  0
  6  8  1  0
  7  8  2  0
  9 10  1  0
M  END
>  <vina_dock>  (340) 
-5.958

$$$$
O14757_PocketFlow_idx-in-all-generaetd-845
     RDKit          3D

 14 15  0  0  0  0  0  0  0  0999 V2000
    1.7560   -4.4920   46.0370 C   0  0  0  0  0  0  0  0  0  0  0  0
    0.7370   -5.4020   45.7350 C   0  0  0  0  0  0  0  0  0  0  0  0
    3.0760   -4.7080   45.6070 C   0  0  0  0  0  0  0  0  0  0  0  0
    3.3730   -5.8780   44.8970 C   0  0  0  0  0  0  0  0  0  0  0  0
    1.0710   -6.5890   45.0810 C   0  0  0  0  0  0  0  0  0  0  0  0
    2.3770   -6.8190   44.6450 C   0  0  0  0  0  0  0  0  0  0  0  0
   -0.5450   -5.2280   46.2720 N   0  0  0  0  0  0  0  0  0  0  0  0
    4.1570   -3.6970   45.9150 C   0  0  0  0  0  0  0  0  0  0  0  0
    4.3930   -2.6810   44.8190 C   0  0  0  0  0  0  0  0  0  0  0  0
    3.5190   -2.5950   43.7270 C   0  0  0  0  0  0  0  0  0  0  0  0
    5.4810   -1.7990   44.8850 C   0  0  0  0  0  0  0  0  0  0  0  0
    3.7320   -1.6520   42.7210 C   0  0  0  0  0  0  0  0  0  0  0  0
    5.6940   -0.8580   43.8780 C   0  0  0  0  0  0  0  0  0  0  0  0
    4.8190   -0.7840   42.7960 C   0  0  0  0  0  0  0  0  0  0  0  0
  1  3  2  0
  1  2  1  0
  2  5  2  0
  2  7  1  0
  3  4  1  0
  3  8  1  0
  4  6  2  0
  5  6  1  0
  8  9  1  0
  9 10  2  0
  9 11  1  0
 10 12  1  0
 11 13  2  0
 12 14  2  0
 13 14  1  0
M  END
>  <vina_dock>  (341) 
-6.804

$$$$
O14757_PocketFlow_idx-in-all-generaetd-719
     RDKit          3D

 30 35  0  0  0  0  0  0  0  0999 V2000
   12.8730   -5.9890   47.3990 C   0  0  0  0  0  0  0  0  0  0  0  0
   12.9740   -6.1450   48.7810 C   0  0  0  0  0  0  0  0  0  0  0  0
   12.0570   -4.9930   46.8470 C   0  0  0  0  0  0  0  0  0  0  0  0
   11.3520   -4.1000   47.6660 C   0  0  0  0  0  0  0  0  0  0  0  0
   12.3240   -5.2240   49.6020 C   0  0  0  0  0  0  0  0  0  0  0  0
   11.5060   -4.2280   49.0540 C   0  0  0  0  0  0  0  0  0  0  0  0
   13.8810   -7.0610   49.3250 N   0  0  0  0  0  0  0  0  0  0  0  0
   10.4950   -3.0540   47.0910 C   0  0  0  0  0  0  0  0  0  0  0  0
    9.1970   -3.3310   46.6340 C   0  0  0  0  0  0  0  0  0  0  0  0
   10.9250   -1.7330   46.9660 C   0  0  0  0  0  0  0  0  0  0  0  0
    8.3870   -2.3260   46.0810 C   0  0  0  0  0  0  0  0  0  0  0  0
   10.1880   -0.7270   46.4410 N   0  0  0  0  0  0  0  0  0  0  0  0
    8.9430   -1.0490   46.0170 C   0  0  0  0  0  0  0  0  0  0  0  0
    7.0300   -2.6070   45.5950 C   0  0  0  0  0  0  0  0  0  0  0  0
    6.2920   -3.6870   46.0850 C   0  0  0  0  0  0  0  0  0  0  0  0
    6.4240   -1.8030   44.6210 C   0  0  0  0  0  0  0  0  0  0  0  0
    4.9950   -3.9520   45.6190 C   0  0  0  0  0  0  0  0  0  0  0  0
    5.1200   -2.0640   44.1470 C   0  0  0  0  0  0  0  0  0  0  0  0
    4.3750   -3.1520   44.6420 C   0  0  0  0  0  0  0  0  0  0  0  0
    4.5600   -1.1410   43.0920 C   0  0  0  0  0  0  0  0  0  0  0  0
    3.0000   -3.4060   44.1270 C   0  0  0  0  0  0  0  0  0  0  0  0
    3.1650   -1.4560   42.6170 C   0  0  0  0  0  0  0  0  0  0  0  0
    2.2080   -4.4770   44.5880 C   0  0  0  0  0  0  0  0  0  0  0  0
    2.4460   -2.5520   43.1360 C   0  0  0  0  0  0  0  0  0  0  0  0
    2.5940   -0.6240   41.6360 C   0  0  0  0  0  0  0  0  0  0  0  0
    0.9220   -4.7040   44.0990 C   0  0  0  0  0  0  0  0  0  0  0  0
    1.1340   -2.7880   42.6410 C   0  0  0  0  0  0  0  0  0  0  0  0
    1.3110   -0.8690   41.1630 C   0  0  0  0  0  0  0  0  0  0  0  0
    0.3890   -3.8640   43.1310 C   0  0  0  0  0  0  0  0  0  0  0  0
    0.5860   -1.9450   41.6630 C   0  0  0  0  0  0  0  0  0  0  0  0
  1  3  2  0
  1  2  1  0
  2  7  1  0
  2  5  2  0
  3  4  1  0
  4  8  1  0
  4  6  2  0
  5  6  1  0
  8  9  2  0
  8 10  1  0
  9 11  1  0
 10 12  2  0
 11 14  1  0
 11 13  2  0
 12 13  1  0
 14 16  1  0
 14 15  2  0
 15 17  1  0
 16 18  2  0
 17 19  2  0
 18 20  1  0
 18 19  1  0
 19 21  1  0
 20 22  2  0
 21 24  2  0
 21 23  1  0
 22 25  1  0
 22 24  1  0
 23 26  2  0
 24 27  1  0
 25 28  2  0
 26 29  1  0
 27 30  1  0
 27 29  2  0
 28 30  1  0
M  END
>  <vina_dock>  (342) 
-10.543

$$$$
O14757_PocketFlow_idx-in-all-generaetd-706
     RDKit          3D

 23 26  0  0  0  0  0  0  0  0999 V2000
    1.3660   -6.4420   44.6660 C   0  0  0  0  0  0  0  0  0  0  0  0
    0.0020   -6.5770   43.9800 C   0  0  0  0  0  0  0  0  0  0  0  0
   -0.9330   -7.4520   44.7810 C   0  0  0  0  0  0  0  0  0  0  0  0
   -3.0130   -8.6840   44.9740 C   0  0  0  0  0  0  0  0  0  0  0  0
   -2.6980   -9.0560   46.2890 C   0  0  0  0  0  0  0  0  0  0  0  0
   -2.1410   -7.8890   44.2280 C   0  0  0  0  0  0  0  0  0  0  0  0
   -1.4830   -8.6150   46.8600 C   0  0  0  0  0  0  0  0  0  0  0  0
   -3.5660   -9.8550   47.0520 C   0  0  0  0  0  0  0  0  0  0  0  0
   -0.6160   -7.8150   46.0970 C   0  0  0  0  0  0  0  0  0  0  0  0
   -1.1700   -8.9850   48.1780 C   0  0  0  0  0  0  0  0  0  0  0  0
   -3.2390  -10.2150   48.3610 C   0  0  0  0  0  0  0  0  0  0  0  0
   -2.0430   -9.7810   48.9230 C   0  0  0  0  0  0  0  0  0  0  0  0
    1.8260   -4.9990   44.9530 C   0  0  2  0  0  0  0  0  0  0  0  0
    1.8350   -4.1290   43.6820 C   0  0  0  0  0  0  0  0  0  0  0  0
    3.1380   -4.9100   45.7610 C   0  0  0  0  0  0  0  0  0  0  0  0
    2.7590   -2.9300   43.8510 C   0  0  1  0  0  0  0  0  0  0  0  0
    4.3750   -4.6190   44.9140 C   0  0  0  0  0  0  0  0  0  0  0  0
    4.2110   -3.3990   43.9960 C   0  0  2  0  0  0  0  0  0  0  0  0
    2.6200   -2.0500   42.7320 O   0  0  0  0  0  0  0  0  0  0  0  0
    5.0780   -2.2020   44.4100 C   0  0  0  0  0  0  0  0  0  0  0  0
    3.7180   -1.1450   42.5500 C   0  0  0  0  0  0  0  0  0  0  0  0
    4.5420   -0.8890   43.8200 C   0  0  2  0  0  0  0  0  0  0  0  0
    5.6210   -0.0040   43.5450 O   0  0  0  0  0  0  0  0  0  0  0  0
  1  2  1  0
 13  1  1  6
  2  3  1  0
  3  6  1  0
  3  9  2  0
  4  6  2  0
  4  5  1  0
  5  7  2  0
  5  8  1  0
  7  9  1  0
  7 10  1  0
  8 11  2  0
 10 12  2  0
 11 12  1  0
 13 14  1  0
 13 15  1  0
 16 14  1  6
 15 17  1  0
 16 19  1  0
 16 18  1  0
 18 17  1  1
 18 20  1  0
 19 21  1  0
 20 22  1  0
 21 22  1  0
 22 23  1  6
M  END
>  <vina_dock>  (343) 
-8.896

$$$$
O14757_PocketFlow_idx-in-all-generaetd-948
     RDKit          3D

  6  6  0  0  0  0  0  0  0  0999 V2000
    4.0960   -1.0180   42.8500 C   0  0  0  0  0  0  0  0  0  0  0  0
    3.5980   -2.2640   43.2290 C   0  0  0  0  0  0  0  0  0  0  0  0
    4.2820   -3.0320   44.1710 C   0  0  0  0  0  0  0  0  0  0  0  0
    5.4650   -2.5540   44.7330 C   0  0  0  0  0  0  0  0  0  0  0  0
    5.2790   -0.5390   43.4120 C   0  0  0  0  0  0  0  0  0  0  0  0
    5.9630   -1.3070   44.3540 C   0  0  0  0  0  0  0  0  0  0  0  0
  1  2  2  0
  1  5  1  0
  2  3  1  0
  3  4  2  0
  4  6  1  0
  5  6  2  0
M  END
>  <vina_dock>  (344) 
-3.997

$$$$
O14757_PocketFlow_idx-in-all-generaetd-432
     RDKit          3D

  9  9  0  0  0  0  0  0  0  0999 V2000
    3.4740   -3.4630   43.9150 C   0  0  0  0  0  0  0  0  0  0  0  0
    2.0760   -3.4620   43.9670 C   0  0  0  0  0  0  0  0  0  0  0  0
    1.3870   -4.6070   44.3710 C   0  0  0  0  0  0  0  0  0  0  0  0
    2.0910   -5.7590   44.7210 C   0  0  0  0  0  0  0  0  0  0  0  0
    3.4840   -5.7680   44.6650 C   0  0  0  0  0  0  0  0  0  0  0  0
    4.1740   -4.6240   44.2610 C   0  0  0  0  0  0  0  0  0  0  0  0
    4.1830   -2.2600   43.4720 C   0  0  0  0  0  0  0  0  0  0  0  0
    4.8860   -1.4110   45.7680 C   0  0  0  0  0  0  0  0  0  0  0  0
    4.8040   -1.3820   44.2750 C   0  0  0  0  0  0  0  0  0  0  0  0
  1  7  1  0
  1  2  2  0
  1  6  1  0
  2  3  1  0
  3  4  2  0
  4  5  1  0
  5  6  2  0
  7  9  2  3
  8  9  1  0
M  END
>  <vina_dock>  (345) 
-5.092

$$$$
O14757_PocketFlow_idx-in-all-generaetd-203
     RDKit          3D

 14 14  0  0  0  0  0  0  0  0999 V2000
    2.0570   -4.4130   45.1480 C   0  0  0  0  0  0  0  0  0  0  0  0
    2.7470   -3.8500   43.8850 C   0  0  1  0  0  0  0  0  0  0  0  0
    1.7640   -2.9920   43.0790 C   0  0  0  0  0  0  0  0  0  0  0  0
    4.0130   -3.0630   44.1950 C   0  0  0  0  0  0  0  0  0  0  0  0
    5.4550   -1.1570   43.7380 C   0  0  0  0  0  0  0  0  0  0  0  0
    6.3410   -1.5810   44.7250 C   0  0  0  0  0  0  0  0  0  0  0  0
    4.2980   -1.8920   43.4740 C   0  0  0  0  0  0  0  0  0  0  0  0
    6.0730   -2.7410   45.4480 C   0  0  0  0  0  0  0  0  0  0  0  0
    4.9170   -3.4780   45.1850 C   0  0  0  0  0  0  0  0  0  0  0  0
    0.7740   -5.1450   44.8440 C   0  0  0  0  0  0  0  0  0  0  0  0
    0.7220   -6.3930   44.3560 C   0  0  0  0  0  0  0  0  0  0  0  0
   -0.5210   -7.0700   44.0710 C   0  0  0  0  0  0  0  0  0  0  0  0
   -1.3850   -7.4370   45.0280 C   0  0  0  0  0  0  0  0  0  0  0  0
   -2.6770   -8.1380   44.7550 C   0  0  0  0  0  0  0  0  0  0  0  0
  1  2  1  0
  1 10  1  0
  2  3  1  1
  2  4  1  0
  4  7  2  0
  4  9  1  0
  5  7  1  0
  5  6  2  0
  6  8  1  0
  8  9  2  0
 10 11  2  3
 11 12  1  0
 12 13  2  3
 13 14  1  0
M  END
>  <vina_dock>  (346) 
-6.91

$$$$
O14757_PocketFlow_idx-in-all-generaetd-397
     RDKit          3D

 35 38  0  0  0  0  0  0  0  0999 V2000
    3.4930   -4.1720   45.5590 C   0  0  2  0  0  0  0  0  0  0  0  0
    3.6940   -3.3200   44.3320 C   0  0  0  0  0  0  0  0  0  0  0  0
    1.4350   -0.2510   42.0650 C   0  0  0  0  0  0  0  0  0  0  0  0
    2.6740   -0.6580   42.3800 C   0  0  0  0  0  0  0  0  0  0  0  0
    3.7250    0.2360   42.8090 C   0  0  0  0  0  0  0  0  0  0  0  0
    3.2400   -2.0640   42.3710 C   0  0  1  0  0  0  0  0  0  0  0  0
    4.8710   -0.4210   43.0120 C   0  0  0  0  0  0  0  0  0  0  0  0
    4.7410   -1.8900   42.7110 C   0  0  1  0  0  0  0  0  0  0  0  0
    2.7290   -2.9200   43.4900 C   0  0  0  0  0  0  0  0  0  0  0  0
    5.0410   -2.8120   43.9030 C   0  0  0  0  0  0  0  0  0  0  0  0
    0.3700   -1.1530   41.6230 C   0  0  0  0  0  0  0  0  0  0  0  0
   -1.9380   -1.5300   40.9410 C   0  0  0  0  0  0  0  0  0  0  0  0
   -1.6480   -2.8910   40.7670 C   0  0  0  0  0  0  0  0  0  0  0  0
   -0.9210   -0.6680   41.3760 C   0  0  0  0  0  0  0  0  0  0  0  0
   -0.3660   -3.3800   41.0210 C   0  0  0  0  0  0  0  0  0  0  0  0
    0.6400   -2.5130   41.4500 C   0  0  0  0  0  0  0  0  0  0  0  0
   -3.3280   -1.0050   40.6910 C   0  0  0  0  0  0  0  0  0  0  0  0
   -3.4420    0.4760   41.0200 C   0  0  0  0  0  0  0  0  0  0  0  0
    2.0520   -4.1150   46.0160 C   0  0  0  0  0  0  0  0  0  0  0  0
    1.0190   -4.9050   45.6700 C   0  0  0  0  0  0  0  0  0  0  0  0
    1.0620   -6.0390   44.7770 C   0  0  0  0  0  0  0  0  0  0  0  0
    0.1170   -6.9830   44.6420 C   0  0  0  0  0  0  0  0  0  0  0  0
   -1.2030   -7.0910   45.3340 C   0  0  0  0  0  0  0  0  0  0  0  0
    4.5060   -3.8150   46.6320 C   0  0  0  0  0  0  0  0  0  0  0  0
    5.3150   -4.6360   47.3260 C   0  0  0  0  0  0  0  0  0  0  0  0
    6.3160   -4.1450   48.3510 C   0  0  2  0  0  0  0  0  0  0  0  0
    7.4200   -3.3050   47.6900 C   0  0  0  0  0  0  0  0  0  0  0  0
    6.9170   -5.3110   49.1500 C   0  0  0  0  0  0  0  0  0  0  0  0
    8.4300   -4.1390   46.8990 C   0  0  0  0  0  0  0  0  0  0  0  0
    7.9250   -6.1390   48.3520 C   0  0  0  0  0  0  0  0  0  0  0  0
    9.0320   -5.2610   47.7530 C   0  0  1  0  0  0  0  0  0  0  0  0
   10.0100   -6.1000   46.9410 C   0  0  0  0  0  0  0  0  0  0  0  0
    9.5550   -7.3570   46.7550 F   0  0  0  0  0  0  0  0  0  0  0  0
   11.2070   -6.1810   47.5630 F   0  0  0  0  0  0  0  0  0  0  0  0
   10.2230   -5.5540   45.7240 F   0  0  0  0  0  0  0  0  0  0  0  0
  1  2  1  6
  1 19  1  0
  1 24  1  0
  2  9  2  0
  2 10  1  0
  3 11  1  0
  3  4  2  3
  4  6  1  0
  4  5  1  0
  5  7  2  0
  6  8  1  0
  6  9  1  1
  7  8  1  0
  8 10  1  1
 11 14  2  0
 11 16  1  0
 12 17  1  0
 12 13  2  0
 12 14  1  0
 13 15  1  0
 15 16  2  0
 17 18  1  0
 19 20  2  3
 20 21  1  0
 21 22  2  3
 22 23  1  0
 24 25  2  3
 25 26  1  0
 26 27  1  6
 26 28  1  0
 27 29  1  0
 28 30  1  0
 29 31  1  0
 30 31  1  0
 31 32  1  6
 32 35  1  0
 32 33  1  0
 32 34  1  0
M  END
>  <vina_dock>  (347) 
-9.585

$$$$
O14757_PocketFlow_idx-in-all-generaetd-834
     RDKit          3D

 14 14  0  0  0  0  0  0  0  0999 V2000
    0.7690   -3.4620   43.8920 C   0  0  0  0  0  0  0  0  0  0  0  0
    0.3770   -3.7770   42.4470 C   0  0  0  0  0  0  0  0  0  0  0  0
    0.1750   -2.5280   41.5850 C   0  0  0  0  0  0  0  0  0  0  0  0
    1.4850   -1.8960   41.1140 C   0  0  0  0  0  0  0  0  0  0  0  0
    1.4710   -0.3870   41.3000 C   0  0  0  0  0  0  0  0  0  0  0  0
    1.2670   -4.7160   44.6170 C   0  0  0  0  0  0  0  0  0  0  0  0
    2.6100   -4.4640   45.3040 C   0  0  0  0  0  0  0  0  0  0  0  0
    3.7690   -4.5590   44.3090 C   0  0  0  0  0  0  0  0  0  0  0  0
    4.5410   -3.2660   44.2290 C   0  0  0  0  0  0  0  0  0  0  0  0
    4.1530   -2.2600   43.3340 C   0  0  0  0  0  0  0  0  0  0  0  0
    5.6410   -3.0420   45.0670 C   0  0  0  0  0  0  0  0  0  0  0  0
    4.8590   -1.0580   43.2710 C   0  0  0  0  0  0  0  0  0  0  0  0
    6.3450   -1.8380   45.0040 C   0  0  0  0  0  0  0  0  0  0  0  0
    5.9550   -0.8480   44.1060 C   0  0  0  0  0  0  0  0  0  0  0  0
  1  2  1  0
  1  6  1  0
  2  3  1  0
  3  4  1  0
  4  5  1  0
  6  7  1  0
  7  8  1  0
  8  9  1  0
  9 10  2  0
  9 11  1  0
 10 12  1  0
 11 13  2  0
 12 14  2  0
 13 14  1  0
M  END
>  <vina_dock>  (348) 
-6.128

$$$$
O14757_PocketFlow_idx-in-all-generaetd-296
     RDKit          3D

 20 21  0  0  0  0  0  0  0  0999 V2000
    5.7790   -1.2310   43.9680 C   0  0  0  0  0  0  0  0  0  0  0  0
    6.0990   -1.4380   45.3750 N   0  0  0  0  0  0  0  0  0  0  0  0
    7.3750   -1.8850   45.7370 C   0  0  0  0  0  0  0  0  0  0  0  0
    7.5490   -3.2320   46.0560 C   0  0  0  0  0  0  0  0  0  0  0  0
    8.4670   -1.0410   45.9350 C   0  0  0  0  0  0  0  0  0  0  0  0
    8.7910   -3.6820   46.4800 C   0  0  0  0  0  0  0  0  0  0  0  0
    9.6830   -1.5710   46.3590 C   0  0  0  0  0  0  0  0  0  0  0  0
    9.8520   -2.8760   46.6160 N   0  0  0  0  0  0  0  0  0  0  0  0
    8.9940   -5.0320   46.7660 N   0  0  0  0  0  0  0  0  0  0  0  0
   10.7870   -0.7280   46.5440 N   0  0  0  0  0  0  0  0  0  0  0  0
    4.4430   -1.8710   43.6670 C   0  0  0  0  0  0  0  0  0  0  0  0
    3.6240   -1.3500   42.6510 C   0  0  0  0  0  0  0  0  0  0  0  0
    3.9900   -2.9710   44.4070 C   0  0  0  0  0  0  0  0  0  0  0  0
    2.3750   -1.9270   42.3610 C   0  0  0  0  0  0  0  0  0  0  0  0
    2.7490   -3.5460   44.1320 C   0  0  0  0  0  0  0  0  0  0  0  0
    1.9450   -3.0260   43.1160 C   0  0  0  0  0  0  0  0  0  0  0  0
    1.4970   -1.3410   41.2830 C   0  0  0  0  0  0  0  0  0  0  0  0
    1.7530   -0.0250   41.0400 F   0  0  0  0  0  0  0  0  0  0  0  0
    0.1690   -1.4090   41.5800 F   0  0  0  0  0  0  0  0  0  0  0  0
    1.6470   -1.9770   40.0880 F   0  0  0  0  0  0  0  0  0  0  0  0
  1 11  1  0
  1  2  1  0
  2  3  1  0
  3  5  1  0
  3  4  2  0
  4  6  1  0
  5  7  2  0
  6  8  2  0
  6  9  1  0
  7 10  1  0
  7  8  1  0
 11 12  2  0
 11 13  1  0
 12 14  1  0
 13 15  2  0
 14 17  1  0
 14 16  2  0
 15 16  1  0
 17 20  1  0
 17 18  1  0
 17 19  1  0
M  END
>  <vina_dock>  (349) 
-8.307

$$$$
O14757_PocketFlow_idx-in-all-generaetd-761
     RDKit          3D

 35 37  0  0  0  0  0  0  0  0999 V2000
    2.5910   -4.8810   45.4570 C   0  0  0  0  0  0  0  0  0  0  0  0
    2.8370   -6.2970   44.9370 C   0  0  0  0  0  0  0  0  0  0  0  0
    1.9080   -7.3450   45.5300 C   0  0  0  0  0  0  0  0  0  0  0  0
    0.7320   -6.7800   46.0060 N   0  0  0  0  0  0  0  0  0  0  0  0
    2.1710   -8.5420   45.5880 O   0  0  0  0  0  0  0  0  0  0  0  0
   -0.2640   -7.5070   46.6120 C   0  0  0  0  0  0  0  0  0  0  0  0
   -1.3500   -7.9840   45.9750 C   0  0  0  0  0  0  0  0  0  0  0  0
   -1.6890   -7.7500   44.5190 C   0  0  0  0  0  0  0  0  0  0  0  0
   -3.1270   -8.1330   44.1930 C   0  0  0  0  0  0  0  0  0  0  0  0
   -2.6380   -8.9550   46.9550 P   0  0  0  0  0  0  0  0  0  0  0  0
   -2.9850   -7.8280   48.0520 O   0  0  0  0  0  0  0  0  0  0  0  0
   -1.6460   -9.7770   47.9270 O   0  0  0  0  0  0  0  0  0  0  0  0
    2.5470   -3.8130   44.3800 C   0  0  0  0  0  0  0  0  0  0  0  0
    3.5840   -2.8750   44.1720 C   0  0  0  0  0  0  0  0  0  0  0  0
    1.4000   -3.7610   43.5610 C   0  0  0  0  0  0  0  0  0  0  0  0
    3.4280   -1.9100   43.1560 C   0  0  0  0  0  0  0  0  0  0  0  0
    1.2650   -2.7980   42.5580 C   0  0  0  0  0  0  0  0  0  0  0  0
    2.2820   -1.8660   42.3570 C   0  0  0  0  0  0  0  0  0  0  0  0
    4.8200   -2.8520   44.9700 C   0  0  0  0  0  0  0  0  0  0  0  0
    4.9480   -3.6250   46.1320 C   0  0  0  0  0  0  0  0  0  0  0  0
    5.9150   -2.0720   44.5670 C   0  0  0  0  0  0  0  0  0  0  0  0
    6.1240   -3.5990   46.8850 C   0  0  0  0  0  0  0  0  0  0  0  0
    7.0940   -2.0450   45.3180 C   0  0  0  0  0  0  0  0  0  0  0  0
    7.2060   -2.8010   46.4910 C   0  0  0  0  0  0  0  0  0  0  0  0
    8.4840   -2.7750   47.3050 C   0  0  0  0  0  0  0  0  0  0  0  0
    9.7030   -2.8230   46.4730 N   0  0  0  0  0  0  0  0  0  0  0  0
   10.5930   -1.7230   46.8380 C   0  0  1  0  0  0  0  0  0  0  0  0
   10.3630   -4.1390   46.5140 C   0  0  0  0  0  0  0  0  0  0  0  0
   12.0570   -1.9950   46.4890 C   0  0  0  0  0  0  0  0  0  0  0  0
   11.4940   -4.2290   47.5360 C   0  0  0  0  0  0  0  0  0  0  0  0
   12.5930   -3.2100   47.2400 C   0  0  0  0  0  0  0  0  0  0  0  0
   10.1750   -0.5830   46.1150 O   0  0  0  0  0  0  0  0  0  0  0  0
    0.0190   -2.7600   41.7420 C   0  0  0  0  0  0  0  0  0  0  0  0
   -0.4270   -3.7870   41.0910 N   0  0  0  0  0  0  0  0  0  0  0  0
   -0.6990   -1.6070   41.6440 N   0  0  0  0  0  0  0  0  0  0  0  0
  1 13  1  0
  1  2  1  0
  2  3  1  0
  3  5  2  0
  3  4  1  0
  4  6  1  0
  6  7  2  3
  7  8  1  0
  7 10  1  0
  8  9  1  0
 10 12  1  0
 10 11  1  0
 13 15  2  0
 13 14  1  0
 14 16  2  0
 14 19  1  0
 15 17  1  0
 16 18  1  0
 17 33  1  0
 17 18  2  0
 19 21  1  0
 19 20  2  0
 20 22  1  0
 21 23  2  0
 22 24  2  0
 23 24  1  0
 24 25  1  0
 25 26  1  0
 26 28  1  0
 26 27  1  0
 27 32  1  6
 27 29  1  0
 28 30  1  0
 29 31  1  0
 30 31  1  0
 33 34  2  3
 33 35  1  0
M  END
>  <vina_dock>  (350) 
-9.371

$$$$
O14757_PocketFlow_idx-in-all-generaetd-185
     RDKit          3D

 13 14  0  0  0  0  0  0  0  0999 V2000
    5.9100   -1.0150   43.8990 C   0  0  0  0  0  0  0  0  0  0  0  0
    6.3470   -1.8730   44.9050 C   0  0  0  0  0  0  0  0  0  0  0  0
    4.6740   -1.2400   43.2850 C   0  0  0  0  0  0  0  0  0  0  0  0
    3.8590   -2.3210   43.6660 C   0  0  0  0  0  0  0  0  0  0  0  0
    4.3240   -3.1710   44.6840 C   0  0  0  0  0  0  0  0  0  0  0  0
    5.5600   -2.9490   45.3020 C   0  0  0  0  0  0  0  0  0  0  0  0
    8.0160   -1.5720   45.7370 Br  0  0  0  0  0  0  0  0  0  0  0  0
    2.5610   -2.5550   43.0180 C   0  0  0  0  0  0  0  0  0  0  0  0
    1.6550   -3.5020   43.4970 C   0  0  0  0  0  0  0  0  0  0  0  0
    2.1600   -1.8380   41.8820 C   0  0  0  0  0  0  0  0  0  0  0  0
    0.4410   -3.7630   42.9520 N   0  0  0  0  0  0  0  0  0  0  0  0
    0.9210   -2.0820   41.2950 C   0  0  0  0  0  0  0  0  0  0  0  0
    0.1030   -3.0460   41.8610 C   0  0  0  0  0  0  0  0  0  0  0  0
  1  3  2  0
  1  2  1  0
  2  6  2  0
  2  7  1  0
  3  4  1  0
  4  8  1  0
  4  5  2  0
  5  6  1  0
  8 10  1  0
  8  9  2  0
  9 11  1  0
 10 12  2  0
 11 13  2  0
 12 13  1  0
M  END
>  <vina_dock>  (351) 
-7.005

$$$$
O14757_PocketFlow_idx-in-all-generaetd-840
     RDKit          3D

 32 35  0  0  0  0  0  0  0  0999 V2000
    2.4070   -3.4860   43.8790 C   0  0  0  0  0  0  0  0  0  0  0  0
    3.7810   -3.0100   44.2780 C   0  0  0  0  0  0  0  0  0  0  0  0
    8.3020   -2.2170   46.5060 C   0  0  0  0  0  0  0  0  0  0  0  0
    7.6230   -1.6430   45.4180 C   0  0  0  0  0  0  0  0  0  0  0  0
    7.6800   -3.2580   47.2040 C   0  0  0  0  0  0  0  0  0  0  0  0
    6.3490   -2.0910   45.0290 C   0  0  0  0  0  0  0  0  0  0  0  0
    6.4150   -3.7180   46.8260 C   0  0  0  0  0  0  0  0  0  0  0  0
    5.6680   -1.5110   43.9500 C   0  0  0  0  0  0  0  0  0  0  0  0
    5.7370   -3.1460   45.7420 C   0  0  0  0  0  0  0  0  0  0  0  0
    4.4020   -1.9680   43.5890 C   0  0  0  0  0  0  0  0  0  0  0  0
    4.4620   -3.5940   45.3570 C   0  0  0  0  0  0  0  0  0  0  0  0
    3.7770   -1.3790   42.5600 F   0  0  0  0  0  0  0  0  0  0  0  0
    9.6690   -1.6870   46.9040 C   0  0  2  0  0  0  0  0  0  0  0  0
   12.2990   -1.9520   48.2190 C   0  0  2  0  0  0  0  0  0  0  0  0
   12.1750   -1.9270   46.7010 C   0  0  0  0  0  0  0  0  0  0  0  0
   11.1880   -1.1110   48.8650 C   0  0  0  0  0  0  0  0  0  0  0  0
   13.0310   -1.4820   45.7590 C   0  0  0  0  0  0  0  0  0  0  0  0
   10.8220   -2.5060   46.2850 C   0  0  0  0  0  0  0  0  0  0  0  0
    9.8020   -1.6050   48.4380 C   0  0  0  0  0  0  0  0  0  0  0  0
   13.6440   -1.6200   48.7910 N   0  0  0  0  0  0  0  0  0  0  0  0
   13.8170   -0.4070   48.9600 O   0  0  0  0  0  0  0  0  0  0  0  0
   14.2360   -0.8860   45.9770 O   0  0  0  0  0  0  0  0  0  0  0  0
   12.7150   -1.5970   44.4320 O   0  0  0  0  0  0  0  0  0  0  0  0
    2.0600   -4.8540   44.4220 C   0  0  0  0  0  0  0  0  0  0  0  0
    3.0620   -5.8170   44.6150 C   0  0  0  0  0  0  0  0  0  0  0  0
    0.7310   -5.1860   44.7240 C   0  0  0  0  0  0  0  0  0  0  0  0
    2.7420   -7.0860   45.1010 C   0  0  0  0  0  0  0  0  0  0  0  0
    0.4080   -6.4600   45.2130 C   0  0  0  0  0  0  0  0  0  0  0  0
    1.4180   -7.4090   45.4010 C   0  0  0  0  0  0  0  0  0  0  0  0
   -1.0140   -6.7560   45.5110 C   0  0  0  0  0  0  0  0  0  0  0  0
   -1.7020   -7.5870   44.9470 O   0  0  0  0  0  0  0  0  0  0  0  0
   -1.5100   -5.9970   46.5040 O   0  0  0  0  0  0  0  0  0  0  0  0
  1  2  1  0
  1 24  1  0
  2 10  2  0
  2 11  1  0
  3  4  2  0
 13  3  1  1
  3  5  1  0
  4  6  1  0
  5  7  2  0
  6  8  2  0
  6  9  1  0
  7  9  1  0
  8 10  1  0
  9 11  2  0
 10 12  1  0
 13 18  1  0
 13 19  1  0
 14 15  1  0
 14 20  1  6
 14 16  1  0
 15 17  2  3
 15 18  1  0
 16 19  1  0
 17 23  1  0
 17 22  1  0
 20 21  1  0
 24 25  2  0
 24 26  1  0
 25 27  1  0
 26 28  2  0
 27 29  2  0
 28 29  1  0
 28 30  1  0
 30 31  2  0
 30 32  1  0
M  END
>  <vina_dock>  (352) 
-9.464

$$$$
O14757_PocketFlow_idx-in-all-generaetd-214
     RDKit          3D

 27 29  0  0  0  0  0  0  0  0999 V2000
    2.9750   -2.0180   42.9130 C   0  0  0  0  0  0  0  0  0  0  0  0
    3.9580   -2.4540   43.8220 C   0  0  0  0  0  0  0  0  0  0  0  0
    5.0910   -1.6780   44.1230 C   0  0  0  0  0  0  0  0  0  0  0  0
    5.2250   -0.4340   43.4900 C   0  0  0  0  0  0  0  0  0  0  0  0
    4.2590    0.0170   42.5890 C   0  0  0  0  0  0  0  0  0  0  0  0
    3.1430   -0.7680   42.3030 C   0  0  0  0  0  0  0  0  0  0  0  0
    1.7700   -2.9120   42.6230 C   0  0  2  0  0  0  0  0  0  0  0  0
    0.9420   -2.4700   41.3760 C   0  0  0  0  0  0  0  0  0  0  0  0
   -0.0430   -3.5170   40.8520 C   0  0  0  0  0  0  0  0  0  0  0  0
    0.2080   -1.1410   41.6060 C   0  0  0  0  0  0  0  0  0  0  0  0
    0.9260   -3.1350   43.9050 C   0  0  0  0  0  0  0  0  0  0  0  0
    0.8350   -4.6030   44.3310 C   0  0  0  0  0  0  0  0  0  0  0  0
    1.6390   -4.8560   45.5760 C   0  0  0  0  0  0  0  0  0  0  0  0
    2.8490   -5.4330   45.6610 C   0  0  0  0  0  0  0  0  0  0  0  0
    3.6690   -5.9980   44.5470 C   0  0  0  0  0  0  0  0  0  0  0  0
    6.1050   -2.1560   45.0730 C   0  0  0  0  0  0  0  0  0  0  0  0
    7.3290   -1.5000   45.2410 C   0  0  0  0  0  0  0  0  0  0  0  0
    5.9070   -3.2880   45.8580 C   0  0  0  0  0  0  0  0  0  0  0  0
    8.2830   -1.9800   46.1520 C   0  0  0  0  0  0  0  0  0  0  0  0
    6.8000   -3.7840   46.7490 N   0  0  0  0  0  0  0  0  0  0  0  0
    9.5210   -1.3380   46.3360 C   0  0  0  0  0  0  0  0  0  0  0  0
    7.9680   -3.1380   46.8910 C   0  0  0  0  0  0  0  0  0  0  0  0
   10.4610   -1.8370   47.2470 C   0  0  0  0  0  0  0  0  0  0  0  0
    8.9070   -3.6140   47.7960 C   0  0  0  0  0  0  0  0  0  0  0  0
   10.1390   -2.9780   47.9840 C   0  0  0  0  0  0  0  0  0  0  0  0
   11.7710   -1.1260   47.4520 C   0  0  0  0  0  0  0  0  0  0  0  0
   11.8450    0.0260   46.6230 O   0  0  0  0  0  0  0  0  0  0  0  0
  1  6  2  0
  1  7  1  0
  1  2  1  0
  2  3  2  0
  3  4  1  0
  3 16  1  0
  4  5  2  0
  5  6  1  0
  7  8  1  0
  7 11  1  1
  8  9  1  0
  8 10  1  0
 11 12  1  0
 12 13  1  0
 13 14  2  3
 14 15  1  0
 16 17  2  0
 16 18  1  0
 17 19  1  0
 18 20  2  0
 19 21  2  0
 19 22  1  0
 20 22  1  0
 21 23  1  0
 22 24  2  0
 23 26  1  0
 23 25  2  0
 24 25  1  0
 26 27  1  0
M  END
>  <vina_dock>  (353) 
-8.954

$$$$
O14757_PocketFlow_idx-in-all-generaetd-403
     RDKit          3D

 24 26  0  0  0  0  0  0  0  0999 V2000
    1.2560   -4.8020   45.5520 C   0  0  0  0  0  0  0  0  0  0  0  0
    2.1570   -3.8920   44.7470 C   0  0  0  0  0  0  0  0  0  0  0  0
    6.1590   -2.7930   45.9060 C   0  0  0  0  0  0  0  0  0  0  0  0
    5.3680   -3.6110   46.7180 C   0  0  0  0  0  0  0  0  0  0  0  0
    5.5530   -2.3260   44.7270 C   0  0  0  0  0  0  0  0  0  0  0  0
    4.0640   -3.9860   46.3550 C   0  0  0  0  0  0  0  0  0  0  0  0
    4.2430   -2.6790   44.3430 C   0  0  0  0  0  0  0  0  0  0  0  0
    3.4710   -3.5400   45.1610 C   0  0  0  0  0  0  0  0  0  0  0  0
    3.7000   -2.1680   43.1540 C   0  0  0  0  0  0  0  0  0  0  0  0
    2.4070   -2.4990   42.7660 C   0  0  0  0  0  0  0  0  0  0  0  0
    1.6460   -3.3510   43.5590 C   0  0  0  0  0  0  0  0  0  0  0  0
    1.7660   -1.8540   41.3050 Cl  0  0  0  0  0  0  0  0  0  0  0  0
    0.3970   -3.6710   43.1860 F   0  0  0  0  0  0  0  0  0  0  0  0
    7.4560   -2.4010   46.2500 N   0  0  0  0  0  0  0  0  0  0  0  0
    8.5050   -3.4290   46.3940 C   0  0  0  0  0  0  0  0  0  0  0  0
    7.9590   -1.1420   45.6700 C   0  0  0  0  0  0  0  0  0  0  0  0
    9.8410   -2.8170   46.8650 C   0  0  0  0  0  0  0  0  0  0  0  0
    9.3020   -0.6630   46.0620 N   0  0  0  0  0  0  0  0  0  0  0  0
   10.2880   -1.7350   45.9620 N   0  0  0  0  0  0  0  0  0  0  0  0
    1.1040   -6.5010   44.9880 P   0  0  1  0  0  0  0  0  0  0  0  0
    0.0400   -6.7240   43.9590 O   0  0  0  0  0  0  0  0  0  0  0  0
    2.5950   -6.9550   44.5670 O   0  0  0  0  0  0  0  0  0  0  0  0
    3.4270   -7.1300   45.7020 F   0  0  0  0  0  0  0  0  0  0  0  0
    0.8410   -7.3460   46.3400 O   0  0  0  0  0  0  0  0  0  0  0  0
  1  2  1  0
  1 20  1  0
  2 11  2  0
  2  8  1  0
  3  5  1  0
  3 14  1  0
  3  4  2  0
  4  6  1  0
  5  7  2  0
  6  8  2  0
  7  9  1  0
  7  8  1  0
  9 10  2  0
 10 12  1  0
 10 11  1  0
 11 13  1  0
 14 16  1  0
 14 15  1  0
 15 17  1  0
 16 18  1  0
 17 19  1  0
 18 19  1  0
 20 21  2  0
 20 22  1  0
 20 24  1  1
 22 23  1  0
M  END
>  <vina_dock>  (354) 
-8.89

$$$$
O14757_PocketFlow_idx-in-all-generaetd-503
     RDKit          3D

  6  6  0  0  0  0  0  0  0  0999 V2000
    3.4960   -2.2500   43.1370 C   0  0  0  0  0  0  0  0  0  0  0  0
    4.0960   -3.1010   44.0660 C   0  0  0  0  0  0  0  0  0  0  0  0
    5.2850   -2.7250   44.6900 C   0  0  0  0  0  0  0  0  0  0  0  0
    5.8740   -1.4980   44.3850 C   0  0  0  0  0  0  0  0  0  0  0  0
    5.2740   -0.6480   43.4560 C   0  0  0  0  0  0  0  0  0  0  0  0
    4.0850   -1.0240   42.8320 C   0  0  0  0  0  0  0  0  0  0  0  0
  1  6  2  0
  1  2  1  0
  2  3  2  0
  3  4  1  0
  4  5  2  0
  5  6  1  0
M  END
>  <vina_dock>  (355) 
-3.988

$$$$
O14757_PocketFlow_idx-in-all-generaetd-295
     RDKit          3D

 13 13  0  0  0  0  0  0  0  0999 V2000
    1.7000   -3.7060   43.4610 C   0  0  0  0  0  0  0  0  0  0  0  0
    3.0660   -3.1550   43.8040 C   0  0  0  0  0  0  0  0  0  0  0  0
    5.6160   -2.1070   44.4450 C   0  0  0  0  0  0  0  0  0  0  0  0
    5.1790   -3.3170   44.9980 C   0  0  0  0  0  0  0  0  0  0  0  0
    4.7650   -1.4000   43.5670 C   0  0  0  0  0  0  0  0  0  0  0  0
    3.9170   -3.8300   44.6840 C   0  0  0  0  0  0  0  0  0  0  0  0
    3.5030   -1.9420   43.2520 C   0  0  0  0  0  0  0  0  0  0  0  0
    6.8450   -1.5460   44.7050 O   0  0  0  0  0  0  0  0  0  0  0  0
    7.5910   -2.0590   45.8010 C   0  0  0  0  0  0  0  0  0  0  0  0
    5.1920   -0.2110   42.9970 N   0  0  0  0  0  0  0  0  0  0  0  0
    4.2660    0.5310   42.6470 O   0  0  0  0  0  0  0  0  0  0  0  0
    0.9850   -2.9210   42.3590 C   0  0  0  0  0  0  0  0  0  0  0  0
   -0.4300   -3.0740   42.4480 O   0  0  0  0  0  0  0  0  0  0  0  0
  1 12  1  0
  1  2  1  0
  2  7  2  0
  2  6  1  0
  3  5  2  0
  3  8  1  0
  3  4  1  0
  4  6  2  0
  5 10  1  0
  5  7  1  0
  8  9  1  0
 10 11  1  0
 12 13  1  0
M  END
>  <vina_dock>  (356) 
-5.961

$$$$
O14757_PocketFlow_idx-in-all-generaetd-116
     RDKit          3D

 29 33  0  0  0  0  0  0  0  0999 V2000
    3.3380   -6.6970   45.0960 C   0  0  0  0  0  0  0  0  0  0  0  0
    4.0910   -5.6920   45.9770 C   0  0  0  0  0  0  0  0  0  0  0  0
    4.3370   -4.3320   45.2760 C   0  0  1  0  0  0  0  0  0  0  0  0
    0.7950   -3.6020   43.9670 C   0  0  0  0  0  0  0  0  0  0  0  0
    1.0210   -2.6290   42.9890 C   0  0  0  0  0  0  0  0  0  0  0  0
    1.8460   -4.1350   44.7140 C   0  0  0  0  0  0  0  0  0  0  0  0
    2.3360   -2.1590   42.7550 C   0  0  0  0  0  0  0  0  0  0  0  0
   -0.0590   -2.1140   42.2520 C   0  0  0  0  0  0  0  0  0  0  0  0
    3.1660   -3.7290   44.4920 C   0  0  0  0  0  0  0  0  0  0  0  0
    3.4080   -2.7110   43.5250 C   0  0  0  0  0  0  0  0  0  0  0  0
    2.4930   -1.1470   41.7750 C   0  0  0  0  0  0  0  0  0  0  0  0
    0.1340   -1.1280   41.2870 C   0  0  0  0  0  0  0  0  0  0  0  0
    4.7880   -2.2040   43.3310 C   0  0  0  0  0  0  0  0  0  0  0  0
    1.4100   -0.6420   41.0500 C   0  0  0  0  0  0  0  0  0  0  0  0
    4.9030   -3.3220   46.3070 C   0  0  1  0  0  0  0  0  0  0  0  0
    5.5720   -1.8250   44.3540 C   0  0  0  0  0  0  0  0  0  0  0  0
    5.1400   -1.8970   45.7920 C   0  0  0  0  0  0  0  0  0  0  0  0
    4.0500   -3.2470   47.3730 F   0  0  0  0  0  0  0  0  0  0  0  0
    2.6380   -7.8020   45.8990 C   0  0  0  0  0  0  0  0  0  0  0  0
    1.1420   -7.8600   45.6830 C   0  0  0  0  0  0  0  0  0  0  0  0
    0.6140   -7.1310   44.6000 C   0  0  0  0  0  0  0  0  0  0  0  0
    0.2600   -8.6130   46.4850 C   0  0  0  0  0  0  0  0  0  0  0  0
   -0.7490   -7.1520   44.3070 C   0  0  0  0  0  0  0  0  0  0  0  0
    0.6920   -9.4870   47.6410 C   0  0  0  0  0  0  0  0  0  0  0  0
   -1.1200   -8.6300   46.1760 C   0  0  0  0  0  0  0  0  0  0  0  0
   -1.6160   -7.9050   45.0890 C   0  0  0  0  0  0  0  0  0  0  0  0
   -0.2410   -9.3250   48.8450 C   0  0  0  0  0  0  0  0  0  0  0  0
   -2.0360   -9.4880   47.0120 C   0  0  0  0  0  0  0  0  0  0  0  0
   -1.7350   -9.3210   48.5000 C   0  0  0  0  0  0  0  0  0  0  0  0
  1 19  1  0
  1  2  1  0
  3  2  1  1
  3  9  1  0
  3 15  1  0
  4  5  2  0
  4  6  1  0
  5  8  1  0
  5  7  1  0
  6  9  2  0
  7 11  1  0
  7 10  2  0
  8 12  2  0
  9 10  1  0
 10 13  1  0
 11 14  2  0
 12 14  1  0
 13 16  2  0
 15 17  1  0
 15 18  1  1
 16 17  1  0
 19 20  1  0
 20 21  2  0
 20 22  1  0
 21 23  1  0
 22 25  2  0
 22 24  1  0
 23 26  2  0
 24 27  1  0
 25 26  1  0
 25 28  1  0
 27 29  1  0
 28 29  1  0
M  END
>  <vina_dock>  (357) 
-10.568

$$$$
O14757_PocketFlow_idx-in-all-generaetd-864
     RDKit          3D

  9  9  0  0  0  0  0  0  0  0999 V2000
    5.3620   -2.5930   44.8820 C   0  0  0  0  0  0  0  0  0  0  0  0
    5.8790   -1.4520   44.2730 C   0  0  0  0  0  0  0  0  0  0  0  0
    4.1200   -3.0970   44.4870 C   0  0  0  0  0  0  0  0  0  0  0  0
    3.3850   -2.4700   43.4730 C   0  0  0  0  0  0  0  0  0  0  0  0
    3.9080   -1.3140   42.8790 C   0  0  0  0  0  0  0  0  0  0  0  0
    5.1510   -0.8100   43.2720 C   0  0  0  0  0  0  0  0  0  0  0  0
    2.0620   -2.9480   43.0500 C   0  0  0  0  0  0  0  0  0  0  0  0
    1.3780   -2.4550   42.0050 C   0  0  0  0  0  0  0  0  0  0  0  0
    0.0290   -2.9450   41.5920 C   0  0  0  0  0  0  0  0  0  0  0  0
  1  2  2  0
  1  3  1  0
  2  6  1  0
  3  4  2  0
  4  5  1  0
  4  7  1  0
  5  6  2  0
  7  8  2  3
  8  9  1  0
M  END
>  <vina_dock>  (358) 
-5.552

$$$$
O14757_PocketFlow_idx-in-all-generaetd-849
     RDKit          3D

 22 23  0  0  0  0  0  0  0  0999 V2000
    4.7340   -2.5660   43.5200 C   0  0  0  0  0  0  0  0  0  0  0  0
    4.8280   -2.4220   45.0290 C   0  0  0  0  0  0  0  0  0  0  0  0
    4.8700   -1.3240   45.5870 O   0  0  0  0  0  0  0  0  0  0  0  0
    4.8160   -3.7040   45.8370 C   0  0  0  0  0  0  0  0  0  0  0  0
    3.5930   -4.5420   45.5710 C   0  0  0  0  0  0  0  0  0  0  0  0
    1.2030   -4.9100   45.7610 C   0  0  0  0  0  0  0  0  0  0  0  0
    2.3310   -4.1260   46.0080 C   0  0  0  0  0  0  0  0  0  0  0  0
    1.3020   -6.1290   45.0790 C   0  0  0  0  0  0  0  0  0  0  0  0
    0.1150   -7.0060   44.8180 C   0  0  0  0  0  0  0  0  0  0  0  0
    2.5670   -6.5380   44.6350 C   0  0  0  0  0  0  0  0  0  0  0  0
    3.7010   -5.7550   44.8750 C   0  0  0  0  0  0  0  0  0  0  0  0
    0.0180   -4.4150   46.2270 O   0  0  0  0  0  0  0  0  0  0  0  0
    4.1610   -1.3160   42.8590 C   0  0  0  0  0  0  0  0  0  0  0  0
    2.7270   -1.5300   42.4410 C   0  0  0  0  0  0  0  0  0  0  0  0
    2.0370   -0.5280   41.7460 C   0  0  0  0  0  0  0  0  0  0  0  0
    2.0610   -2.7150   42.7710 C   0  0  0  0  0  0  0  0  0  0  0  0
    0.7000   -0.7100   41.3800 C   0  0  0  0  0  0  0  0  0  0  0  0
    0.7240   -2.9000   42.4070 C   0  0  0  0  0  0  0  0  0  0  0  0
    0.0400   -1.8980   41.7110 C   0  0  0  0  0  0  0  0  0  0  0  0
   -1.3780   -2.1360   41.3500 C   0  0  0  0  0  0  0  0  0  0  0  0
   -2.2920   -1.3480   41.4970 O   0  0  0  0  0  0  0  0  0  0  0  0
   -1.5870   -3.3480   40.8130 O   0  0  0  0  0  0  0  0  0  0  0  0
  1 13  1  0
  1  2  1  0
  2  3  2  0
  2  4  1  0
  4  5  1  0
  5 11  1  0
  5  7  2  0
  6  8  2  0
  6  7  1  0
  6 12  1  0
  8 10  1  0
  8  9  1  0
 10 11  2  0
 13 14  1  0
 14 15  2  0
 14 16  1  0
 15 17  1  0
 16 18  2  0
 17 19  2  0
 18 19  1  0
 19 20  1  0
 20 22  1  0
 20 21  2  0
M  END
>  <vina_dock>  (359) 
-8.25

$$$$
O14757_PocketFlow_idx-in-all-generaetd-899
     RDKit          3D

 17 17  0  0  0  0  0  0  0  0999 V2000
    1.0850   -2.7280   41.5060 C   0  0  0  0  0  0  0  0  0  0  0  0
    1.0780   -2.8780   43.0020 C   0  0  0  0  0  0  0  0  0  0  0  0
    0.7820   -4.0200   43.6410 C   0  0  0  0  0  0  0  0  0  0  0  0
    0.7560   -4.2580   45.1310 C   0  0  0  0  0  0  0  0  0  0  0  0
    0.3410   -5.6450   45.6570 C   0  0  0  0  0  0  0  0  0  0  0  0
   -0.9190   -5.6290   46.3970 N   0  0  0  0  0  0  0  0  0  0  0  0
    1.8720   -1.4880   41.0710 C   0  0  0  0  0  0  0  0  0  0  0  0
    1.8750   -0.4350   42.1450 C   0  0  0  0  0  0  0  0  0  0  0  0
    2.9260    0.2010   42.6860 C   0  0  0  0  0  0  0  0  0  0  0  0
    4.3130    0.0360   42.3100 C   0  0  0  0  0  0  0  0  0  0  0  0
    5.1820   -0.8370   42.8490 C   0  0  0  0  0  0  0  0  0  0  0  0
    4.8930   -1.8200   43.8960 C   0  0  0  0  0  0  0  0  0  0  0  0
    4.5780   -3.1440   43.5700 C   0  0  0  0  0  0  0  0  0  0  0  0
    4.9490   -1.4370   45.2410 C   0  0  0  0  0  0  0  0  0  0  0  0
    4.3150   -4.0730   44.5790 C   0  0  0  0  0  0  0  0  0  0  0  0
    4.6840   -2.3670   46.2480 C   0  0  0  0  0  0  0  0  0  0  0  0
    4.3670   -3.6840   45.9170 C   0  0  0  0  0  0  0  0  0  0  0  0
  1  7  1  0
  1  2  1  0
  2  3  2  3
  3  4  1  0
  4  5  1  0
  5  6  1  0
  7  8  1  0
  8  9  2  3
  9 10  1  0
 10 11  2  3
 11 12  1  0
 12 13  2  0
 12 14  1  0
 13 15  1  0
 14 16  2  0
 15 17  2  0
 16 17  1  0
M  END
>  <vina_dock>  (360) 
-6.215

$$$$
O14757_PocketFlow_idx-in-all-generaetd-194
     RDKit          3D

 14 14  0  0  0  0  0  0  0  0999 V2000
    1.4930   -5.6920   45.1750 C   0  0  0  0  0  0  0  0  0  0  0  0
    1.1140   -6.7490   44.5510 N   0  0  0  0  0  0  0  0  0  0  0  0
    2.4250   -4.7510   44.8220 N   0  0  0  0  0  0  0  0  0  0  0  0
    2.3070   -3.6780   43.9180 C   0  0  0  0  0  0  0  0  0  0  0  0
    1.0840   -2.2740   42.3600 C   0  0  0  0  0  0  0  0  0  0  0  0
    1.1230   -3.3480   43.2500 C   0  0  0  0  0  0  0  0  0  0  0  0
    2.2150   -1.5100   42.1080 C   0  0  0  0  0  0  0  0  0  0  0  0
    3.4050   -1.8230   42.7570 C   0  0  0  0  0  0  0  0  0  0  0  0
    3.4480   -2.8980   43.6510 C   0  0  0  0  0  0  0  0  0  0  0  0
   -0.0670   -1.9410   41.7050 O   0  0  0  0  0  0  0  0  0  0  0  0
    0.0840   -7.5090   45.2570 C   0  0  0  0  0  0  0  0  0  0  0  0
   -1.1650   -7.4590   44.4330 C   0  0  0  0  0  0  0  0  0  0  0  0
   -2.2510   -8.2190   44.6480 C   0  0  0  0  0  0  0  0  0  0  0  0
   -3.4920   -8.1520   43.8200 C   0  0  0  0  0  0  0  0  0  0  0  0
  1  2  1  0
  1  3  1  0
  2 11  1  0
  3  4  1  0
  4  6  2  0
  4  9  1  0
  5 10  1  0
  5  7  2  0
  5  6  1  0
  7  8  1  0
  8  9  2  0
 11 12  1  0
 12 13  2  3
 13 14  1  0
M  END
>  <vina_dock>  (361) 
-6.0

$$$$
O14757_PocketFlow_idx-in-all-generaetd-446
     RDKit          3D

  8  8  0  0  0  0  0  0  0  0999 V2000
    1.6550   -2.8290   42.6920 C   0  0  0  0  0  0  0  0  0  0  0  0
    2.6340   -1.8810   42.3990 C   0  0  0  0  0  0  0  0  0  0  0  0
    3.7850   -1.8300   43.1830 C   0  0  0  0  0  0  0  0  0  0  0  0
    1.8180   -3.7170   43.7560 C   0  0  0  0  0  0  0  0  0  0  0  0
    3.9600   -2.7130   44.2490 C   0  0  0  0  0  0  0  0  0  0  0  0
    2.9750   -3.6590   44.5360 C   0  0  0  0  0  0  0  0  0  0  0  0
    5.0030   -0.6660   42.8340 Cl  0  0  0  0  0  0  0  0  0  0  0  0
    0.0860   -2.9110   41.6390 Br  0  0  0  0  0  0  0  0  0  0  0  0
  1  8  1  0
  1  2  2  0
  1  4  1  0
  2  3  1  0
  3  7  1  0
  3  5  2  0
  4  6  2  0
  5  6  1  0
M  END
>  <vina_dock>  (362) 
-4.827

$$$$
O14757_PocketFlow_idx-in-all-generaetd-913
     RDKit          3D

 23 24  0  0  0  0  0  0  0  0999 V2000
   -0.4050   -6.9990   44.2210 C   0  0  0  0  0  0  0  0  0  0  0  0
    0.6950   -6.7780   44.9590 C   0  0  0  0  0  0  0  0  0  0  0  0
   -1.5260   -7.8440   44.6560 C   0  0  0  0  0  0  0  0  0  0  0  0
   -2.4230   -9.4310   46.2810 C   0  0  0  0  0  0  0  0  0  0  0  0
   -1.3980   -8.5860   45.8370 C   0  0  0  0  0  0  0  0  0  0  0  0
   -3.5920   -9.5340   45.5290 C   0  0  0  0  0  0  0  0  0  0  0  0
   -3.7270   -8.8110   44.3410 C   0  0  0  0  0  0  0  0  0  0  0  0
   -2.6980   -7.9760   43.9030 C   0  0  0  0  0  0  0  0  0  0  0  0
   -2.1520  -10.0760   47.4550 O   0  0  0  0  0  0  0  0  0  0  0  0
   -2.0010   -9.3060   48.6470 C   0  0  0  0  0  0  0  0  0  0  0  0
   -2.5020  -10.0770   49.8540 C   0  0  0  0  0  0  0  0  0  0  0  0
    1.8940   -5.9360   44.5970 C   0  0  0  0  0  0  0  0  0  0  0  0
    1.8270   -4.4070   44.8280 C   0  0  2  0  0  0  0  0  0  0  0  0
    1.0870   -3.6800   43.6960 C   0  0  0  0  0  0  0  0  0  0  0  0
    3.2280   -3.8270   45.0030 C   0  0  0  0  0  0  0  0  0  0  0  0
    3.9740   -4.1490   46.1460 C   0  0  0  0  0  0  0  0  0  0  0  0
    3.7970   -2.9700   44.0490 C   0  0  0  0  0  0  0  0  0  0  0  0
    5.2590   -3.6310   46.3290 C   0  0  0  0  0  0  0  0  0  0  0  0
    5.0840   -2.4500   44.2280 C   0  0  0  0  0  0  0  0  0  0  0  0
    5.8240   -2.7890   45.3660 C   0  0  0  0  0  0  0  0  0  0  0  0
    7.1950   -2.2630   45.6050 C   0  0  0  0  0  0  0  0  0  0  0  0
    8.1050   -2.9860   45.9910 O   0  0  0  0  0  0  0  0  0  0  0  0
    7.4200   -0.9410   45.3350 N   0  0  0  0  0  0  0  0  0  0  0  0
  1  3  1  0
  1  2  2  3
  2 12  1  0
  3  8  1  0
  3  5  2  0
  4  6  2  0
  4  5  1  0
  4  9  1  0
  6  7  1  0
  7  8  2  0
  9 10  1  0
 10 11  1  0
 12 13  1  0
 13 14  1  6
 13 15  1  0
 15 17  1  0
 15 16  2  0
 16 18  1  0
 17 19  2  0
 18 20  2  0
 19 20  1  0
 20 21  1  0
 21 23  1  0
 21 22  2  0
M  END
>  <vina_dock>  (363) 
-8.056

$$$$
O14757_PocketFlow_idx-in-all-generaetd-76
     RDKit          3D

 21 23  0  0  0  0  0  0  0  0999 V2000
    5.3950   -3.0450   45.7560 C   0  0  0  0  0  0  0  0  0  0  0  0
    4.8170   -2.5770   44.5730 C   0  0  0  0  0  0  0  0  0  0  0  0
    4.5880   -3.9010   46.5090 C   0  0  0  0  0  0  0  0  0  0  0  0
    3.5100   -2.9440   44.2020 C   0  0  0  0  0  0  0  0  0  0  0  0
    2.9180   -2.4710   43.0160 C   0  0  0  0  0  0  0  0  0  0  0  0
    1.6170   -2.8530   42.6560 C   0  0  0  0  0  0  0  0  0  0  0  0
    3.3270   -4.2880   46.1860 N   0  0  0  0  0  0  0  0  0  0  0  0
    2.7980   -3.8110   45.0510 C   0  0  0  0  0  0  0  0  0  0  0  0
    0.9140   -3.7070   43.5110 C   0  0  0  0  0  0  0  0  0  0  0  0
    1.5090   -4.1750   44.6880 C   0  0  0  0  0  0  0  0  0  0  0  0
    6.7390   -2.7030   46.1510 N   0  0  0  0  0  0  0  0  0  0  0  0
    7.4620   -3.4760   47.0780 C   0  0  0  0  0  0  0  0  0  0  0  0
    7.4490   -1.6850   45.3630 C   0  0  0  0  0  0  0  0  0  0  0  0
    8.8230   -2.9330   47.5450 C   0  0  0  0  0  0  0  0  0  0  0  0
    7.0470   -4.5170   47.5950 O   0  0  0  0  0  0  0  0  0  0  0  0
    8.6360   -1.0540   46.0910 C   0  0  0  0  0  0  0  0  0  0  0  0
    9.5300   -2.1060   46.5550 N   0  0  0  0  0  0  0  0  0  0  0  0
    0.9800   -2.3220   41.3960 C   0  0  0  0  0  0  0  0  0  0  0  0
    1.8880   -1.8660   40.4890 F   0  0  0  0  0  0  0  0  0  0  0  0
    0.2470   -3.2680   40.7490 F   0  0  0  0  0  0  0  0  0  0  0  0
    0.1310   -1.2810   41.6270 F   0  0  0  0  0  0  0  0  0  0  0  0
  1  2  2  0
  1 11  1  0
  1  3  1  0
  2  4  1  0
  3  7  2  0
  4  5  2  0
  4  8  1  0
  5  6  1  0
  6 18  1  0
  6  9  2  0
  7  8  1  0
  8 10  2  0
  9 10  1  0
 11 13  1  0
 11 12  1  0
 12 14  1  0
 12 15  2  0
 13 16  1  0
 14 17  1  0
 16 17  1  0
 18 19  1  0
 18 20  1  0
 18 21  1  0
M  END
>  <vina_dock>  (364) 
-8.701

$$$$
O14757_PocketFlow_idx-in-all-generaetd-260
     RDKit          3D

 22 23  0  0  0  0  0  0  0  0999 V2000
    4.5610   -0.6620   43.5390 C   0  0  0  0  0  0  0  0  0  0  0  0
    5.8750   -1.1760   44.0710 C   0  0  0  0  0  0  0  0  0  0  0  0
    6.1560   -1.5310   45.3360 C   0  0  0  0  0  0  0  0  0  0  0  0
    7.4690   -2.0300   45.7710 C   0  0  0  0  0  0  0  0  0  0  0  0
    9.8300   -1.6930   46.2960 C   0  0  0  0  0  0  0  0  0  0  0  0
    8.5960   -1.2000   45.8550 C   0  0  0  0  0  0  0  0  0  0  0  0
    9.9320   -3.0290   46.6790 C   0  0  0  0  0  0  0  0  0  0  0  0
    8.8130   -3.8630   46.6170 C   0  0  0  0  0  0  0  0  0  0  0  0
    7.5880   -3.3660   46.1700 C   0  0  0  0  0  0  0  0  0  0  0  0
   10.8320   -0.7640   46.3200 O   0  0  0  0  0  0  0  0  0  0  0  0
   12.0200   -1.0480   47.0580 C   0  0  0  0  0  0  0  0  0  0  0  0
   13.1960   -1.2650   46.1230 C   0  0  0  0  0  0  0  0  0  0  0  0
    3.8170   -1.5640   42.5450 C   0  0  0  0  0  0  0  0  0  0  0  0
    2.9450   -2.5740   43.2530 C   0  0  0  0  0  0  0  0  0  0  0  0
    3.4510   -3.3190   44.3260 C   0  0  0  0  0  0  0  0  0  0  0  0
    1.6290   -2.7960   42.8270 C   0  0  0  0  0  0  0  0  0  0  0  0
    2.6490   -4.2650   44.9700 C   0  0  0  0  0  0  0  0  0  0  0  0
    0.8250   -3.7420   43.4700 C   0  0  0  0  0  0  0  0  0  0  0  0
    1.3330   -4.4800   44.5450 C   0  0  0  0  0  0  0  0  0  0  0  0
    0.5190   -5.4930   45.2590 C   0  0  0  0  0  0  0  0  0  0  0  0
   -0.1120   -6.3960   44.7400 O   0  0  0  0  0  0  0  0  0  0  0  0
    0.5330   -5.3300   46.5940 O   0  0  0  0  0  0  0  0  0  0  0  0
  1 13  1  0
  1  2  1  0
  2  3  2  3
  3  4  1  0
  4  6  1  0
  4  9  2  0
  5  6  2  0
  5 10  1  0
  5  7  1  0
  7  8  2  0
  8  9  1  0
 10 11  1  0
 11 12  1  0
 13 14  1  0
 14 16  1  0
 14 15  2  0
 15 17  1  0
 16 18  2  0
 17 19  2  0
 18 19  1  0
 19 20  1  0
 20 21  2  0
 20 22  1  0
M  END
>  <vina_dock>  (365) 
-7.742

$$$$
O14757_PocketFlow_idx-in-all-generaetd-627
     RDKit          3D

 19 20  0  0  0  0  0  0  0  0999 V2000
    6.2180   -3.4660   46.6540 C   0  0  0  0  0  0  0  0  0  0  0  0
    4.9640   -3.6210   46.0450 C   0  0  0  0  0  0  0  0  0  0  0  0
    4.6290   -2.9080   44.8810 C   0  0  0  0  0  0  0  0  0  0  0  0
    5.5910   -2.0360   44.3430 C   0  0  0  0  0  0  0  0  0  0  0  0
    6.8420   -1.8780   44.9450 C   0  0  0  0  0  0  0  0  0  0  0  0
    7.1570   -2.5920   46.1000 C   0  0  0  0  0  0  0  0  0  0  0  0
    6.5000   -4.2480   47.8830 C   0  0  0  0  0  0  0  0  0  0  0  0
    6.0190   -4.0480   48.9820 O   0  0  0  0  0  0  0  0  0  0  0  0
    7.3750   -5.2490   47.6760 O   0  0  0  0  0  0  0  0  0  0  0  0
    3.3130   -3.0720   44.2430 C   0  0  0  0  0  0  0  0  0  0  0  0
    2.9360   -2.2810   43.1430 C   0  0  0  0  0  0  0  0  0  0  0  0
    2.3940   -4.0260   44.7120 C   0  0  0  0  0  0  0  0  0  0  0  0
    1.6790   -2.4250   42.5280 C   0  0  0  0  0  0  0  0  0  0  0  0
    1.1460   -4.1850   44.1060 C   0  0  0  0  0  0  0  0  0  0  0  0
    0.7910   -3.3910   43.0170 C   0  0  0  0  0  0  0  0  0  0  0  0
    1.3160   -1.5770   41.3340 C   0  0  0  0  0  0  0  0  0  0  0  0
    1.6270   -2.1680   40.1470 F   0  0  0  0  0  0  0  0  0  0  0  0
    1.9450   -0.3690   41.3220 F   0  0  0  0  0  0  0  0  0  0  0  0
   -0.0170   -1.3050   41.2770 F   0  0  0  0  0  0  0  0  0  0  0  0
  1  2  2  0
  1  6  1  0
  1  7  1  0
  2  3  1  0
  3 10  1  0
  3  4  2  0
  4  5  1  0
  5  6  2  0
  7  9  1  0
  7  8  2  0
 10 11  2  0
 10 12  1  0
 11 13  1  0
 12 14  2  0
 13 16  1  0
 13 15  2  0
 14 15  1  0
 16 17  1  0
 16 19  1  0
 16 18  1  0
M  END
>  <vina_dock>  (366) 
-8.637

$$$$
O14757_PocketFlow_idx-in-all-generaetd-333
     RDKit          3D

 26 26  0  0  0  0  0  0  0  0999 V2000
   -1.1630   -7.3010   44.1930 N   0  0  0  0  0  0  0  0  0  0  0  0
   -0.0100   -6.7380   44.0800 C   0  0  0  0  0  0  0  0  0  0  0  0
   -1.7850   -7.5110   45.5010 C   0  0  0  0  0  0  0  0  0  0  0  0
   -2.3030   -8.9520   45.6200 C   0  0  0  0  0  0  0  0  0  0  0  0
   -2.2210   -9.4790   47.0300 C   0  0  0  0  0  0  0  0  0  0  0  0
   -1.1510   -9.9480   47.6900 C   0  0  0  0  0  0  0  0  0  0  0  0
    0.1960  -10.0640   47.1770 C   0  0  0  0  0  0  0  0  0  0  0  0
    1.0990   -9.0770   47.2820 C   0  0  0  0  0  0  0  0  0  0  0  0
    2.4840   -9.2290   46.7510 C   0  0  0  0  0  0  0  0  0  0  0  0
    2.7290  -10.0120   45.7510 N   0  0  0  0  0  0  0  0  0  0  0  0
    3.5160   -8.5430   47.3190 N   0  0  0  0  0  0  0  0  0  0  0  0
    0.8960   -6.2070   45.1670 C   0  0  0  0  0  0  0  0  0  0  0  0
    2.3160   -6.2430   44.6840 C   0  0  0  0  0  0  0  0  0  0  0  0
    3.3460   -5.4840   45.0970 C   0  0  0  0  0  0  0  0  0  0  0  0
    3.3460   -4.4250   46.1640 C   0  0  0  0  0  0  0  0  0  0  0  0
    4.7440   -3.9630   46.4660 C   0  0  0  0  0  0  0  0  0  0  0  0
    5.3880   -2.8900   45.9750 C   0  0  0  0  0  0  0  0  0  0  0  0
    4.8470   -1.9190   45.0530 C   0  0  0  0  0  0  0  0  0  0  0  0
    4.6130   -2.2030   43.7610 C   0  0  0  0  0  0  0  0  0  0  0  0
    4.0600   -1.2170   42.7720 C   0  0  0  0  0  0  0  0  0  0  0  0
    2.6390   -1.5390   42.3710 C   0  0  0  0  0  0  0  0  0  0  0  0
    1.8820   -0.6200   41.6300 C   0  0  0  0  0  0  0  0  0  0  0  0
    2.0480   -2.7520   42.7560 C   0  0  0  0  0  0  0  0  0  0  0  0
    0.5660   -0.9140   41.2710 C   0  0  0  0  0  0  0  0  0  0  0  0
    0.7310   -3.0440   42.3960 C   0  0  0  0  0  0  0  0  0  0  0  0
   -0.0090   -2.1270   41.6520 C   0  0  0  0  0  0  0  0  0  0  0  0
  1  2  2  3
  1  3  1  0
  2 12  1  0
  3  4  1  0
  4  5  1  0
  5  6  2  3
  6  7  1  0
  7  8  2  3
  8  9  1  0
  9 10  2  3
  9 11  1  0
 12 13  1  0
 13 14  2  3
 14 15  1  0
 15 16  1  0
 16 17  2  3
 17 18  1  0
 18 19  2  3
 19 20  1  0
 20 21  1  0
 21 22  2  0
 21 23  1  0
 22 24  1  0
 23 25  2  0
 24 26  2  0
 25 26  1  0
M  END
>  <vina_dock>  (367) 
-7.412

$$$$
O14757_PocketFlow_idx-in-all-generaetd-709
     RDKit          3D

 24 26  0  0  0  0  0  0  0  0999 V2000
    6.8290   -2.2230   45.5860 C   0  0  0  0  0  0  0  0  0  0  0  0
    6.3560   -3.4260   46.1070 C   0  0  0  0  0  0  0  0  0  0  0  0
    6.0790   -1.5530   44.6130 C   0  0  0  0  0  0  0  0  0  0  0  0
    4.8580   -2.0760   44.1540 C   0  0  0  0  0  0  0  0  0  0  0  0
    4.1230   -1.3870   43.1750 C   0  0  0  0  0  0  0  0  0  0  0  0
    2.9090   -1.8820   42.6910 C   0  0  0  0  0  0  0  0  0  0  0  0
    2.4160   -3.0810   43.2140 C   0  0  0  0  0  0  0  0  0  0  0  0
    3.1210   -3.8010   44.1980 C   0  0  0  0  0  0  0  0  0  0  0  0
    4.3640   -3.2980   44.6770 C   0  0  0  0  0  0  0  0  0  0  0  0
    5.1420   -3.9540   45.6590 C   0  0  0  0  0  0  0  0  0  0  0  0
    8.1220   -1.6980   46.0880 C   0  0  0  0  0  0  0  0  0  0  0  0
    8.9580   -2.3320   46.7040 O   0  0  0  0  0  0  0  0  0  0  0  0
    8.3060   -0.3990   45.7950 O   0  0  0  0  0  0  0  0  0  0  0  0
    2.5330   -5.0550   44.6920 C   0  0  0  0  0  0  0  0  0  0  0  0
    3.3200   -6.2090   44.8290 C   0  0  0  0  0  0  0  0  0  0  0  0
    1.1710   -5.1230   45.0260 C   0  0  0  0  0  0  0  0  0  0  0  0
    2.7640   -7.4020   45.2950 C   0  0  0  0  0  0  0  0  0  0  0  0
    0.6090   -6.3190   45.4940 C   0  0  0  0  0  0  0  0  0  0  0  0
    1.4100   -7.4590   45.6280 C   0  0  0  0  0  0  0  0  0  0  0  0
   -0.8340   -6.3280   45.8350 C   0  0  0  0  0  0  0  0  0  0  0  0
   -1.6350   -7.1860   45.5150 O   0  0  0  0  0  0  0  0  0  0  0  0
   -1.2060   -5.2610   46.5630 O   0  0  0  0  0  0  0  0  0  0  0  0
    2.2310   -1.1470   41.7400 N   0  0  0  0  0  0  0  0  0  0  0  0
    1.3900   -1.8030   41.1120 O   0  0  0  0  0  0  0  0  0  0  0  0
  1  3  2  0
  1 11  1  0
  1  2  1  0
  2 10  2  0
  3  4  1  0
  4  5  2  0
  4  9  1  0
  5  6  1  0
  6 23  1  0
  6  7  2  0
  7  8  1  0
  8  9  2  0
  8 14  1  0
  9 10  1  0
 11 13  1  0
 11 12  2  0
 14 15  2  0
 14 16  1  0
 15 17  1  0
 16 18  2  0
 17 19  2  0
 18 19  1  0
 18 20  1  0
 20 21  2  0
 20 22  1  0
 23 24  1  0
M  END
>  <vina_dock>  (368) 
-9.076

$$$$
O14757_PocketFlow_idx-in-all-generaetd-301
     RDKit          3D

 16 17  0  0  0  0  0  0  0  0999 V2000
    1.3880   -3.7350   44.7030 C   0  0  0  0  0  0  0  0  0  0  0  0
    1.3600   -5.2020   45.0750 C   0  0  0  0  0  0  0  0  0  0  0  0
    2.5040   -7.3230   45.3840 C   0  0  0  0  0  0  0  0  0  0  0  0
    2.5320   -5.9700   45.0430 C   0  0  0  0  0  0  0  0  0  0  0  0
    1.3040   -7.9220   45.7630 C   0  0  0  0  0  0  0  0  0  0  0  0
    0.1340   -7.1690   45.8050 C   0  0  0  0  0  0  0  0  0  0  0  0
    0.1610   -5.8140   45.4650 C   0  0  0  0  0  0  0  0  0  0  0  0
    2.0870   -3.3550   43.3720 C   0  0  2  0  0  0  0  0  0  0  0  0
    3.3840   -2.5780   43.5840 C   0  0  0  0  0  0  0  0  0  0  0  0
    4.3350   -2.9500   44.5480 C   0  0  0  0  0  0  0  0  0  0  0  0
    3.6650   -1.4680   42.7690 C   0  0  0  0  0  0  0  0  0  0  0  0
    5.5220   -2.2290   44.6990 C   0  0  0  0  0  0  0  0  0  0  0  0
    4.8510   -0.7470   42.9220 C   0  0  0  0  0  0  0  0  0  0  0  0
    5.7790   -1.1270   43.8870 C   0  0  0  0  0  0  0  0  0  0  0  0
    1.1530   -2.7070   42.3660 C   0  0  0  0  0  0  0  0  0  0  0  0
    0.1330   -3.3340   41.7620 C   0  0  0  0  0  0  0  0  0  0  0  0
  8  1  1  1
  1  2  1  0
  2  4  1  0
  2  7  2  0
  3  4  2  0
  3  5  1  0
  5  6  2  0
  6  7  1  0
  8 15  1  0
  8  9  1  0
  9 11  1  0
  9 10  2  0
 10 12  1  0
 11 13  2  0
 12 14  2  0
 13 14  1  0
 15 16  2  0
M  END
>  <vina_dock>  (369) 
-7.26

$$$$
O14757_PocketFlow_idx-in-all-generaetd-571
     RDKit          3D

 35 39  0  0  0  0  0  0  0  0999 V2000
    5.2280   -2.9520   44.0300 O   0  0  0  0  0  0  0  0  0  0  0  0
    5.4590   -2.0190   45.0820 C   0  0  0  0  0  0  0  0  0  0  0  0
    6.8580   -2.1560   45.6330 C   0  0  0  0  0  0  0  0  0  0  0  0
   10.0250   -4.9540   48.3120 C   0  0  1  0  0  0  0  0  0  0  0  0
   11.4510   -4.8410   47.7180 C   0  0  1  0  0  0  0  0  0  0  0  0
    8.9190   -4.9100   47.2440 C   0  0  0  0  0  0  0  0  0  0  0  0
   11.9130   -6.0090   46.8600 C   0  0  0  0  0  0  0  0  0  0  0  0
   11.6410   -3.7190   46.7110 C   0  0  1  0  0  0  0  0  0  0  0  0
    8.6170   -3.5510   46.6500 C   0  0  0  0  0  0  0  0  0  0  0  0
   11.6370   -5.6010   45.4710 N   0  0  0  0  0  0  0  0  0  0  0  0
   11.4750   -4.3580   45.3910 N   0  0  0  0  0  0  0  0  0  0  0  0
   10.8560   -2.5260   47.0210 N   0  0  0  0  0  0  0  0  0  0  0  0
    7.3100   -3.3820   46.1370 C   0  0  0  0  0  0  0  0  0  0  0  0
    9.5230   -2.4820   46.5680 C   0  0  0  0  0  0  0  0  0  0  0  0
    9.0440   -1.2410   46.1010 C   0  0  0  0  0  0  0  0  0  0  0  0
    7.7400   -1.0790   45.6260 C   0  0  0  0  0  0  0  0  0  0  0  0
    9.8360   -6.2060   49.1920 C   0  0  0  0  0  0  0  0  0  0  0  0
    8.4340   -6.7450   49.1060 C   0  0  0  0  0  0  0  0  0  0  0  0
    7.6010   -6.5690   49.9900 O   0  0  0  0  0  0  0  0  0  0  0  0
    4.0680   -3.7550   44.2490 C   0  0  2  0  0  0  0  0  0  0  0  0
    2.9210   -3.1230   43.4730 C   0  0  0  0  0  0  0  0  0  0  0  0
    3.7390   -3.7630   45.6340 O   0  0  0  0  0  0  0  0  0  0  0  0
    1.5580   -3.3400   44.1230 C   0  0  2  0  0  0  0  0  0  0  0  0
    3.2320   -5.0260   46.0650 C   0  0  0  0  0  0  0  0  0  0  0  0
    1.2790   -4.7760   44.4830 C   0  0  0  0  0  0  0  0  0  0  0  0
    1.9760   -5.5510   45.3440 C   0  0  0  0  0  0  0  0  0  0  0  0
    0.5730   -2.9300   43.1590 O   0  0  0  0  0  0  0  0  0  0  0  0
    1.1230   -2.4980   41.9160 C   0  0  0  0  0  0  0  0  0  0  0  0
    0.6550   -1.0810   41.5900 C   0  0  0  0  0  0  0  0  0  0  0  0
    1.8130   -0.0990   41.5700 C   0  0  0  0  0  0  0  0  0  0  0  0
    1.6080   -6.8790   45.6480 N   0  0  0  0  0  0  0  0  0  0  0  0
    0.3350   -7.3760   45.8510 C   0  0  0  0  0  0  0  0  0  0  0  0
    2.5780   -7.9850   45.8270 C   0  0  0  0  0  0  0  0  0  0  0  0
    0.3240   -8.6620   46.2140 C   0  0  0  0  0  0  0  0  0  0  0  0
    1.7250   -9.1780   46.3040 C   0  0  0  0  0  0  0  0  0  0  0  0
 20  1  1  1
  1  2  1  0
  2  3  1  0
  3 16  2  0
  3 13  1  0
  4  6  1  0
  4  5  1  0
  4 17  1  6
  5  8  1  0
  5  7  1  6
  6  9  1  0
  7 10  1  0
  8 11  1  6
  8 12  1  0
  9 13  2  0
  9 14  1  0
 10 11  1  0
 12 14  1  0
 14 15  2  0
 15 16  1  0
 17 18  1  0
 18 19  2  0
 20 21  1  0
 20 22  1  0
 21 23  1  0
 22 24  1  0
 23 27  1  6
 23 25  1  0
 24 26  1  0
 25 26  2  0
 26 31  1  0
 27 28  1  0
 28 29  1  0
 29 30  1  0
 31 33  1  0
 31 32  1  0
 32 34  2  0
 33 35  2  0
 34 35  1  0
M  END
>  <vina_dock>  (370) 
-8.082

$$$$
O14757_PocketFlow_idx-in-all-generaetd-638
     RDKit          3D

 35 37  0  0  0  0  0  0  0  0999 V2000
    6.6890   -3.6980   47.1610 C   0  0  0  0  0  0  0  0  0  0  0  0
    5.6490   -3.2300   46.3360 C   0  0  0  0  0  0  0  0  0  0  0  0
    4.5490   -4.0970   46.2280 C   0  0  0  0  0  0  0  0  0  0  0  0
    6.6150   -4.8520   47.8610 N   0  0  0  0  0  0  0  0  0  0  0  0
    5.5000   -5.5660   47.7230 C   0  0  0  0  0  0  0  0  0  0  0  0
    4.4650   -5.2410   46.9490 N   0  0  0  0  0  0  0  0  0  0  0  0
    7.9920   -2.9570   47.3720 C   0  0  0  0  0  0  0  0  0  0  0  0
    9.1970   -3.7920   46.9300 C   0  0  0  0  0  0  0  0  0  0  0  0
   10.3900   -2.9550   46.4510 C   0  0  0  0  0  0  0  0  0  0  0  0
   10.3660   -1.4700   46.8040 C   0  0  2  0  0  0  0  0  0  0  0  0
    9.6020   -0.8030   45.9000 F   0  0  0  0  0  0  0  0  0  0  0  0
   11.9850   -0.7510   46.8590 Cl  0  0  0  0  0  0  0  0  0  0  0  0
    5.7760   -1.8860   45.6210 C   0  0  2  0  0  0  0  0  0  0  0  0
    4.8100   -0.8030   46.1270 C   0  0  0  0  0  0  0  0  0  0  0  0
    5.7630   -2.0670   44.0860 C   0  0  0  0  0  0  0  0  0  0  0  0
    5.0990   -0.9250   43.3620 C   0  0  0  0  0  0  0  0  0  0  0  0
    3.9050   -0.9370   42.7480 C   0  0  0  0  0  0  0  0  0  0  0  0
    2.9570   -2.0940   42.5920 C   0  0  0  0  0  0  0  0  0  0  0  0
    1.6680   -1.6710   41.9220 C   0  0  0  0  0  0  0  0  0  0  0  0
    0.5520   -2.4260   41.8520 C   0  0  0  0  0  0  0  0  0  0  0  0
    1.6870   -0.2810   41.3370 C   0  0  0  0  0  0  0  0  0  0  0  0
    0.3580   -3.8200   42.3550 C   0  0  0  0  0  0  0  0  0  0  0  0
    3.3370   -3.8110   45.3590 C   0  0  0  0  0  0  0  0  0  0  0  0
    2.2300   -4.8460   45.4020 C   0  0  0  0  0  0  0  0  0  0  0  0
    2.3920   -6.0930   44.7850 C   0  0  0  0  0  0  0  0  0  0  0  0
    1.0200   -4.5670   46.0500 C   0  0  0  0  0  0  0  0  0  0  0  0
    1.3700   -7.0450   44.8280 C   0  0  0  0  0  0  0  0  0  0  0  0
    0.0010   -5.5240   46.0930 C   0  0  0  0  0  0  0  0  0  0  0  0
    0.1570   -6.7800   45.4850 C   0  0  0  0  0  0  0  0  0  0  0  0
   -0.9180   -7.7840   45.5280 C   0  0  0  0  0  0  0  0  0  0  0  0
   -2.0300   -7.6910   44.6750 C   0  0  0  0  0  0  0  0  0  0  0  0
   -0.8640   -8.8650   46.4240 C   0  0  0  0  0  0  0  0  0  0  0  0
   -3.0520   -8.6430   44.7170 C   0  0  0  0  0  0  0  0  0  0  0  0
   -1.8840   -9.8190   46.4660 C   0  0  0  0  0  0  0  0  0  0  0  0
   -2.9790   -9.7060   45.6120 C   0  0  0  0  0  0  0  0  0  0  0  0
  1  2  2  0
  1  7  1  0
  1  4  1  0
  2 13  1  0
  2  3  1  0
  3 23  1  0
  3  6  2  0
  4  5  2  0
  5  6  1  0
  7  8  1  0
  8  9  1  0
  9 10  1  0
 10 11  1  6
 10 12  1  0
 13 15  1  0
 13 14  1  6
 15 16  1  0
 16 17  2  3
 17 18  1  0
 18 19  1  0
 19 21  1  0
 19 20  2  3
 20 22  1  0
 23 24  1  0
 24 25  2  0
 24 26  1  0
 25 27  1  0
 26 28  2  0
 27 29  2  0
 28 29  1  0
 29 30  1  0
 30 31  2  0
 30 32  1  0
 31 33  1  0
 32 34  2  0
 33 35  2  0
 34 35  1  0
M  END
>  <vina_dock>  (371) 
-8.52

$$$$
O14757_PocketFlow_idx-in-all-generaetd-684
     RDKit          3D

 23 26  0  0  0  0  0  0  0  0999 V2000
    0.2990   -2.6540   41.9010 C   0  0  0  0  0  0  0  0  0  0  0  0
    0.5140   -3.3570   43.0860 C   0  0  0  0  0  0  0  0  0  0  0  0
    1.7700   -3.3000   43.7130 C   0  0  0  0  0  0  0  0  0  0  0  0
    1.3220   -1.8940   41.3410 C   0  0  0  0  0  0  0  0  0  0  0  0
    2.0000   -4.0500   45.0050 C   0  0  0  0  0  0  0  0  0  0  0  0
    3.4460   -4.5560   45.1410 C   0  0  2  0  0  0  0  0  0  0  0  0
    4.4360   -3.4430   44.8440 C   0  0  0  0  0  0  0  0  0  0  0  0
    5.6730   -3.4230   45.5180 C   0  0  0  0  0  0  0  0  0  0  0  0
    6.6170   -2.4140   45.2820 C   0  0  0  0  0  0  0  0  0  0  0  0
    6.2890   -1.4230   44.3500 C   0  0  0  0  0  0  0  0  0  0  0  0
    5.0650   -1.4410   43.6680 C   0  0  0  0  0  0  0  0  0  0  0  0
    4.1180   -2.4540   43.8880 C   0  0  0  0  0  0  0  0  0  0  0  0
    2.8160   -2.5100   43.1780 C   0  0  0  0  0  0  0  0  0  0  0  0
    2.5680   -1.8250   41.9750 C   0  0  0  0  0  0  0  0  0  0  0  0
    3.7160   -5.7700   44.2460 C   0  0  0  0  0  0  0  0  0  0  0  0
   -1.0210   -2.7260   41.2430 C   0  0  0  0  0  0  0  0  0  0  0  0
   -1.9410   -1.9760   41.5410 O   0  0  0  0  0  0  0  0  0  0  0  0
    7.9060   -2.3980   45.9910 C   0  0  0  0  0  0  0  0  0  0  0  0
    8.4360   -3.5700   46.5560 C   0  0  0  0  0  0  0  0  0  0  0  0
    8.6450   -1.2110   46.1240 C   0  0  0  0  0  0  0  0  0  0  0  0
    9.6600   -3.5550   47.2310 C   0  0  0  0  0  0  0  0  0  0  0  0
    9.8690   -1.1940   46.7990 C   0  0  0  0  0  0  0  0  0  0  0  0
   10.3760   -2.3680   47.3520 C   0  0  0  0  0  0  0  0  0  0  0  0
  1 16  1  0
  1  4  2  0
  1  2  1  0
  2  3  2  0
  3 13  1  0
  3  5  1  0
  4 14  1  0
  5  6  1  0
  6 15  1  6
  6  7  1  0
  7 12  2  0
  7  8  1  0
  8  9  2  0
  9 10  1  0
  9 18  1  0
 10 11  2  0
 11 12  1  0
 12 13  1  0
 13 14  2  0
 16 17  2  0
 18 20  1  0
 18 19  2  0
 19 21  1  0
 20 22  2  0
 21 23  2  0
 22 23  1  0
M  END
>  <vina_dock>  (372) 
-10.694

$$$$
O14757_PocketFlow_idx-in-all-generaetd-424
     RDKit          3D

 29 32  0  0  0  0  0  0  0  0999 V2000
    4.1300   -0.1790   43.1170 C   0  0  0  0  0  0  0  0  0  0  0  0
    3.2140   -0.9640   42.1710 C   0  0  0  0  0  0  0  0  0  0  0  0
    1.9930   -0.1670   41.7060 C   0  0  0  0  0  0  0  0  0  0  0  0
    0.7990   -1.0640   41.4830 C   0  0  0  0  0  0  0  0  0  0  0  0
   -1.5940   -1.3870   41.3380 C   0  0  0  0  0  0  0  0  0  0  0  0
   -0.5030   -0.5420   41.5270 C   0  0  0  0  0  0  0  0  0  0  0  0
   -1.4150   -2.7460   41.1080 C   0  0  0  0  0  0  0  0  0  0  0  0
   -0.1260   -3.2730   41.0690 C   0  0  0  0  0  0  0  0  0  0  0  0
    0.9770   -2.4370   41.2570 C   0  0  0  0  0  0  0  0  0  0  0  0
   -2.8730   -0.9130   41.3720 O   0  0  0  0  0  0  0  0  0  0  0  0
    5.0810   -1.0710   43.9210 C   0  0  0  0  0  0  0  0  0  0  0  0
    4.9170   -2.5620   43.6100 C   0  0  0  0  0  0  0  0  0  0  0  0
    4.8200   -3.4380   44.8620 C   0  0  0  0  0  0  0  0  0  0  0  0
    3.5020   -4.1680   44.9260 C   0  0  0  0  0  0  0  0  0  0  0  0
    2.3060   -3.5050   44.6360 C   0  0  0  0  0  0  0  0  0  0  0  0
    3.4590   -5.5290   45.2470 C   0  0  0  0  0  0  0  0  0  0  0  0
    1.0840   -4.1850   44.6800 C   0  0  0  0  0  0  0  0  0  0  0  0
    2.2380   -6.2070   45.2920 C   0  0  0  0  0  0  0  0  0  0  0  0
    1.0280   -5.5440   45.0200 C   0  0  0  0  0  0  0  0  0  0  0  0
   -0.2790   -6.3330   45.0750 C   0  0  2  0  0  0  0  0  0  0  0  0
   -1.1450   -5.9200   46.2040 N   0  0  0  0  0  0  0  0  0  0  0  0
   -0.1540   -7.8720   44.9980 C   0  0  0  0  0  0  0  0  0  0  0  0
   -0.6490   -6.4270   47.4360 N   0  0  0  0  0  0  0  0  0  0  0  0
   -0.0310   -8.5370   46.3460 C   0  0  0  0  0  0  0  0  0  0  0  0
   -0.3370   -7.8090   47.5070 C   0  0  0  0  0  0  0  0  0  0  0  0
    0.3470   -9.8850   46.4400 C   0  0  0  0  0  0  0  0  0  0  0  0
   -0.1820   -8.4250   48.7550 C   0  0  0  0  0  0  0  0  0  0  0  0
    0.4610  -10.4950   47.6870 C   0  0  0  0  0  0  0  0  0  0  0  0
    0.2030   -9.7640   48.8440 C   0  0  0  0  0  0  0  0  0  0  0  0
  1  2  1  0
  1 11  1  0
  2  3  1  0
  3  4  1  0
  4  9  1  0
  4  6  2  0
  5  7  2  0
  5 10  1  0
  5  6  1  0
  7  8  1  0
  8  9  2  0
 11 12  1  0
 12 13  1  0
 13 14  1  0
 14 15  2  0
 14 16  1  0
 15 17  1  0
 16 18  2  0
 17 19  2  0
 18 19  1  0
 20 19  1  1
 20 22  1  0
 20 21  1  0
 21 23  1  0
 22 24  1  0
 23 25  1  0
 24 26  1  0
 24 25  2  0
 25 27  1  0
 26 28  2  0
 27 29  2  0
 28 29  1  0
M  END
>  <vina_dock>  (373) 
-5.53

$$$$
O14757_PocketFlow_idx-in-all-generaetd-744
     RDKit          3D

 13 13  0  0  0  0  0  0  0  0999 V2000
    4.8870   -0.8440   44.0500 C   0  0  0  0  0  0  0  0  0  0  0  0
    6.2150   -1.4590   44.4890 C   0  0  0  0  0  0  0  0  0  0  0  0
    6.0600   -2.2850   45.7510 C   0  0  0  0  0  0  0  0  0  0  0  0
    4.8800   -1.9960   46.3500 F   0  0  0  0  0  0  0  0  0  0  0  0
    6.0170   -3.6000   45.4210 F   0  0  0  0  0  0  0  0  0  0  0  0
    4.3900   -1.4680   42.7450 C   0  0  0  0  0  0  0  0  0  0  0  0
    3.1090   -2.2330   42.9460 C   0  0  0  0  0  0  0  0  0  0  0  0
    1.9900   -1.9660   42.1510 C   0  0  0  0  0  0  0  0  0  0  0  0
    3.0180   -3.2430   43.9130 C   0  0  0  0  0  0  0  0  0  0  0  0
    2.0520   -1.0130   41.2100 F   0  0  0  0  0  0  0  0  0  0  0  0
    0.8020   -2.6730   42.3120 C   0  0  0  0  0  0  0  0  0  0  0  0
    1.8290   -3.9570   44.0790 C   0  0  0  0  0  0  0  0  0  0  0  0
    0.7200   -3.6730   43.2810 C   0  0  0  0  0  0  0  0  0  0  0  0
  1  6  1  0
  1  2  1  0
  2  3  1  0
  3  5  1  0
  3  4  1  0
  6  7  1  0
  7  8  2  0
  7  9  1  0
  8 10  1  0
  8 11  1  0
  9 12  2  0
 11 13  2  0
 12 13  1  0
M  END
>  <vina_dock>  (374) 
-6.085

$$$$
O14757_PocketFlow_idx-in-all-generaetd-409
     RDKit          3D

  9  9  0  0  0  0  0  0  0  0999 V2000
    2.0070   -2.6080   42.6410 C   0  0  0  0  0  0  0  0  0  0  0  0
    3.3480   -2.2090   43.2080 C   0  0  0  0  0  0  0  0  0  0  0  0
    3.9740   -3.0050   44.1770 C   0  0  0  0  0  0  0  0  0  0  0  0
    3.9830   -1.0370   42.7790 C   0  0  0  0  0  0  0  0  0  0  0  0
    5.2120   -2.6360   44.7060 C   0  0  0  0  0  0  0  0  0  0  0  0
    5.2210   -0.6680   43.3100 C   0  0  0  0  0  0  0  0  0  0  0  0
    5.8340   -1.4660   44.2730 C   0  0  0  0  0  0  0  0  0  0  0  0
    1.6230   -1.8440   41.3710 C   0  0  0  0  0  0  0  0  0  0  0  0
    0.5390   -0.8000   41.6040 C   0  0  0  0  0  0  0  0  0  0  0  0
  1  8  1  0
  1  2  1  0
  2  4  2  0
  2  3  1  0
  3  5  2  0
  4  6  1  0
  5  7  1  0
  6  7  2  0
  8  9  1  0
M  END
>  <vina_dock>  (375) 
-5.364

$$$$
O14757_PocketFlow_idx-in-all-generaetd-747
     RDKit          3D

 26 27  0  0  0  0  0  0  0  0999 V2000
    1.5610   -3.9970   44.3390 C   0  0  0  0  0  0  0  0  0  0  0  0
    2.8040   -3.3590   44.3780 C   0  0  0  0  0  0  0  0  0  0  0  0
    3.1900   -2.4840   43.3560 C   0  0  0  0  0  0  0  0  0  0  0  0
    0.6930   -3.7310   43.2810 C   0  0  0  0  0  0  0  0  0  0  0  0
    1.0650   -2.8400   42.2690 C   0  0  0  0  0  0  0  0  0  0  0  0
    2.3100   -2.2130   42.3030 C   0  0  0  0  0  0  0  0  0  0  0  0
    1.3210   -4.8260   45.3970 O   0  0  0  0  0  0  0  0  0  0  0  0
    0.7230   -6.1060   45.1580 C   0  0  2  0  0  0  0  0  0  0  0  0
   -0.4320   -6.3770   46.1350 C   0  0  0  0  0  0  0  0  0  0  0  0
   -1.1170   -5.2050   46.5250 O   0  0  0  0  0  0  0  0  0  0  0  0
    0.0450   -6.9510   47.3400 O   0  0  0  0  0  0  0  0  0  0  0  0
    1.8330   -7.0800   45.4720 C   0  0  0  0  0  0  0  0  0  0  0  0
    1.6780   -8.3000   45.4900 O   0  0  0  0  0  0  0  0  0  0  0  0
    4.5170   -1.8300   43.4490 C   0  0  0  0  0  0  0  0  0  0  0  0
    4.8220   -0.9680   42.6300 O   0  0  0  0  0  0  0  0  0  0  0  0
    5.4900   -2.1890   44.5130 C   0  0  0  0  0  0  0  0  0  0  0  0
    5.1960   -3.1420   45.4960 C   0  0  0  0  0  0  0  0  0  0  0  0
    6.7110   -1.5100   44.5530 C   0  0  0  0  0  0  0  0  0  0  0  0
    6.1300   -3.4510   46.5070 C   0  0  0  0  0  0  0  0  0  0  0  0
    7.6420   -1.8070   45.5490 C   0  0  0  0  0  0  0  0  0  0  0  0
    7.3570   -2.7750   46.5180 C   0  0  0  0  0  0  0  0  0  0  0  0
    8.5640   -3.0850   47.7110 Cl  0  0  0  0  0  0  0  0  0  0  0  0
    5.7950   -4.4860   47.5500 C   0  0  0  0  0  0  0  0  0  0  0  0
    6.7460   -5.4490   47.6730 F   0  0  0  0  0  0  0  0  0  0  0  0
    4.6190   -5.1250   47.3030 F   0  0  0  0  0  0  0  0  0  0  0  0
    5.6570   -3.9510   48.7980 F   0  0  0  0  0  0  0  0  0  0  0  0
  1  4  2  0
  1  2  1  0
  1  7  1  0
  2  3  2  0
  3  6  1  0
  3 14  1  0
  4  5  1  0
  5  6  2  0
  8  7  1  1
  8 12  1  0
  8  9  1  0
  9 10  1  0
  9 11  1  0
 12 13  2  0
 14 15  2  0
 14 16  1  0
 16 18  1  0
 16 17  2  0
 17 19  1  0
 18 20  2  0
 19 21  2  0
 19 23  1  0
 20 21  1  0
 21 22  1  0
 23 25  1  0
 23 24  1  0
 23 26  1  0
M  END
>  <vina_dock>  (376) 
-8.352

$$$$
O14757_PocketFlow_idx-in-all-generaetd-983
     RDKit          3D

 13 15  0  0  0  0  0  0  0  0999 V2000
    0.4360   -3.0110   42.4120 C   0  0  0  0  0  0  0  0  0  0  0  0
    1.3330   -3.4870   43.3530 C   0  0  0  0  0  0  0  0  0  0  0  0
    1.1430   -4.6460   44.2800 C   0  0  0  0  0  0  0  0  0  0  0  0
    2.2450   -4.3750   45.3080 C   0  0  0  0  0  0  0  0  0  0  0  0
    0.8310   -1.9440   41.6090 C   0  0  0  0  0  0  0  0  0  0  0  0
    2.1120   -1.3820   41.7480 C   0  0  0  0  0  0  0  0  0  0  0  0
    3.0250   -1.8660   42.7010 C   0  0  0  0  0  0  0  0  0  0  0  0
    2.6140   -2.9260   43.5010 C   0  0  0  0  0  0  0  0  0  0  0  0
    3.3980   -3.6820   44.5430 C   0  0  1  0  0  0  0  0  0  0  0  0
    4.3680   -1.2820   42.7590 C   0  0  0  0  0  0  0  0  0  0  0  0
    5.2130   -1.2770   43.8010 C   0  0  0  0  0  0  0  0  0  0  0  0
    5.0040   -1.8030   45.1280 C   0  0  0  0  0  0  0  0  0  0  0  0
    4.2490   -2.8580   45.4640 C   0  0  0  0  0  0  0  0  0  0  0  0
  1  5  2  0
  1  2  1  0
  2  8  2  0
  2  3  1  0
  3  4  1  0
  9  4  1  1
  5  6  1  0
  6  7  2  0
  7 10  1  0
  7  8  1  0
  8  9  1  0
  9 13  1  0
 10 11  2  0
 11 12  1  0
 12 13  2  0
M  END
>  <vina_dock>  (377) 
-7.87

$$$$
O14757_PocketFlow_idx-in-all-generaetd-650
     RDKit          3D

 32 35  0  0  0  0  0  0  0  0999 V2000
    0.8210   -4.1390   45.2180 C   0  0  0  0  0  0  0  0  0  0  0  0
    2.1700   -4.3690   45.9150 C   0  0  0  0  0  0  0  0  0  0  0  0
    3.3330   -4.5560   44.9690 C   0  0  0  0  0  0  0  0  0  0  0  0
    3.7620   -5.7590   44.5560 C   0  0  0  0  0  0  0  0  0  0  0  0
    4.0550   -3.3410   44.5350 C   0  0  0  0  0  0  0  0  0  0  0  0
    7.8880   -2.2220   45.9850 C   0  0  0  0  0  0  0  0  0  0  0  0
    7.2940   -3.3870   46.4670 C   0  0  0  0  0  0  0  0  0  0  0  0
    7.2160   -1.4350   45.0480 C   0  0  0  0  0  0  0  0  0  0  0  0
    6.0330   -3.7640   46.0020 C   0  0  0  0  0  0  0  0  0  0  0  0
    5.9480   -1.8090   44.5690 C   0  0  0  0  0  0  0  0  0  0  0  0
    5.3320   -2.9910   45.0460 C   0  0  0  0  0  0  0  0  0  0  0  0
    5.2930   -1.0160   43.6120 C   0  0  0  0  0  0  0  0  0  0  0  0
    4.0210   -1.3400   43.1410 C   0  0  0  0  0  0  0  0  0  0  0  0
    3.4370   -2.5320   43.5690 C   0  0  0  0  0  0  0  0  0  0  0  0
    9.2290   -1.8200   46.4670 C   0  0  0  0  0  0  0  0  0  0  0  0
    9.9120   -2.5340   47.4460 N   0  0  0  0  0  0  0  0  0  0  0  0
    9.8780   -0.7840   45.9690 N   0  0  0  0  0  0  0  0  0  0  0  0
   11.2160   -1.9120   47.4640 C   0  0  0  0  0  0  0  0  0  0  0  0
   11.0790   -0.7120   46.6470 N   0  0  0  0  0  0  0  0  0  0  0  0
    3.4430   -0.6000   42.1010 N   0  0  0  0  0  0  0  0  0  0  0  0
    0.6130   -5.0070   43.9730 C   0  0  0  0  0  0  0  0  0  0  0  0
   -0.4010   -6.0230   44.2430 N   0  0  0  0  0  0  0  0  0  0  0  0
   -0.2520   -6.9180   45.3050 C   0  0  0  0  0  0  0  0  0  0  0  0
    0.8040   -7.8280   45.4220 C   0  0  0  0  0  0  0  0  0  0  0  0
   -1.1310   -6.8110   46.3910 C   0  0  0  0  0  0  0  0  0  0  0  0
    0.9400   -8.6460   46.5530 C   0  0  0  0  0  0  0  0  0  0  0  0
   -0.9990   -7.6170   47.5280 C   0  0  0  0  0  0  0  0  0  0  0  0
    0.0390   -8.5480   47.6190 C   0  0  0  0  0  0  0  0  0  0  0  0
    0.1740   -9.4270   48.8380 C   0  0  0  0  0  0  0  0  0  0  0  0
   -1.0100   -9.9940   49.2070 F   0  0  0  0  0  0  0  0  0  0  0  0
    1.0440  -10.4610   48.6700 F   0  0  0  0  0  0  0  0  0  0  0  0
    0.6150   -8.7440   49.9330 F   0  0  0  0  0  0  0  0  0  0  0  0
  1 21  1  0
  1  2  1  0
  2  3  1  0
  3  5  1  0
  3  4  2  0
  5 14  2  0
  5 11  1  0
  6  8  1  0
  6 15  1  0
  6  7  2  0
  7  9  1  0
  8 10  2  0
  9 11  2  0
 10 12  1  0
 10 11  1  0
 12 13  2  0
 13 20  1  0
 13 14  1  0
 15 17  1  0
 15 16  1  0
 16 18  1  0
 17 19  1  0
 18 19  1  0
 21 22  1  0
 22 23  1  0
 23 24  2  0
 23 25  1  0
 24 26  1  0
 25 27  2  0
 26 28  2  0
 27 28  1  0
 28 29  1  0
 29 31  1  0
 29 30  1  0
 29 32  1  0
M  END
>  <vina_dock>  (378) 
-9.137

$$$$
O14757_PocketFlow_idx-in-all-generaetd-354
     RDKit          3D

 35 38  0  0  0  0  0  0  0  0999 V2000
    3.2530   -6.3540   45.4070 C   0  0  0  0  0  0  0  0  0  0  0  0
    2.4490   -6.7550   44.4060 C   0  0  0  0  0  0  0  0  0  0  0  0
    3.7940   -4.9930   45.4040 C   0  0  0  0  0  0  0  0  0  0  0  0
    4.0920   -4.4200   44.2190 C   0  0  0  0  0  0  0  0  0  0  0  0
    3.8670   -4.2900   46.7490 C   0  0  0  0  0  0  0  0  0  0  0  0
    5.2750   -4.1650   47.2680 C   0  0  0  0  0  0  0  0  0  0  0  0
    5.7280   -4.7560   48.3870 C   0  0  0  0  0  0  0  0  0  0  0  0
    7.1220   -4.6030   48.9030 C   0  0  0  0  0  0  0  0  0  0  0  0
    4.5970   -3.0480   44.0430 C   0  0  0  0  0  0  0  0  0  0  0  0
    3.8590   -2.0470   43.3780 C   0  0  0  0  0  0  0  0  0  0  0  0
    5.8580   -2.7520   44.5960 C   0  0  0  0  0  0  0  0  0  0  0  0
    4.4120   -0.7580   43.3190 C   0  0  0  0  0  0  0  0  0  0  0  0
    6.4250   -1.4770   44.4970 C   0  0  0  0  0  0  0  0  0  0  0  0
    5.6630   -0.4790   43.8820 C   0  0  0  0  0  0  0  0  0  0  0  0
    2.5410   -2.2970   42.7660 C   0  0  0  0  0  0  0  0  0  0  0  0
    2.1650   -1.6610   41.5720 C   0  0  0  0  0  0  0  0  0  0  0  0
    1.6260   -3.1780   43.3660 C   0  0  0  0  0  0  0  0  0  0  0  0
    0.9190   -1.9080   40.9890 C   0  0  0  0  0  0  0  0  0  0  0  0
    0.3810   -3.4260   42.7830 C   0  0  0  0  0  0  0  0  0  0  0  0
    0.0280   -2.7920   41.5950 C   0  0  0  0  0  0  0  0  0  0  0  0
    7.6380   -1.1170   45.0970 N   0  0  0  0  0  0  0  0  0  0  0  0
    8.0740   -1.8060   46.2990 C   0  0  0  0  0  0  0  0  0  0  0  0
    3.7220   -7.3110   46.4870 C   0  0  0  0  0  0  0  0  0  0  0  0
    3.2690   -8.6940   46.3290 N   0  0  0  0  0  0  0  0  0  0  0  0
    2.4330   -9.1650   47.4350 C   0  0  0  0  0  0  0  0  0  0  0  0
    0.9790   -9.3540   47.0700 C   0  0  0  0  0  0  0  0  0  0  0  0
    0.3740   -8.5280   46.1110 C   0  0  0  0  0  0  0  0  0  0  0  0
    0.2050  -10.3330   47.7020 C   0  0  0  0  0  0  0  0  0  0  0  0
   -0.9850   -8.6710   45.7770 C   0  0  0  0  0  0  0  0  0  0  0  0
   -1.1460  -10.4910   47.3790 C   0  0  0  0  0  0  0  0  0  0  0  0
   -1.5980   -7.8430   44.8210 C   0  0  0  0  0  0  0  0  0  0  0  0
   -1.7540   -9.6660   46.4210 C   0  0  0  0  0  0  0  0  0  0  0  0
   -2.9500   -7.9950   44.5060 C   0  0  0  0  0  0  0  0  0  0  0  0
   -3.1120   -9.8070   46.0910 C   0  0  0  0  0  0  0  0  0  0  0  0
   -3.7060   -8.9760   45.1390 C   0  0  0  0  0  0  0  0  0  0  0  0
  1  2  2  0
  1  3  1  0
  1 23  1  0
  3  4  2  3
  3  5  1  0
  4  9  1  0
  5  6  1  0
  6  7  2  3
  7  8  1  0
  9 10  1  0
  9 11  2  0
 10 15  1  0
 10 12  2  0
 11 13  1  0
 12 14  1  0
 13 14  2  0
 13 21  1  0
 15 16  2  0
 15 17  1  0
 16 18  1  0
 17 19  2  0
 18 20  2  0
 19 20  1  0
 21 22  1  0
 23 24  1  0
 24 25  1  0
 25 26  1  0
 26 27  2  0
 26 28  1  0
 27 29  1  0
 28 30  2  0
 29 31  2  0
 29 32  1  0
 30 32  1  0
 31 33  1  0
 32 34  2  0
 33 35  2  0
 34 35  1  0
M  END
>  <vina_dock>  (379) 
-9.399

$$$$
O14757_PocketFlow_idx-in-all-generaetd-968
     RDKit          3D

 23 25  0  0  0  0  0  0  0  0999 V2000
    4.6150   -0.4350   43.8240 C   0  0  0  0  0  0  0  0  0  0  0  0
    5.9760   -1.1280   43.9440 C   0  0  0  0  0  0  0  0  0  0  0  0
    6.0150   -2.0670   45.1250 C   0  0  0  0  0  0  0  0  0  0  0  0
    7.2530   -3.4270   46.6930 C   0  0  0  0  0  0  0  0  0  0  0  0
    8.4240   -3.9080   47.1320 F   0  0  0  0  0  0  0  0  0  0  0  0
    7.2340   -2.5750   45.5930 C   0  0  0  0  0  0  0  0  0  0  0  0
    6.0790   -3.7840   47.3460 C   0  0  0  0  0  0  0  0  0  0  0  0
    4.8620   -3.2790   46.8920 C   0  0  0  0  0  0  0  0  0  0  0  0
    4.8310   -2.4230   45.7880 C   0  0  0  0  0  0  0  0  0  0  0  0
    4.0070   -0.5610   42.4240 C   0  0  0  0  0  0  0  0  0  0  0  0
    2.7520   -1.3970   42.3790 C   0  0  0  0  0  0  0  0  0  0  0  0
    2.6670   -2.5950   43.1100 C   0  0  0  0  0  0  0  0  0  0  0  0
    1.6570   -0.9960   41.6070 C   0  0  0  0  0  0  0  0  0  0  0  0
    1.5170   -3.4090   43.0840 C   0  0  0  0  0  0  0  0  0  0  0  0
    0.5070   -1.7780   41.5630 C   0  0  0  0  0  0  0  0  0  0  0  0
    0.4390   -2.9690   42.2920 C   0  0  0  0  0  0  0  0  0  0  0  0
    1.4440   -4.6690   43.8550 C   0  0  0  0  0  0  0  0  0  0  0  0
    2.4840   -4.9780   44.6590 N   0  0  0  0  0  0  0  0  0  0  0  0
    0.3510   -5.4330   43.7110 N   0  0  0  0  0  0  0  0  0  0  0  0
    2.4010   -6.1270   45.3530 C   0  0  0  0  0  0  0  0  0  0  0  0
    0.3290   -6.5650   44.4300 C   0  0  0  0  0  0  0  0  0  0  0  0
    1.3280   -6.9740   45.2740 C   0  0  0  0  0  0  0  0  0  0  0  0
   -0.7510   -7.3500   44.3050 F   0  0  0  0  0  0  0  0  0  0  0  0
  1 10  1  0
  1  2  1  0
  2  3  1  0
  3  6  1  0
  3  9  2  0
  4  6  2  0
  4  5  1  0
  4  7  1  0
  7  8  2  0
  8  9  1  0
 10 11  1  0
 11 13  1  0
 11 12  2  0
 12 14  1  0
 13 15  2  0
 14 16  2  0
 14 17  1  0
 15 16  1  0
 17 19  1  0
 17 18  2  0
 18 20  1  0
 19 21  2  0
 20 22  2  0
 21 23  1  0
 21 22  1  0
M  END
>  <vina_dock>  (380) 
-8.547

$$$$
O14757_PocketFlow_idx-in-all-generaetd-156
     RDKit          3D

 12 13  0  0  0  0  0  0  0  0999 V2000
    4.7710   -1.2210   43.4120 C   0  0  0  0  0  0  0  0  0  0  0  0
    5.9980   -1.1170   44.0730 C   0  0  0  0  0  0  0  0  0  0  0  0
    3.9100   -2.3060   43.6470 C   0  0  0  0  0  0  0  0  0  0  0  0
    6.3860   -2.0970   44.9820 C   0  0  0  0  0  0  0  0  0  0  0  0
    5.5480   -3.1810   45.2310 C   0  0  0  0  0  0  0  0  0  0  0  0
    4.3210   -3.2840   44.5690 C   0  0  0  0  0  0  0  0  0  0  0  0
    2.6180   -2.4150   42.9520 C   0  0  0  0  0  0  0  0  0  0  0  0
    2.2850   -1.5440   41.8990 C   0  0  0  0  0  0  0  0  0  0  0  0
    1.6780   -3.3940   43.3170 C   0  0  0  0  0  0  0  0  0  0  0  0
    1.0580   -1.6480   41.2390 C   0  0  0  0  0  0  0  0  0  0  0  0
    0.4510   -3.4980   42.6570 C   0  0  0  0  0  0  0  0  0  0  0  0
    0.1420   -2.6250   41.6180 C   0  0  0  0  0  0  0  0  0  0  0  0
  1  3  2  0
  1  2  1  0
  2  4  2  0
  3  7  1  0
  3  6  1  0
  4  5  1  0
  5  6  2  0
  7  8  2  0
  7  9  1  0
  8 10  1  0
  9 11  2  0
 10 12  2  0
 11 12  1  0
M  END
>  <vina_dock>  (381) 
-7.078

$$$$
O14757_PocketFlow_idx-in-all-generaetd-973
     RDKit          3D

  6  5  0  0  0  0  0  0  0  0999 V2000
    4.1380   -1.6130   43.0330 C   0  0  0  0  0  0  0  0  0  0  0  0
    5.2910   -0.7520   43.5470 C   0  0  0  0  0  0  0  0  0  0  0  0
    6.1860   -1.5290   44.5000 C   0  0  0  0  0  0  0  0  0  0  0  0
    4.0140   -2.9110   43.8310 C   0  0  0  0  0  0  0  0  0  0  0  0
    2.6210   -3.3810   43.8670 C   0  0  0  0  0  0  0  0  0  0  0  0
    1.4840   -3.7640   43.8930 C   0  0  0  0  0  0  0  0  0  0  0  0
  1  2  1  0
  1  4  1  0
  2  3  1  0
  4  5  1  0
  5  6  3  0
M  END
>  <vina_dock>  (382) 
-3.646

$$$$
O14757_PocketFlow_idx-in-all-generaetd-519
     RDKit          3D

 18 20  0  0  0  0  0  0  0  0999 V2000
    7.5920   -1.9580   45.6170 C   0  0  0  0  0  0  0  0  0  0  0  0
    7.2000   -2.8080   46.6410 C   0  0  0  0  0  0  0  0  0  0  0  0
    6.7320   -1.6560   44.5670 C   0  0  0  0  0  0  0  0  0  0  0  0
    5.4440   -2.2130   44.5280 C   0  0  0  0  0  0  0  0  0  0  0  0
    5.0360   -3.0780   45.5640 C   0  0  0  0  0  0  0  0  0  0  0  0
    5.9240   -3.3690   46.6150 C   0  0  0  0  0  0  0  0  0  0  0  0
    4.5520   -1.9300   43.4820 C   0  0  0  0  0  0  0  0  0  0  0  0
    3.2740   -2.4710   43.4250 C   0  0  0  0  0  0  0  0  0  0  0  0
    2.8530   -3.3380   44.4550 C   0  0  0  0  0  0  0  0  0  0  0  0
    3.7470   -3.6290   45.5150 C   0  0  0  0  0  0  0  0  0  0  0  0
    2.4930   -2.1420   42.3830 N   0  0  0  0  0  0  0  0  0  0  0  0
    8.8170   -1.4190   45.6410 F   0  0  0  0  0  0  0  0  0  0  0  0
    1.5430   -3.8670   44.3560 C   0  0  0  0  0  0  0  0  0  0  0  0
    0.7370   -3.5240   43.2720 C   0  0  0  0  0  0  0  0  0  0  0  0
    1.2520   -2.6680   42.3230 C   0  0  0  0  0  0  0  0  0  0  0  0
    0.9810   -4.7840   45.3570 C   0  0  0  0  0  0  0  0  0  0  0  0
    1.3290   -6.0730   45.4910 C   0  0  0  0  0  0  0  0  0  0  0  0
    2.3390   -6.8270   44.6840 C   0  0  0  0  0  0  0  0  0  0  0  0
  1  3  2  0
  1 12  1  0
  1  2  1  0
  2  6  2  0
  3  4  1  0
  4  7  2  0
  4  5  1  0
  5 10  2  0
  5  6  1  0
  7  8  1  0
  8 11  2  0
  8  9  1  0
  9 13  2  0
  9 10  1  0
 11 15  1  0
 13 14  1  0
 13 16  1  0
 14 15  2  0
 16 17  2  3
 17 18  1  0
M  END
>  <vina_dock>  (383) 
-8.394

$$$$
O14757_PocketFlow_idx-in-all-generaetd-701
     RDKit          3D

 23 23  0  0  0  0  0  0  0  0999 V2000
    0.5210   -7.1530   46.0940 C   0  0  0  0  0  0  0  0  0  0  0  0
    0.7270   -8.4800   46.0950 C   0  0  0  0  0  0  0  0  0  0  0  0
    1.1020   -6.2130   45.1510 C   0  0  0  0  0  0  0  0  0  0  0  0
    0.8510   -4.8860   45.1960 C   0  0  0  0  0  0  0  0  0  0  0  0
    1.4510   -3.9230   44.2610 C   0  0  0  0  0  0  0  0  0  0  0  0
    3.3280   -2.5070   43.6060 C   0  0  0  0  0  0  0  0  0  0  0  0
    2.7390   -3.4210   44.4940 C   0  0  0  0  0  0  0  0  0  0  0  0
    2.6010   -2.1160   42.4710 C   0  0  0  0  0  0  0  0  0  0  0  0
    1.3160   -2.6090   42.2380 C   0  0  0  0  0  0  0  0  0  0  0  0
    0.7400   -3.5090   43.1320 C   0  0  0  0  0  0  0  0  0  0  0  0
    4.7340   -1.9660   43.8230 C   0  0  1  0  0  0  0  0  0  0  0  0
    5.0300   -0.7410   42.9460 C   0  0  0  0  0  0  0  0  0  0  0  0
    4.9730   -1.6380   45.2810 C   0  0  0  0  0  0  0  0  0  0  0  0
    5.9610   -2.0830   46.0760 C   0  0  0  0  0  0  0  0  0  0  0  0
    7.0590   -3.0340   45.7300 C   0  0  0  0  0  0  0  0  0  0  0  0
    0.0030   -4.3270   46.1360 O   0  0  0  0  0  0  0  0  0  0  0  0
    1.9300   -6.7970   44.2090 O   0  0  0  0  0  0  0  0  0  0  0  0
    0.1110   -9.4270   47.0910 C   0  0  0  0  0  0  0  0  0  0  0  0
   -1.4100   -9.2430   47.2170 C   0  0  1  0  0  0  0  0  0  0  0  0
   -2.0550  -10.1540   46.3370 O   0  0  0  0  0  0  0  0  0  0  0  0
   -3.2260   -9.6370   45.7400 C   0  0  0  0  0  0  0  0  0  0  0  0
   -2.8190   -8.1140   44.6040 Br  0  0  0  0  0  0  0  0  0  0  0  0
   -1.7800   -9.5250   48.5610 O   0  0  0  0  0  0  0  0  0  0  0  0
  1  3  1  0
  1  2  2  3
  2 18  1  0
  3 17  1  0
  3  4  2  3
  4  5  1  0
  4 16  1  0
  5 10  2  0
  5  7  1  0
  6  8  1  0
  6 11  1  0
  6  7  2  0
  8  9  2  0
  9 10  1  0
 11 12  1  6
 11 13  1  0
 13 14  2  3
 14 15  1  0
 18 19  1  0
 19 20  1  0
 19 23  1  1
 20 21  1  0
 21 22  1  0
M  END
>  <vina_dock>  (384) 
-7.262

$$$$
O14757_PocketFlow_idx-in-all-generaetd-662
     RDKit          3D

 35 38  0  0  0  0  0  0  0  0999 V2000
    7.7850   -2.1660   46.6060 C   0  0  0  0  0  0  0  0  0  0  0  0
    6.6790   -2.1130   45.5730 C   0  0  0  0  0  0  0  0  0  0  0  0
    4.5910   -3.0120   44.6440 C   0  0  0  0  0  0  0  0  0  0  0  0
    5.6310   -3.0470   45.5940 C   0  0  0  0  0  0  0  0  0  0  0  0
    4.6340   -2.0120   43.6540 C   0  0  0  0  0  0  0  0  0  0  0  0
    3.4320   -1.8950   42.4110 Cl  0  0  0  0  0  0  0  0  0  0  0  0
    5.6720   -1.0750   43.6260 C   0  0  0  0  0  0  0  0  0  0  0  0
    6.6860   -1.1220   44.5830 C   0  0  0  0  0  0  0  0  0  0  0  0
    3.5120   -4.0110   44.7300 C   0  0  0  0  0  0  0  0  0  0  0  0
    1.4380   -5.9350   44.9260 C   0  0  0  0  0  0  0  0  0  0  0  0
    1.1420   -4.5660   44.8630 C   0  0  0  0  0  0  0  0  0  0  0  0
    2.7790   -6.3320   44.8640 C   0  0  0  0  0  0  0  0  0  0  0  0
    2.1670   -3.6160   44.7680 C   0  0  0  0  0  0  0  0  0  0  0  0
    3.8020   -5.3820   44.7670 C   0  0  0  0  0  0  0  0  0  0  0  0
    0.3710   -6.9620   45.0350 C   0  0  0  0  0  0  0  0  0  0  0  0
   -0.5270   -7.0670   44.0360 C   0  0  0  0  0  0  0  0  0  0  0  0
    0.2130   -7.8700   46.2010 C   0  0  0  0  0  0  0  0  0  0  0  0
   -0.8740   -8.4760   48.2910 C   0  0  0  0  0  0  0  0  0  0  0  0
   -0.0240   -9.5700   48.4120 C   0  0  0  0  0  0  0  0  0  0  0  0
   -0.7550   -7.6260   47.1880 C   0  0  0  0  0  0  0  0  0  0  0  0
    0.9490   -9.8270   47.4500 C   0  0  0  0  0  0  0  0  0  0  0  0
    1.0690   -8.9740   46.3470 C   0  0  0  0  0  0  0  0  0  0  0  0
   -0.1740  -10.3760   49.5030 O   0  0  0  0  0  0  0  0  0  0  0  0
    8.2930   -3.5470   47.0260 C   0  0  0  0  0  0  0  0  0  0  0  0
    9.0730   -4.2900   46.2190 C   0  0  0  0  0  0  0  0  0  0  0  0
    7.8200   -3.8960   48.4330 C   0  0  0  0  0  0  0  0  0  0  0  0
    7.0610   -5.1840   48.6520 C   0  0  0  0  0  0  0  0  0  0  0  0
    7.4860   -6.1060   49.6230 C   0  0  0  0  0  0  0  0  0  0  0  0
    5.9210   -5.4770   47.8900 C   0  0  0  0  0  0  0  0  0  0  0  0
    6.7830   -7.2950   49.8290 C   0  0  0  0  0  0  0  0  0  0  0  0
    5.2160   -6.6650   48.1010 C   0  0  0  0  0  0  0  0  0  0  0  0
    5.6350   -7.5800   49.0790 C   0  0  0  0  0  0  0  0  0  0  0  0
    4.8740   -8.8600   49.2930 C   0  0  0  0  0  0  0  0  0  0  0  0
    3.7310   -8.6330   50.1080 O   0  0  0  0  0  0  0  0  0  0  0  0
    9.6700   -5.5070   46.4170 N   0  0  0  0  0  0  0  0  0  0  0  0
  1  2  1  0
  1 24  1  0
  2  8  1  0
  2  4  2  0
  3  5  2  0
  3  9  1  0
  3  4  1  0
  5  6  1  0
  5  7  1  0
  7  8  2  0
  9 14  1  0
  9 13  2  0
 10 11  2  0
 10 12  1  0
 10 15  1  0
 11 13  1  0
 12 14  2  0
 15 16  2  0
 15 17  1  0
 17 22  2  0
 17 20  1  0
 18 20  2  0
 18 19  1  0
 19 21  2  0
 19 23  1  0
 21 22  1  0
 24 25  2  3
 24 26  1  0
 25 35  1  0
 26 27  1  0
 27 29  1  0
 27 28  2  0
 28 30  1  0
 29 31  2  0
 30 32  2  0
 31 32  1  0
 32 33  1  0
 33 34  1  0
M  END
>  <vina_dock>  (385) 
-8.525

$$$$
O14757_PocketFlow_idx-in-all-generaetd-647
     RDKit          3D

 23 26  0  0  0  0  0  0  0  0999 V2000
    0.2930   -4.0200   45.2530 C   0  0  0  0  0  0  0  0  0  0  0  0
    1.7130   -3.8560   44.7920 C   0  0  0  0  0  0  0  0  0  0  0  0
    2.1120   -3.2280   43.6610 C   0  0  0  0  0  0  0  0  0  0  0  0
    3.5360   -3.2410   43.1360 C   0  0  0  0  0  0  0  0  0  0  0  0
    4.6380   -3.0550   44.1580 C   0  0  0  0  0  0  0  0  0  0  0  0
    4.8530   -4.0590   45.1090 C   0  0  0  0  0  0  0  0  0  0  0  0
    3.8790   -5.2020   45.2590 C   0  0  0  0  0  0  0  0  0  0  0  0
    2.5410   -4.6570   45.7620 C   0  0  2  0  0  0  0  0  0  0  0  0
    0.3100   -5.1080   46.2480 N   0  0  0  0  0  0  0  0  0  0  0  0
    5.4940   -1.9300   44.1830 C   0  0  0  0  0  0  0  0  0  0  0  0
    6.5970   -1.9180   45.0880 C   0  0  0  0  0  0  0  0  0  0  0  0
    7.5810   -0.8990   45.1480 C   0  0  0  0  0  0  0  0  0  0  0  0
    8.6310   -0.9480   46.0670 C   0  0  0  0  0  0  0  0  0  0  0  0
    8.7230   -2.0200   46.9500 C   0  0  0  0  0  0  0  0  0  0  0  0
    7.7700   -3.0400   46.8890 C   0  0  0  0  0  0  0  0  0  0  0  0
    6.7230   -3.0050   45.9800 C   0  0  0  0  0  0  0  0  0  0  0  0
    5.8680   -4.0310   46.0040 N   0  0  0  0  0  0  0  0  0  0  0  0
    5.2620   -0.7780   43.2350 C   0  0  0  0  0  0  0  0  0  0  0  0
    1.6160   -5.7460   46.1350 N   0  0  0  0  0  0  0  0  0  0  0  0
    1.1490   -2.4900   42.7640 C   0  0  0  0  0  0  0  0  0  0  0  0
    9.8300   -2.0880   47.9380 C   0  0  0  0  0  0  0  0  0  0  0  0
   10.0390   -1.1780   48.8330 N   0  0  0  0  0  0  0  0  0  0  0  0
   10.9490   -3.4040   47.9690 Cl  0  0  0  0  0  0  0  0  0  0  0  0
  1  2  1  0
  1  9  1  0
  2  3  2  0
  2  8  1  0
  3 20  1  0
  3  4  1  0
  4  5  1  0
  5 10  1  0
  5  6  2  0
  6  7  1  0
  6 17  1  0
  8  7  1  6
  8 19  1  0
  9 19  1  0
 10 18  1  0
 10 11  2  0
 11 12  1  0
 11 16  1  0
 12 13  2  0
 13 14  1  0
 14 15  2  0
 14 21  1  0
 15 16  1  0
 16 17  2  0
 21 23  1  0
 21 22  2  3
M  END
>  <vina_dock>  (386) 
-8.992

$$$$
O14757_PocketFlow_idx-in-all-generaetd-420
     RDKit          3D

 17 17  0  0  0  0  0  0  0  0999 V2000
    1.4490   -6.2210   44.5940 C   0  0  0  0  0  0  0  0  0  0  0  0
    2.3140   -7.0790   44.6150 O   0  0  0  0  0  0  0  0  0  0  0  0
    1.7190   -4.7200   44.8300 C   0  0  0  0  0  0  0  0  0  0  0  0
    1.3390   -4.1110   45.8160 O   0  0  0  0  0  0  0  0  0  0  0  0
    2.4310   -4.2490   43.7500 O   0  0  0  0  0  0  0  0  0  0  0  0
    3.5690   -3.5360   44.1270 C   0  0  0  0  0  0  0  0  0  0  0  0
    3.8040   -2.2930   43.5480 C   0  0  0  0  0  0  0  0  0  0  0  0
    4.4840   -4.1100   45.0130 C   0  0  0  0  0  0  0  0  0  0  0  0
    4.9610   -1.6080   43.8950 C   0  0  0  0  0  0  0  0  0  0  0  0
    5.6410   -3.4070   45.3510 C   0  0  0  0  0  0  0  0  0  0  0  0
    5.2040   -0.4070   43.3540 F   0  0  0  0  0  0  0  0  0  0  0  0
    5.8790   -2.1510   44.7920 C   0  0  0  0  0  0  0  0  0  0  0  0
    0.1300   -6.4200   44.3660 O   0  0  0  0  0  0  0  0  0  0  0  0
   -0.4720   -7.3950   45.2180 C   0  0  0  0  0  0  0  0  0  0  0  0
   -0.8350   -6.8290   46.5800 C   0  0  0  0  0  0  0  0  0  0  0  0
   -0.7220   -7.3890   47.6590 O   0  0  0  0  0  0  0  0  0  0  0  0
   -1.3070   -5.5680   46.5060 O   0  0  0  0  0  0  0  0  0  0  0  0
  1 13  1  0
  1  2  2  0
  1  3  1  0
  3  5  1  0
  3  4  2  0
  5  6  1  0
  6  7  2  0
  6  8  1  0
  7  9  1  0
  8 10  2  0
  9 11  1  0
  9 12  2  0
 10 12  1  0
 13 14  1  0
 14 15  1  0
 15 17  1  0
 15 16  2  0
M  END
>  <vina_dock>  (387) 
-6.04

$$$$
O14757_PocketFlow_idx-in-all-generaetd-15
     RDKit          3D

 13 14  0  0  0  0  0  0  0  0999 V2000
    3.7700   -3.0570   44.3790 C   0  0  0  0  0  0  0  0  0  0  0  0
    4.6600   -2.5250   45.3380 C   0  0  0  0  0  0  0  0  0  0  0  0
    4.8300   -3.1630   46.6910 C   0  0  0  0  0  0  0  0  0  0  0  0
    3.6540   -2.4150   43.1320 C   0  0  0  0  0  0  0  0  0  0  0  0
    4.3970   -1.2730   42.8370 C   0  0  0  0  0  0  0  0  0  0  0  0
    5.4030   -1.3730   45.0270 C   0  0  0  0  0  0  0  0  0  0  0  0
    5.2720   -0.7520   43.7840 C   0  0  0  0  0  0  0  0  0  0  0  0
    2.9640   -4.2570   44.6380 C   0  0  0  0  0  0  0  0  0  0  0  0
    2.7600   -6.6780   44.7720 C   0  0  0  0  0  0  0  0  0  0  0  0
    3.5280   -5.5370   44.5270 C   0  0  0  0  0  0  0  0  0  0  0  0
    1.4180   -6.5530   45.1260 C   0  0  0  0  0  0  0  0  0  0  0  0
    0.8430   -5.2880   45.2360 C   0  0  0  0  0  0  0  0  0  0  0  0
    1.6100   -4.1480   44.9940 C   0  0  0  0  0  0  0  0  0  0  0  0
  1  4  1  0
  1  8  1  0
  1  2  2  0
  2  6  1  0
  2  3  1  0
  4  5  2  0
  5  7  1  0
  6  7  2  0
  8 10  1  0
  8 13  2  0
  9 10  2  0
  9 11  1  0
 11 12  2  0
 12 13  1  0
M  END
>  <vina_dock>  (388) 
-6.897

$$$$
O14757_PocketFlow_idx-in-all-generaetd-480
     RDKit          3D

 35 40  0  0  0  0  0  0  0  0999 V2000
   10.4320   -1.8030   48.1940 C   0  0  1  0  0  0  0  0  0  0  0  0
   10.8310   -1.2770   46.8120 C   0  0  0  0  0  0  0  0  0  0  0  0
    9.6580   -0.7710   46.1060 N   0  0  0  0  0  0  0  0  0  0  0  0
    8.5420   -1.6160   46.0700 C   0  0  0  0  0  0  0  0  0  0  0  0
    7.5000   -1.3420   45.1800 C   0  0  0  0  0  0  0  0  0  0  0  0
    6.3310   -2.1290   45.1600 C   0  0  0  0  0  0  0  0  0  0  0  0
    5.2800   -1.8880   44.2630 C   0  0  0  0  0  0  0  0  0  0  0  0
    4.1130   -2.6890   44.2470 C   0  0  0  0  0  0  0  0  0  0  0  0
    2.9940   -2.5020   43.3570 C   0  0  0  0  0  0  0  0  0  0  0  0
    8.3690   -2.6470   47.0000 C   0  0  0  0  0  0  0  0  0  0  0  0
    7.2040   -3.4340   46.9610 C   0  0  0  0  0  0  0  0  0  0  0  0
    6.1840   -3.1940   46.0530 C   0  0  0  0  0  0  0  0  0  0  0  0
    9.4400   -2.9620   48.0120 C   0  0  0  0  0  0  0  0  0  0  0  0
    1.8780   -3.3800   43.4370 C   0  0  0  0  0  0  0  0  0  0  0  0
    1.8820   -4.4200   44.4000 C   0  0  0  0  0  0  0  0  0  0  0  0
    2.9980   -4.5670   45.2410 C   0  0  0  0  0  0  0  0  0  0  0  0
    4.0970   -3.7330   45.1900 C   0  0  0  0  0  0  0  0  0  0  0  0
    5.0950   -3.9750   46.0580 N   0  0  0  0  0  0  0  0  0  0  0  0
    2.9460   -1.4680   42.3860 C   0  0  0  0  0  0  0  0  0  0  0  0
    1.8600   -1.2940   41.5250 C   0  0  0  0  0  0  0  0  0  0  0  0
    0.7820   -2.1560   41.6050 C   0  0  0  0  0  0  0  0  0  0  0  0
    0.7930   -3.1840   42.5460 C   0  0  0  0  0  0  0  0  0  0  0  0
   11.6460   -2.2810   49.0100 C   0  0  0  0  0  0  0  0  0  0  0  0
   12.0760   -3.6990   48.7110 C   0  0  0  0  0  0  0  0  0  0  0  0
   13.1880   -5.3050   47.2820 C   0  0  0  0  0  0  0  0  0  0  0  0
   12.8020   -3.9920   47.5480 C   0  0  0  0  0  0  0  0  0  0  0  0
   12.8630   -6.3360   48.1550 C   0  0  0  0  0  0  0  0  0  0  0  0
   12.1350   -6.0560   49.3100 C   0  0  0  0  0  0  0  0  0  0  0  0
   11.7400   -4.7450   49.5850 C   0  0  0  0  0  0  0  0  0  0  0  0
   13.8910   -5.6250   46.1580 O   0  0  0  0  0  0  0  0  0  0  0  0
    0.7180   -5.3910   44.5230 C   0  0  0  0  0  0  0  0  0  0  0  0
    0.3130   -5.5770   45.8780 O   0  0  0  0  0  0  0  0  0  0  0  0
   -0.6000   -6.6590   46.0410 C   0  0  0  0  0  0  0  0  0  0  0  0
   -0.7630   -7.3900   44.7110 C   0  0  0  0  0  0  0  0  0  0  0  0
   -2.1660   -7.9570   44.5320 C   0  0  0  0  0  0  0  0  0  0  0  0
  1  2  1  0
  1 13  1  0
  1 23  1  6
  2  3  1  0
  3  4  1  0
  4  5  2  0
  4 10  1  0
  5  6  1  0
  6  7  2  0
  6 12  1  0
  7  8  1  0
  8  9  2  0
  8 17  1  0
  9 19  1  0
  9 14  1  0
 10 11  2  0
 10 13  1  0
 11 12  1  0
 12 18  2  0
 14 22  1  0
 14 15  2  0
 15 31  1  0
 15 16  1  0
 16 17  2  0
 17 18  1  0
 19 20  2  0
 20 21  1  0
 21 22  2  0
 23 24  1  0
 24 26  1  0
 24 29  2  0
 25 30  1  0
 25 26  2  0
 25 27  1  0
 27 28  2  0
 28 29  1  0
 31 32  1  0
 32 33  1  0
 33 34  1  0
 34 35  1  0
M  END
>  <vina_dock>  (389) 
-10.337

$$$$
O14757_PocketFlow_idx-in-all-generaetd-947
     RDKit          3D

 10 10  0  0  0  0  0  0  0  0999 V2000
    1.0130   -2.8810   42.4910 C   0  0  0  0  0  0  0  0  0  0  0  0
   -0.0140   -3.2360   41.4240 C   0  0  0  0  0  0  0  0  0  0  0  0
   -1.2070   -2.4910   41.6310 O   0  0  0  0  0  0  0  0  0  0  0  0
    1.9990   -1.8160   42.0060 C   0  0  0  0  0  0  0  0  0  0  0  0
    3.2630   -1.8150   42.8310 C   0  0  0  0  0  0  0  0  0  0  0  0
    3.5510   -2.8790   43.6950 C   0  0  0  0  0  0  0  0  0  0  0  0
    4.1510   -0.7340   42.7620 C   0  0  0  0  0  0  0  0  0  0  0  0
    4.7130   -2.8650   44.4690 C   0  0  0  0  0  0  0  0  0  0  0  0
    5.3120   -0.7220   43.5380 C   0  0  0  0  0  0  0  0  0  0  0  0
    5.5930   -1.7880   44.3900 C   0  0  0  0  0  0  0  0  0  0  0  0
  1  2  1  0
  1  4  1  0
  2  3  1  0
  4  5  1  0
  5  7  2  0
  5  6  1  0
  6  8  2  0
  7  9  1  0
  8 10  1  0
  9 10  2  0
M  END
>  <vina_dock>  (390) 
-5.432

$$$$
O14757_PocketFlow_idx-in-all-generaetd-294
     RDKit          3D

 11 12  0  0  0  0  0  0  0  0999 V2000
    0.5430   -1.4170   41.7320 C   0  0  0  0  0  0  0  0  0  0  0  0
    1.8760   -1.0650   41.8600 C   0  0  0  0  0  0  0  0  0  0  0  0
    2.7110   -1.8740   42.6380 C   0  0  0  0  0  0  0  0  0  0  0  0
    2.1650   -3.0140   43.2610 C   0  0  0  0  0  0  0  0  0  0  0  0
    0.8050   -3.2670   43.0590 C   0  0  0  0  0  0  0  0  0  0  0  0
   -0.0170   -2.4970   42.3110 N   0  0  0  0  0  0  0  0  0  0  0  0
    2.9880   -3.8390   44.0480 C   0  0  0  0  0  0  0  0  0  0  0  0
    4.3390   -3.5350   44.2140 C   0  0  0  0  0  0  0  0  0  0  0  0
    4.8810   -2.4090   43.5990 C   0  0  0  0  0  0  0  0  0  0  0  0
    4.0730   -1.5820   42.8150 C   0  0  0  0  0  0  0  0  0  0  0  0
   -0.2500   -0.6370   40.9830 F   0  0  0  0  0  0  0  0  0  0  0  0
  1 11  1  0
  1  2  2  0
  1  6  1  0
  2  3  1  0
  3 10  2  0
  3  4  1  0
  4  5  1  0
  4  7  2  0
  5  6  2  0
  7  8  1  0
  8  9  2  0
  9 10  1  0
M  END
>  <vina_dock>  (391) 
-6.555

$$$$
O14757_PocketFlow_idx-in-all-generaetd-319
     RDKit          3D

 13 13  0  0  0  0  0  0  0  0999 V2000
    2.2490   -4.5970   45.2420 C   0  0  0  0  0  0  0  0  0  0  0  0
    0.8510   -4.6090   45.7940 C   0  0  0  0  0  0  0  0  0  0  0  0
    0.1450   -5.7250   46.0050 C   0  0  0  0  0  0  0  0  0  0  0  0
   -1.1250   -5.7900   46.5080 N   0  0  0  0  0  0  0  0  0  0  0  0
    2.3190   -3.8400   43.9140 C   0  0  0  0  0  0  0  0  0  0  0  0
    3.4930   -2.8910   43.8740 C   0  0  0  0  0  0  0  0  0  0  0  0
    3.5090   -1.8220   42.9720 C   0  0  0  0  0  0  0  0  0  0  0  0
    4.5690   -3.0530   44.7610 C   0  0  0  0  0  0  0  0  0  0  0  0
    4.5840   -0.9340   42.9550 C   0  0  0  0  0  0  0  0  0  0  0  0
    5.6620   -2.1750   44.7430 C   0  0  0  0  0  0  0  0  0  0  0  0
    5.6510   -1.1070   43.8380 C   0  0  0  0  0  0  0  0  0  0  0  0
    6.7480   -2.3760   45.7120 C   0  0  0  0  0  0  0  0  0  0  0  0
    7.8810   -1.6630   45.7420 C   0  0  0  0  0  0  0  0  0  0  0  0
  1  5  1  0
  1  2  1  0
  2  3  2  3
  3  4  1  0
  5  6  1  0
  6  7  2  0
  6  8  1  0
  7  9  1  0
  8 10  2  0
  9 11  2  0
 10 11  1  0
 10 12  1  0
 12 13  2  0
M  END
>  <vina_dock>  (392) 
-6.527

$$$$
O14757_PocketFlow_idx-in-all-generaetd-531
     RDKit          3D

 35 37  0  0  0  0  0  0  0  0999 V2000
    1.1130   -6.3150   44.5030 C   0  0  0  0  0  0  0  0  0  0  0  0
    1.5660   -4.9910   44.5880 C   0  0  0  0  0  0  0  0  0  0  0  0
    2.7980   -4.6840   45.1880 C   0  0  0  0  0  0  0  0  0  0  0  0
    3.5710   -5.7280   45.7140 C   0  0  0  0  0  0  0  0  0  0  0  0
    3.1370   -7.0490   45.6190 C   0  0  0  0  0  0  0  0  0  0  0  0
    1.9150   -7.3420   45.0160 C   0  0  0  0  0  0  0  0  0  0  0  0
   -0.2300   -6.6230   43.8860 C   0  0  0  0  0  0  0  0  0  0  0  0
   -0.9820   -7.7210   44.6460 C   0  0  0  0  0  0  0  0  0  0  0  0
   -1.5220   -7.2330   45.9890 C   0  0  0  0  0  0  0  0  0  0  0  0
   -2.2330   -8.3270   46.7610 C   0  0  0  0  0  0  0  0  0  0  0  0
   -3.3740   -8.6680   46.4470 O   0  0  0  0  0  0  0  0  0  0  0  0
   -1.5720   -8.9780   47.9320 C   0  0  0  0  0  0  0  0  0  0  0  0
    0.4730   -9.4240   49.1380 C   0  0  0  0  0  0  0  0  0  0  0  0
    1.7990   -9.2810   49.2580 F   0  0  0  0  0  0  0  0  0  0  0  0
   -0.2220  -10.1660   50.0850 C   0  0  0  0  0  0  0  0  0  0  0  0
   -0.1850   -8.8280   48.0690 C   0  0  0  0  0  0  0  0  0  0  0  0
   -1.6020  -10.3180   49.9600 C   0  0  0  0  0  0  0  0  0  0  0  0
   -2.2760   -9.7280   48.8850 C   0  0  0  0  0  0  0  0  0  0  0  0
    3.2390   -3.2420   45.3240 C   0  0  0  0  0  0  0  0  0  0  0  0
    4.6850   -3.0670   45.2010 N   0  0  0  0  0  0  0  0  0  0  0  0
    5.4300   -2.9540   46.3740 C   0  0  0  0  0  0  0  0  0  0  0  0
    4.9470   -2.9880   47.5040 O   0  0  0  0  0  0  0  0  0  0  0  0
    5.2280   -2.8790   43.8530 C   0  0  0  0  0  0  0  0  0  0  0  0
    4.3240   -1.9620   43.0850 C   0  0  0  0  0  0  0  0  0  0  0  0
    4.4330   -0.6320   43.0300 C   0  0  0  0  0  0  0  0  0  0  0  0
    5.4120    0.0650   43.6760 O   0  0  0  0  0  0  0  0  0  0  0  0
    6.8920   -2.7820   46.2890 C   0  0  0  0  0  0  0  0  0  0  0  0
    7.7430   -3.8700   46.5140 C   0  0  0  0  0  0  0  0  0  0  0  0
    7.4100   -1.5130   46.0250 C   0  0  0  0  0  0  0  0  0  0  0  0
    9.1280   -3.6900   46.4500 C   0  0  0  0  0  0  0  0  0  0  0  0
    8.7920   -1.3370   45.9550 C   0  0  0  0  0  0  0  0  0  0  0  0
    9.6550   -2.4190   46.1820 C   0  0  0  0  0  0  0  0  0  0  0  0
   11.1200   -2.1750   46.1010 C   0  0  0  0  0  0  0  0  0  0  0  0
   11.5610   -0.9040   46.3420 N   0  0  0  0  0  0  0  0  0  0  0  0
   11.9010   -3.0660   45.7870 O   0  0  0  0  0  0  0  0  0  0  0  0
  1  7  1  0
  1  2  2  0
  1  6  1  0
  2  3  1  0
  3 19  1  0
  3  4  2  0
  4  5  1  0
  5  6  2  0
  7  8  1  0
  8  9  1  0
  9 10  1  0
 10 11  2  0
 10 12  1  0
 12 16  1  0
 12 18  2  0
 13 16  2  0
 13 14  1  0
 13 15  1  0
 15 17  2  0
 17 18  1  0
 19 20  1  0
 20 23  1  0
 20 21  1  0
 21 27  1  0
 21 22  2  0
 23 24  1  0
 24 25  2  3
 25 26  1  0
 27 29  1  0
 27 28  2  0
 28 30  1  0
 29 31  2  0
 30 32  2  0
 31 32  1  0
 32 33  1  0
 33 35  2  0
 33 34  1  0
M  END
>  <vina_dock>  (393) 
-8.014

$$$$
O14757_PocketFlow_idx-in-all-generaetd-712
     RDKit          3D

 35 38  0  0  0  0  0  0  0  0999 V2000
    8.3450   -5.1260   49.3010 C   0  0  0  0  0  0  0  0  0  0  0  0
    9.0930   -4.8510   48.2210 C   0  0  0  0  0  0  0  0  0  0  0  0
   10.1260   -5.6840   47.5880 C   0  0  0  0  0  0  0  0  0  0  0  0
   10.7750   -5.1700   46.5920 N   0  0  0  0  0  0  0  0  0  0  0  0
    9.0280   -3.6200   47.3640 C   0  0  1  0  0  0  0  0  0  0  0  0
   10.2670   -3.7810   46.4630 C   0  0  0  0  0  0  0  0  0  0  0  0
    8.3580   -6.3140   50.2140 C   0  0  0  0  0  0  0  0  0  0  0  0
    8.1280   -7.5150   49.5120 O   0  0  0  0  0  0  0  0  0  0  0  0
    6.6070   -7.9980   49.4430 P   0  0  0  0  0  0  0  0  0  0  0  0
    6.3450   -9.4520   49.6160 O   0  0  0  0  0  0  0  0  0  0  0  0
    5.8230   -7.0180   50.4240 O   0  0  0  0  0  0  0  0  0  0  0  0
    6.1010   -7.4520   48.0310 O   0  0  0  0  0  0  0  0  0  0  0  0
    7.7480   -3.5680   46.5600 C   0  0  0  0  0  0  0  0  0  0  0  0
    7.2660   -2.5210   45.8580 C   0  0  0  0  0  0  0  0  0  0  0  0
    7.9540   -1.1880   45.7340 C   0  0  0  0  0  0  0  0  0  0  0  0
    5.9690   -2.6550   45.1500 C   0  0  0  0  0  0  0  0  0  0  0  0
    5.2930   -3.8820   45.1180 C   0  0  0  0  0  0  0  0  0  0  0  0
    5.3760   -1.5560   44.5220 C   0  0  0  0  0  0  0  0  0  0  0  0
    4.0420   -4.0290   44.4840 C   0  0  0  0  0  0  0  0  0  0  0  0
    4.1460   -1.6860   43.8710 C   0  0  0  0  0  0  0  0  0  0  0  0
    3.4530   -5.3840   44.4970 C   0  0  0  0  0  0  0  0  0  0  0  0
    3.4620   -2.9120   43.8470 C   0  0  0  0  0  0  0  0  0  0  0  0
    2.1370   -5.6720   44.5650 C   0  0  0  0  0  0  0  0  0  0  0  0
    2.1870   -2.9370   43.1120 C   0  0  0  0  0  0  0  0  0  0  0  0
    1.0690   -4.6060   44.6330 C   0  0  0  0  0  0  0  0  0  0  0  0
    1.1220   -3.6760   43.4600 C   0  0  0  0  0  0  0  0  0  0  0  0
    1.6560   -7.1070   44.6170 C   0  0  0  0  0  0  0  0  0  0  0  0
    0.3110   -7.2760   45.2900 C   0  0  0  0  0  0  0  0  0  0  0  0
   -0.8390   -7.5400   44.5300 C   0  0  0  0  0  0  0  0  0  0  0  0
    0.1920   -7.1680   46.6820 C   0  0  0  0  0  0  0  0  0  0  0  0
   -2.0900   -7.6960   45.1420 C   0  0  0  0  0  0  0  0  0  0  0  0
   -1.0510   -7.3120   47.2990 C   0  0  0  0  0  0  0  0  0  0  0  0
   -2.1870   -7.5710   46.5340 C   0  0  0  0  0  0  0  0  0  0  0  0
   -3.3200   -7.9700   44.3200 C   0  0  0  0  0  0  0  0  0  0  0  0
   -3.0750   -8.0300   42.9800 F   0  0  0  0  0  0  0  0  0  0  0  0
  1  2  1  0
  1  7  1  0
  2  5  1  0
  2  3  2  0
  3  4  1  0
  4  6  1  0
  5  6  1  6
  5 13  1  0
  7  8  1  0
  8  9  1  0
  9 12  1  0
  9 10  2  0
  9 11  1  0
 13 14  2  3
 14 16  1  0
 14 15  1  0
 16 18  1  0
 16 17  2  0
 17 19  1  0
 18 20  2  0
 19 22  2  0
 19 21  1  0
 20 22  1  0
 21 23  2  0
 22 24  1  0
 23 27  1  0
 23 25  1  0
 24 26  2  0
 25 26  1  0
 27 28  1  0
 28 29  2  0
 28 30  1  0
 29 31  1  0
 30 32  2  0
 31 34  1  0
 31 33  2  0
 32 33  1  0
 34 35  1  0
M  END
>  <vina_dock>  (394) 
-8.8

$$$$
O14757_PocketFlow_idx-in-all-generaetd-954
     RDKit          3D

 12 12  0  0  0  0  0  0  0  0999 V2000
    5.4590   -2.1960   44.3670 C   0  0  0  0  0  0  0  0  0  0  0  0
    6.5950   -1.5210   44.6080 C   0  0  0  0  0  0  0  0  0  0  0  0
    4.5140   -1.8760   43.2420 C   0  0  0  0  0  0  0  0  0  0  0  0
    3.2000   -2.6010   43.3730 C   0  0  0  0  0  0  0  0  0  0  0  0
    1.8010   -4.2720   44.4480 C   0  0  0  0  0  0  0  0  0  0  0  0
    0.7570   -3.9760   43.5710 C   0  0  0  0  0  0  0  0  0  0  0  0
    3.0180   -3.5920   44.3500 C   0  0  0  0  0  0  0  0  0  0  0  0
    0.9310   -3.0000   42.5920 C   0  0  0  0  0  0  0  0  0  0  0  0
    2.1450   -2.3250   42.4980 C   0  0  0  0  0  0  0  0  0  0  0  0
    2.2890   -1.3880   41.5490 F   0  0  0  0  0  0  0  0  0  0  0  0
    7.5370   -1.8410   45.7320 C   0  0  0  0  0  0  0  0  0  0  0  0
    7.4420   -3.3040   46.1360 C   0  0  0  0  0  0  0  0  0  0  0  0
  1  3  1  0
  1  2  2  3
  2 11  1  0
  3  4  1  0
  4  9  2  0
  4  7  1  0
  5  6  1  0
  5  7  2  0
  6  8  2  0
  8  9  1  0
  9 10  1  0
 11 12  1  0
M  END
>  <vina_dock>  (395) 
-6.14

$$$$
O14757_PocketFlow_idx-in-all-generaetd-830
     RDKit          3D

 14 16  0  0  0  0  0  0  0  0999 V2000
   -0.0010   -2.6760   41.6240 C   0  0  0  0  0  0  0  0  0  0  0  0
    0.3940   -3.5180   42.6590 C   0  0  0  0  0  0  0  0  0  0  0  0
    0.8480   -1.6650   41.2030 C   0  0  0  0  0  0  0  0  0  0  0  0
    1.6410   -3.3610   43.2870 C   0  0  0  0  0  0  0  0  0  0  0  0
    2.5320   -2.3350   42.8770 C   0  0  0  0  0  0  0  0  0  0  0  0
    2.0920   -1.4980   41.8190 C   0  0  0  0  0  0  0  0  0  0  0  0
    2.0040   -4.2260   44.3220 C   0  0  0  0  0  0  0  0  0  0  0  0
    3.2320   -4.0970   44.9640 C   0  0  0  0  0  0  0  0  0  0  0  0
    4.1350   -3.0980   44.5890 C   0  0  0  0  0  0  0  0  0  0  0  0
    5.3680   -2.9950   45.2570 C   0  0  0  0  0  0  0  0  0  0  0  0
    6.2920   -2.0130   44.9110 C   0  0  0  0  0  0  0  0  0  0  0  0
    5.9950   -1.1230   43.8910 C   0  0  0  0  0  0  0  0  0  0  0  0
    4.7730   -1.2160   43.2190 C   0  0  0  0  0  0  0  0  0  0  0  0
    3.8040   -2.2000   43.5410 C   0  0  0  0  0  0  0  0  0  0  0  0
  1  3  2  0
  1  2  1  0
  2  4  2  0
  3  6  1  0
  4  5  1  0
  4  7  1  0
  5  6  2  0
  5 14  1  0
  7  8  2  0
  8  9  1  0
  9 14  2  0
  9 10  1  0
 10 11  2  0
 11 12  1  0
 12 13  2  0
 13 14  1  0
M  END
>  <vina_dock>  (396) 
-8.522

$$$$
O14757_PocketFlow_idx-in-all-generaetd-144
     RDKit          3D

 17 19  0  0  0  0  0  0  0  0999 V2000
    0.8590   -4.6830   44.7540 C   0  0  0  0  0  0  0  0  0  0  0  0
    0.5950   -5.9360   44.3460 C   0  0  0  0  0  0  0  0  0  0  0  0
    1.7990   -3.7610   44.0970 C   0  0  0  0  0  0  0  0  0  0  0  0
    0.0940   -2.9600   42.4260 N   0  0  0  0  0  0  0  0  0  0  0  0
    1.3750   -2.9750   43.0250 C   0  0  0  0  0  0  0  0  0  0  0  0
    0.1630   -2.0870   41.4660 C   0  0  0  0  0  0  0  0  0  0  0  0
    2.2480   -2.0710   42.4010 C   0  0  0  0  0  0  0  0  0  0  0  0
    1.5040   -1.4020   41.2990 C   0  0  0  0  0  0  0  0  0  0  0  0
    3.1230   -3.5800   44.5350 C   0  0  0  0  0  0  0  0  0  0  0  0
    3.5550   -1.9050   42.8170 C   0  0  0  0  0  0  0  0  0  0  0  0
    3.9900   -2.6690   43.9000 C   0  0  0  0  0  0  0  0  0  0  0  0
   -0.3620   -6.8280   45.0190 C   0  0  0  0  0  0  0  0  0  0  0  0
   -0.3790   -6.9930   46.4100 C   0  0  0  0  0  0  0  0  0  0  0  0
   -1.3250   -7.4920   44.2500 C   0  0  0  0  0  0  0  0  0  0  0  0
   -1.3240   -7.8260   47.0160 C   0  0  0  0  0  0  0  0  0  0  0  0
   -2.2700   -8.3260   44.8550 C   0  0  0  0  0  0  0  0  0  0  0  0
   -2.2670   -8.4940   46.2380 C   0  0  0  0  0  0  0  0  0  0  0  0
  1  3  1  0
  1  2  2  3
  2 12  1  0
  3  5  2  0
  3  9  1  0
  4  6  2  0
  4  5  1  0
  5  7  1  0
  6  8  1  0
  7  8  2  0
  7 10  1  0
  9 11  1  0
 10 11  2  0
 12 14  1  0
 12 13  2  0
 13 15  1  0
 14 16  2  0
 15 17  2  0
 16 17  1  0
M  END
>  <vina_dock>  (397) 
-8.222

$$$$
O14757_PocketFlow_idx-in-all-generaetd-60
     RDKit          3D

 20 21  0  0  0  0  0  0  0  0999 V2000
    1.2870   -3.4090   43.2570 C   0  0  0  0  0  0  0  0  0  0  0  0
    2.5950   -3.0020   43.5650 C   0  0  0  0  0  0  0  0  0  0  0  0
    3.1560   -1.8790   42.9420 C   0  0  0  0  0  0  0  0  0  0  0  0
    2.4290   -1.1820   41.9700 C   0  0  0  0  0  0  0  0  0  0  0  0
    1.1310   -1.5820   41.6540 C   0  0  0  0  0  0  0  0  0  0  0  0
    0.5660   -2.6810   42.2990 C   0  0  0  0  0  0  0  0  0  0  0  0
    0.7330   -4.6140   43.8900 C   0  0  0  0  0  0  0  0  0  0  0  0
    1.4840   -5.4650   44.6060 C   0  0  0  0  0  0  0  0  0  0  0  0
    0.9540   -6.7160   45.2530 C   0  0  0  0  0  0  0  0  0  0  0  0
   -0.5560   -6.8380   45.1000 C   0  0  0  0  0  0  0  0  0  0  0  0
   -0.8410   -7.4710   43.9290 F   0  0  0  0  0  0  0  0  0  0  0  0
   -0.7210   -2.9880   41.9510 O   0  0  0  0  0  0  0  0  0  0  0  0
    4.5390   -1.4320   43.2480 C   0  0  0  0  0  0  0  0  0  0  0  0
    5.0220   -0.5050   42.6050 O   0  0  0  0  0  0  0  0  0  0  0  0
    5.3460   -2.0810   44.3120 C   0  0  0  0  0  0  0  0  0  0  0  0
    6.5980   -1.5380   44.6230 C   0  0  0  0  0  0  0  0  0  0  0  0
    4.8690   -3.1850   45.0280 C   0  0  0  0  0  0  0  0  0  0  0  0
    7.3830   -2.1170   45.6210 C   0  0  0  0  0  0  0  0  0  0  0  0
    5.6580   -3.7610   46.0270 C   0  0  0  0  0  0  0  0  0  0  0  0
    6.9140   -3.2300   46.3180 C   0  0  0  0  0  0  0  0  0  0  0  0
  1  6  2  0
  1  2  1  0
  1  7  1  0
  2  3  2  0
  3  4  1  0
  3 13  1  0
  4  5  2  0
  5  6  1  0
  6 12  1  0
  7  8  2  3
  8  9  1  0
  9 10  1  0
 10 11  1  0
 13 14  2  0
 13 15  1  0
 15 16  2  0
 15 17  1  0
 16 18  1  0
 17 19  2  0
 18 20  2  0
 19 20  1  0
M  END
>  <vina_dock>  (398) 
-8.263

$$$$
O14757_PocketFlow_idx-in-all-generaetd-729
     RDKit          3D

  7  6  0  0  0  0  0  0  0  0999 V2000
    4.5090   -2.6110   44.2620 C   0  0  0  0  0  0  0  0  0  0  0  0
    4.4720   -1.8000   43.1940 C   0  0  0  0  0  0  0  0  0  0  0  0
    4.0590   -3.9830   44.2230 C   0  0  0  0  0  0  0  0  0  0  0  0
    1.7810   -3.4340   44.4210 F   0  0  0  0  0  0  0  0  0  0  0  0
    2.7740   -4.3350   44.2980 C   0  0  0  0  0  0  0  0  0  0  0  0
    4.9210   -0.3760   43.2060 C   0  0  0  0  0  0  0  0  0  0  0  0
    4.0110    0.3980   42.5550 F   0  0  0  0  0  0  0  0  0  0  0  0
  1  2  2  3
  1  3  1  0
  2  6  1  0
  3  5  2  3
  4  5  1  0
  6  7  1  0
M  END
>  <vina_dock>  (399) 
-3.705

$$$$
O14757_PocketFlow_idx-in-all-generaetd-471
     RDKit          3D

 34 37  0  0  0  0  0  0  0  0999 V2000
    2.6260   -3.7310   44.7780 O   0  0  0  0  0  0  0  0  0  0  0  0
    3.8740   -3.1680   44.8860 C   0  0  0  0  0  0  0  0  0  0  0  0
    8.5600   -2.0770   46.4860 C   0  0  0  0  0  0  0  0  0  0  0  0
    7.7250   -1.5620   45.4860 C   0  0  0  0  0  0  0  0  0  0  0  0
    8.1050   -3.1190   47.2980 C   0  0  0  0  0  0  0  0  0  0  0  0
    6.4440   -2.0970   45.2710 C   0  0  0  0  0  0  0  0  0  0  0  0
    6.8320   -3.6580   47.0970 C   0  0  0  0  0  0  0  0  0  0  0  0
    5.9930   -3.1610   46.0870 C   0  0  0  0  0  0  0  0  0  0  0  0
    5.6070   -1.6020   44.2590 C   0  0  0  0  0  0  0  0  0  0  0  0
    4.7100   -3.6890   45.8800 C   0  0  0  0  0  0  0  0  0  0  0  0
    4.3340   -2.1490   44.0450 C   0  0  0  0  0  0  0  0  0  0  0  0
    9.9060   -1.4660   46.6650 C   0  0  0  0  0  0  0  0  0  0  0  0
   10.3060   -1.2410   47.9670 N   0  0  0  0  0  0  0  0  0  0  0  0
   10.6060   -1.2230   45.6900 O   0  0  0  0  0  0  0  0  0  0  0  0
   11.6400   -0.7680   48.2480 C   0  0  0  0  0  0  0  0  0  0  0  0
    3.5420   -1.5940   42.9310 C   0  0  0  0  0  0  0  0  0  0  0  0
    2.6100   -2.1520   42.3810 O   0  0  0  0  0  0  0  0  0  0  0  0
    3.8840   -0.3300   42.6300 O   0  0  0  0  0  0  0  0  0  0  0  0
    2.5140   -5.0830   45.0320 C   0  0  0  0  0  0  0  0  0  0  0  0
    3.5960   -5.9520   45.1840 C   0  0  0  0  0  0  0  0  0  0  0  0
    1.2070   -5.5780   45.0960 C   0  0  0  0  0  0  0  0  0  0  0  0
    3.3640   -7.3050   45.4280 C   0  0  0  0  0  0  0  0  0  0  0  0
    0.9540   -6.9370   45.3430 C   0  0  0  0  0  0  0  0  0  0  0  0
    2.0560   -7.7910   45.5100 C   0  0  0  0  0  0  0  0  0  0  0  0
   -0.4230   -7.4500   45.4240 C   0  0  0  0  0  0  0  0  0  0  0  0
   -1.2450   -7.5000   44.2870 C   0  0  0  0  0  0  0  0  0  0  0  0
   -0.9560   -7.9050   46.6430 C   0  0  0  0  0  0  0  0  0  0  0  0
   -2.5530   -7.9840   44.3610 C   0  0  0  0  0  0  0  0  0  0  0  0
   -2.2690   -8.4020   46.7310 C   0  0  0  0  0  0  0  0  0  0  0  0
   -3.0640   -8.4300   45.5780 C   0  0  0  0  0  0  0  0  0  0  0  0
   -2.8210   -8.8590   48.0590 C   0  0  0  0  0  0  0  0  0  0  0  0
   -3.7600   -9.8390   47.9370 F   0  0  0  0  0  0  0  0  0  0  0  0
   -3.4180   -7.8590   48.7650 F   0  0  0  0  0  0  0  0  0  0  0  0
   -1.8550   -9.3670   48.8740 F   0  0  0  0  0  0  0  0  0  0  0  0
  1  2  1  0
  1 19  1  0
  2 11  2  0
  2 10  1  0
  3  4  2  0
  3 12  1  0
  3  5  1  0
  4  6  1  0
  5  7  2  0
  6  9  2  0
  6  8  1  0
  7  8  1  0
  8 10  2  0
  9 11  1  0
 11 16  1  0
 12 14  2  0
 12 13  1  0
 13 15  1  0
 16 17  2  0
 16 18  1  0
 19 21  1  0
 19 20  2  0
 20 22  1  0
 21 23  2  0
 22 24  2  0
 23 25  1  0
 23 24  1  0
 25 26  2  0
 25 27  1  0
 26 28  1  0
 27 29  2  0
 28 30  2  0
 29 30  1  0
 29 31  1  0
 31 32  1  0
 31 33  1  0
 31 34  1  0
M  END
>  <vina_dock>  (400) 
-9.996

$$$$
O14757_PocketFlow_idx-in-all-generaetd-371
     RDKit          3D

 20 23  0  0  0  0  0  0  0  0999 V2000
    0.4460   -5.6360   45.5060 C   0  0  0  0  0  0  0  0  0  0  0  0
   -0.0040   -6.5770   44.8740 O   0  0  0  0  0  0  0  0  0  0  0  0
    1.0910   -4.3900   44.9530 C   0  0  2  0  0  0  0  0  0  0  0  0
    1.3850   -2.9950   42.9020 C   0  0  0  0  0  0  0  0  0  0  0  0
    0.6860   -4.1940   43.4940 C   0  0  0  0  0  0  0  0  0  0  0  0
    0.7680   -2.2950   41.8540 C   0  0  0  0  0  0  0  0  0  0  0  0
    2.6700   -2.6220   43.3610 C   0  0  0  0  0  0  0  0  0  0  0  0
    1.4060   -1.2090   41.2670 C   0  0  0  0  0  0  0  0  0  0  0  0
    3.3330   -3.3170   44.4100 C   0  0  0  0  0  0  0  0  0  0  0  0
    3.3130   -1.5270   42.7440 C   0  0  0  0  0  0  0  0  0  0  0  0
    2.6140   -4.4780   45.0770 C   0  0  0  0  0  0  0  0  0  0  0  0
    2.6700   -0.8280   41.7100 C   0  0  0  0  0  0  0  0  0  0  0  0
    4.6570   -2.9570   44.7990 C   0  0  0  0  0  0  0  0  0  0  0  0
    4.5950   -1.1530   43.1630 C   0  0  0  0  0  0  0  0  0  0  0  0
    5.4080   -3.6400   45.7870 C   0  0  0  0  0  0  0  0  0  0  0  0
    5.2750   -1.8520   44.1670 C   0  0  0  0  0  0  0  0  0  0  0  0
    6.7000   -3.2400   46.1430 C   0  0  0  0  0  0  0  0  0  0  0  0
    6.5730   -1.4580   44.5370 C   0  0  0  0  0  0  0  0  0  0  0  0
    7.2800   -2.1460   45.5200 C   0  0  0  0  0  0  0  0  0  0  0  0
    0.3580   -5.6240   46.8510 O   0  0  0  0  0  0  0  0  0  0  0  0
  1  2  2  0
  3  1  1  6
  1 20  1  0
  3  5  1  0
  3 11  1  0
  4  6  2  0
  4  7  1  0
  4  5  1  0
  6  8  1  0
  7 10  1  0
  7  9  2  0
  8 12  2  0
  9 13  1  0
  9 11  1  0
 10 12  1  0
 10 14  2  0
 13 16  2  0
 13 15  1  0
 14 16  1  0
 15 17  2  0
 16 18  1  0
 17 19  1  0
 18 19  2  0
M  END
>  <vina_dock>  (401) 
-10.311

$$$$
O14757_PocketFlow_idx-in-all-generaetd-309
     RDKit          3D

  6  6  0  0  0  0  0  0  0  0999 V2000
    3.4930   -2.2620   43.1440 C   0  0  0  0  0  0  0  0  0  0  0  0
    4.1070   -3.0980   44.0750 C   0  0  0  0  0  0  0  0  0  0  0  0
    5.3000   -2.7100   44.6820 C   0  0  0  0  0  0  0  0  0  0  0  0
    5.8810   -1.4840   44.3580 C   0  0  0  0  0  0  0  0  0  0  0  0
    4.0740   -1.0350   42.8200 C   0  0  0  0  0  0  0  0  0  0  0  0
    5.2670   -0.6470   43.4270 C   0  0  0  0  0  0  0  0  0  0  0  0
  1  5  2  0
  1  2  1  0
  2  3  2  0
  3  4  1  0
  4  6  2  0
  5  6  1  0
M  END
>  <vina_dock>  (402) 
-3.992

$$$$
O14757_PocketFlow_idx-in-all-generaetd-99
     RDKit          3D

 23 25  0  0  0  0  0  0  0  0999 V2000
    0.8170   -6.9540   44.9810 C   0  0  0  0  0  0  0  0  0  0  0  0
   -0.3450   -6.8270   44.2090 C   0  0  0  0  0  0  0  0  0  0  0  0
   -1.4980   -7.5420   44.5430 C   0  0  0  0  0  0  0  0  0  0  0  0
   -1.5020   -8.3890   45.6560 C   0  0  0  0  0  0  0  0  0  0  0  0
    0.8080   -7.8000   46.0990 C   0  0  0  0  0  0  0  0  0  0  0  0
   -0.3440   -8.5150   46.4330 C   0  0  0  0  0  0  0  0  0  0  0  0
    2.0570   -6.1660   44.6310 C   0  0  0  0  0  0  0  0  0  0  0  0
    1.7270   -4.7020   44.3260 C   0  0  0  0  0  0  0  0  0  0  0  0
    2.9580   -3.8310   44.3890 C   0  0  0  0  0  0  0  0  0  0  0  0
    7.4720   -1.7970   45.4840 C   0  0  0  0  0  0  0  0  0  0  0  0
    8.5840   -1.0530   45.5480 F   0  0  0  0  0  0  0  0  0  0  0  0
    7.3330   -2.8880   46.3250 C   0  0  0  0  0  0  0  0  0  0  0  0
    6.4760   -1.4620   44.5730 C   0  0  0  0  0  0  0  0  0  0  0  0
    6.1740   -3.6580   46.2550 C   0  0  0  0  0  0  0  0  0  0  0  0
    5.2920   -2.2240   44.4780 C   0  0  0  0  0  0  0  0  0  0  0  0
    5.1520   -3.3400   45.3420 C   0  0  0  0  0  0  0  0  0  0  0  0
    4.2450   -1.9260   43.5660 C   0  0  0  0  0  0  0  0  0  0  0  0
    3.9920   -4.1270   45.2830 C   0  0  0  0  0  0  0  0  0  0  0  0
    4.3270   -0.7570   42.6190 C   0  0  0  0  0  0  0  0  0  0  0  0
    3.0970   -2.7340   43.5330 C   0  0  0  0  0  0  0  0  0  0  0  0
   -2.7010   -9.1670   46.0510 C   0  0  0  0  0  0  0  0  0  0  0  0
   -2.7890  -10.3810   46.0730 O   0  0  0  0  0  0  0  0  0  0  0  0
   -3.7400   -8.3870   46.3990 O   0  0  0  0  0  0  0  0  0  0  0  0
  1  2  2  0
  1  7  1  0
  1  5  1  0
  2  3  1  0
  3  4  2  0
  4 21  1  0
  4  6  1  0
  5  6  2  0
  7  8  1  0
  8  9  1  0
  9 20  2  0
  9 18  1  0
 10 13  2  0
 10 11  1  0
 10 12  1  0
 12 14  2  0
 13 15  1  0
 14 16  1  0
 15 17  2  0
 15 16  1  0
 16 18  2  0
 17 19  1  0
 17 20  1  0
 21 22  2  0
 21 23  1  0
M  END
>  <vina_dock>  (403) 
-9.094

$$$$
O14757_PocketFlow_idx-in-all-generaetd-655
     RDKit          3D

 24 27  0  0  0  0  0  0  0  0999 V2000
    0.8250   -1.5780   41.3290 C   0  0  0  0  0  0  0  0  0  0  0  0
    2.0510   -1.4510   41.9950 C   0  0  0  0  0  0  0  0  0  0  0  0
    2.4450   -2.3770   42.9710 C   0  0  0  0  0  0  0  0  0  0  0  0
    1.5460   -3.4200   43.2890 C   0  0  0  0  0  0  0  0  0  0  0  0
   -0.0610   -2.6190   41.6150 C   0  0  0  0  0  0  0  0  0  0  0  0
    0.3440   -3.5590   42.5680 C   0  0  0  0  0  0  0  0  0  0  0  0
    3.7500   -2.3230   43.6660 C   0  0  0  0  0  0  0  0  0  0  0  0
    4.8290   -1.5280   43.2530 C   0  0  0  0  0  0  0  0  0  0  0  0
    6.0440   -1.5290   43.9510 C   0  0  0  0  0  0  0  0  0  0  0  0
    6.2270   -2.3280   45.0870 C   0  0  0  0  0  0  0  0  0  0  0  0
    5.1550   -3.1310   45.5000 C   0  0  0  0  0  0  0  0  0  0  0  0
    3.9360   -3.1430   44.7950 C   0  0  0  0  0  0  0  0  0  0  0  0
    2.7830   -3.9750   45.2950 C   0  0  0  0  0  0  0  0  0  0  0  0
    1.9010   -4.4240   44.2200 N   0  0  0  0  0  0  0  0  0  0  0  0
   -1.2210   -2.7310   40.8580 N   0  0  0  0  0  0  0  0  0  0  0  0
   -2.4340   -2.0030   41.1610 C   0  0  2  0  0  0  0  0  0  0  0  0
   -3.3130   -2.3020   40.1640 F   0  0  0  0  0  0  0  0  0  0  0  0
   -2.2210   -0.5010   41.1350 C   0  0  0  0  0  0  0  0  0  0  0  0
    7.5020   -2.3260   45.8220 C   0  0  0  0  0  0  0  0  0  0  0  0
    7.9260   -3.4570   46.5400 C   0  0  0  0  0  0  0  0  0  0  0  0
    8.3330   -1.1930   45.8270 C   0  0  0  0  0  0  0  0  0  0  0  0
    9.1360   -3.4560   47.2380 C   0  0  0  0  0  0  0  0  0  0  0  0
    9.5430   -1.1900   46.5260 C   0  0  0  0  0  0  0  0  0  0  0  0
    9.9430   -2.3220   47.2310 C   0  0  0  0  0  0  0  0  0  0  0  0
  1  5  2  0
  1  2  1  0
  2  3  2  0
  3  4  1  0
  3  7  1  0
  4  6  2  0
  4 14  1  0
  5 15  1  0
  5  6  1  0
  7  8  2  0
  7 12  1  0
  8  9  1  0
  9 10  2  0
 10 11  1  0
 10 19  1  0
 11 12  2  0
 12 13  1  0
 13 14  1  0
 15 16  1  0
 16 17  1  0
 16 18  1  6
 19 21  1  0
 19 20  2  0
 20 22  1  0
 21 23  2  0
 22 24  2  0
 23 24  1  0
M  END
>  <vina_dock>  (404) 
-9.818

$$$$
O14757_PocketFlow_idx-in-all-generaetd-999
     RDKit          3D

 32 34  0  0  0  0  0  0  0  0999 V2000
    4.0280   -4.8210   45.2520 C   0  0  0  0  0  0  0  0  0  0  0  0
    3.2280   -4.0450   44.3920 C   0  0  0  0  0  0  0  0  0  0  0  0
    1.8820   -4.4300   44.1650 C   0  0  0  0  0  0  0  0  0  0  0  0
    1.1220   -3.6110   43.2890 C   0  0  0  0  0  0  0  0  0  0  0  0
    1.6490   -2.4820   42.6260 C   0  0  0  0  0  0  0  0  0  0  0  0
    2.9760   -2.1380   42.8580 C   0  0  0  0  0  0  0  0  0  0  0  0
    3.7460   -2.8940   43.7550 C   0  0  0  0  0  0  0  0  0  0  0  0
    3.5350   -5.9580   45.8960 C   0  0  0  0  0  0  0  0  0  0  0  0
    2.2070   -6.3320   45.6730 C   0  0  0  0  0  0  0  0  0  0  0  0
    1.3660   -5.6010   44.8100 C   0  0  0  0  0  0  0  0  0  0  0  0
    4.4290   -6.7770   46.7970 C   0  0  0  0  0  0  0  0  0  0  0  0
    5.2940   -5.9070   47.5900 N   0  0  0  0  0  0  0  0  0  0  0  0
    5.8760   -6.2430   48.8120 C   0  0  0  0  0  0  0  0  0  0  0  0
    5.5770   -7.3990   49.4270 C   0  0  0  0  0  0  0  0  0  0  0  0
    6.9280   -5.3170   49.4050 C   0  0  0  0  0  0  0  0  0  0  0  0
    6.3080   -4.1010   49.8230 O   0  0  0  0  0  0  0  0  0  0  0  0
    5.0670   -2.5590   43.9600 O   0  0  0  0  0  0  0  0  0  0  0  0
    5.2000   -1.4970   44.9250 C   0  0  0  0  0  0  0  0  0  0  0  0
    6.5680   -1.6210   45.5900 C   0  0  2  0  0  0  0  0  0  0  0  0
    7.5150   -1.7950   44.6180 F   0  0  0  0  0  0  0  0  0  0  0  0
    6.6540   -2.8190   46.5310 C   0  0  0  0  0  0  0  0  0  0  0  0
    7.2830   -3.9350   45.9100 O   0  0  0  0  0  0  0  0  0  0  0  0
    3.5850   -1.0730   42.2450 O   0  0  0  0  0  0  0  0  0  0  0  0
   -0.0720   -6.0490   44.5950 C   0  0  1  0  0  0  0  0  0  0  0  0
   -0.4040   -7.0730   43.4990 C   0  0  0  0  0  0  0  0  0  0  0  0
   -0.6710   -6.7150   45.8220 C   0  0  0  0  0  0  0  0  0  0  0  0
   -1.7050   -7.6660   43.8970 N   0  0  0  0  0  0  0  0  0  0  0  0
   -1.7870   -7.4600   45.1720 C   0  0  0  0  0  0  0  0  0  0  0  0
    0.7450   -1.6860   41.7310 C   0  0  0  0  0  0  0  0  0  0  0  0
   -0.4900   -2.2510   41.5770 F   0  0  0  0  0  0  0  0  0  0  0  0
    1.2480   -1.5480   40.4730 F   0  0  0  0  0  0  0  0  0  0  0  0
    0.5210   -0.4230   42.1870 F   0  0  0  0  0  0  0  0  0  0  0  0
  1  2  2  0
  1  8  1  0
  2  7  1  0
  2  3  1  0
  3  4  1  0
  3 10  2  0
  4  5  2  0
  5 29  1  0
  5  6  1  0
  6 23  1  0
  6  7  2  0
  7 17  1  0
  8  9  2  0
  8 11  1  0
  9 10  1  0
 24 10  1  1
 11 12  1  0
 12 13  2  3
 13 15  1  0
 13 14  1  0
 15 16  1  0
 17 18  1  0
 18 19  1  0
 19 20  1  6
 19 21  1  0
 21 22  1  0
 24 25  1  0
 24 26  1  0
 25 27  1  0
 26 28  1  0
 27 28  1  0
 29 31  1  0
 29 30  1  0
 29 32  1  0
M  CHG  1  12   1
M  END
>  <vina_dock>  (405) 
-7.669

$$$$
O14757_PocketFlow_idx-in-all-generaetd-734
     RDKit          3D

 35 39  0  0  0  0  0  0  0  0999 V2000
    1.1170   -5.3610   44.3910 C   0  0  0  0  0  0  0  0  0  0  0  0
    2.3930   -4.9940   44.8560 C   0  0  0  0  0  0  0  0  0  0  0  0
    3.0270   -3.8180   44.4200 C   0  0  0  0  0  0  0  0  0  0  0  0
    2.3610   -2.9960   43.4990 C   0  0  0  0  0  0  0  0  0  0  0  0
    1.0870   -3.3400   43.0310 C   0  0  0  0  0  0  0  0  0  0  0  0
    0.4770   -4.5250   43.4650 C   0  0  0  0  0  0  0  0  0  0  0  0
    0.4440   -6.6430   44.8460 C   0  0  2  0  0  0  0  0  0  0  0  0
   -1.7920   -7.6440   44.7130 C   0  0  0  0  0  0  0  0  0  0  0  0
   -1.8500   -7.9620   46.1890 C   0  0  0  0  0  0  0  0  0  0  0  0
   -0.8790   -6.7410   44.2560 N   0  0  0  0  0  0  0  0  0  0  0  0
   -2.6250   -8.1660   43.8730 N   0  0  0  0  0  0  0  0  0  0  0  0
   -0.4670   -7.9210   46.8300 C   0  0  2  0  0  0  0  0  0  0  0  0
    0.3410   -6.7050   46.3740 C   0  0  0  0  0  0  0  0  0  0  0  0
    0.4250   -9.4400   46.4960 Cl  0  0  0  0  0  0  0  0  0  0  0  0
    4.3620   -3.4640   44.9110 C   0  0  0  0  0  0  0  0  0  0  0  0
    4.9100   -4.1050   46.0260 C   0  0  0  0  0  0  0  0  0  0  0  0
    5.1230   -2.4740   44.2770 C   0  0  0  0  0  0  0  0  0  0  0  0
    6.1890   -3.7690   46.4890 C   0  0  0  0  0  0  0  0  0  0  0  0
    6.4010   -2.1390   44.7450 C   0  0  0  0  0  0  0  0  0  0  0  0
    6.9680   -2.7840   45.8560 C   0  0  0  0  0  0  0  0  0  0  0  0
    8.3200   -2.4560   46.3590 C   0  0  0  0  0  0  0  0  0  0  0  0
    8.9200   -3.4180   47.1090 N   0  0  0  0  0  0  0  0  0  0  0  0
    8.9650   -1.2490   46.0790 C   0  0  0  0  0  0  0  0  0  0  0  0
   10.1590   -3.1700   47.5880 C   0  0  0  0  0  0  0  0  0  0  0  0
   10.2440   -1.0210   46.5850 C   0  0  0  0  0  0  0  0  0  0  0  0
   10.8550   -1.9980   47.3570 C   0  0  0  0  0  0  0  0  0  0  0  0
    0.3600   -2.4940   42.0420 C   0  0  0  0  0  0  0  0  0  0  0  0
    1.0270   -1.8170   41.2680 O   0  0  0  0  0  0  0  0  0  0  0  0
   -1.0180   -2.5980   42.0860 N   0  0  0  0  0  0  0  0  0  0  0  0
   -1.9540   -1.8970   41.2960 C   0  0  0  0  0  0  0  0  0  0  0  0
   -2.0580   -0.5150   41.5050 C   0  0  0  0  0  0  0  0  0  0  0  0
   -2.7610   -2.4930   40.3270 C   0  0  0  0  0  0  0  0  0  0  0  0
   -2.9580    0.2530   40.7610 C   0  0  0  0  0  0  0  0  0  0  0  0
   -3.6610   -1.7250   39.5820 C   0  0  0  0  0  0  0  0  0  0  0  0
   -3.7610   -0.3520   39.8000 C   0  0  0  0  0  0  0  0  0  0  0  0
  1  6  1  0
  7  1  1  1
  1  2  2  0
  2  3  1  0
  3  4  2  0
  3 15  1  0
  4  5  1  0
  5 27  1  0
  5  6  2  0
  7 10  1  0
  7 13  1  0
  8 11  2  3
  8 10  1  0
  8  9  1  0
  9 12  1  0
 12 13  1  0
 12 14  1  6
 15 17  1  0
 15 16  2  0
 16 18  1  0
 17 19  2  0
 18 20  2  0
 19 20  1  0
 20 21  1  0
 21 23  1  0
 21 22  2  0
 22 24  1  0
 23 25  2  0
 24 26  2  0
 25 26  1  0
 27 28  2  0
 27 29  1  0
 29 30  1  0
 30 32  1  0
 30 31  2  0
 31 33  1  0
 32 34  2  0
 33 35  2  0
 34 35  1  0
M  END
>  <vina_dock>  (406) 
-10.997

$$$$
O14757_PocketFlow_idx-in-all-generaetd-101
     RDKit          3D

 21 22  0  0  0  0  0  0  0  0999 V2000
    7.5900   -3.5210   46.9400 C   0  0  0  0  0  0  0  0  0  0  0  0
    9.0210   -3.8410   46.4950 C   0  0  0  0  0  0  0  0  0  0  0  0
   10.1390   -3.2380   47.3570 C   0  0  0  0  0  0  0  0  0  0  0  0
   11.5160   -3.1880   46.6940 C   0  0  0  0  0  0  0  0  0  0  0  0
   11.7800   -1.9030   45.9390 C   0  0  0  0  0  0  0  0  0  0  0  0
   11.2730   -0.7890   46.5440 N   0  0  0  0  0  0  0  0  0  0  0  0
   12.3780   -1.8210   44.8740 O   0  0  0  0  0  0  0  0  0  0  0  0
    6.7460   -2.8870   45.8850 C   0  0  0  0  0  0  0  0  0  0  0  0
    7.0240   -1.7980   45.1520 C   0  0  0  0  0  0  0  0  0  0  0  0
    5.3810   -3.4040   45.5150 C   0  0  0  0  0  0  0  0  0  0  0  0
    5.9220   -1.5200   44.2680 C   0  0  0  0  0  0  0  0  0  0  0  0
    4.9430   -2.4270   44.4460 C   0  0  0  0  0  0  0  0  0  0  0  0
    3.6460   -2.5140   43.7550 C   0  0  0  0  0  0  0  0  0  0  0  0
    2.6630   -3.4340   44.1520 C   0  0  0  0  0  0  0  0  0  0  0  0
    3.3510   -1.6720   42.6710 C   0  0  0  0  0  0  0  0  0  0  0  0
    1.4300   -3.5120   43.4910 C   0  0  0  0  0  0  0  0  0  0  0  0
    2.1200   -1.7430   42.0060 C   0  0  0  0  0  0  0  0  0  0  0  0
    1.1550   -2.6660   42.4140 C   0  0  0  0  0  0  0  0  0  0  0  0
   -0.1630   -2.7820   41.7440 C   0  0  0  0  0  0  0  0  0  0  0  0
   -0.9650   -1.8810   41.5860 O   0  0  0  0  0  0  0  0  0  0  0  0
   -0.4150   -4.0270   41.3010 O   0  0  0  0  0  0  0  0  0  0  0  0
  1  8  1  0
  1  2  1  0
  2  3  2  3
  3  4  1  0
  4  5  1  0
  5  7  2  0
  5  6  1  0
  8  9  2  0
  8 10  1  0
  9 11  1  0
 10 12  1  0
 11 12  2  0
 12 13  1  0
 13 15  1  0
 13 14  2  0
 14 16  1  0
 15 17  2  0
 16 18  2  0
 17 18  1  0
 18 19  1  0
 19 21  1  0
 19 20  2  0
M  END
>  <vina_dock>  (407) 
-7.872

$$$$
O14757_PocketFlow_idx-in-all-generaetd-103
     RDKit          3D

 26 29  0  0  0  0  0  0  0  0999 V2000
    8.5280   -2.3160   46.4180 C   0  0  0  0  0  0  0  0  0  0  0  0
    8.9620   -3.2980   47.3250 C   0  0  0  0  0  0  0  0  0  0  0  0
   10.2080   -3.1990   47.9560 C   0  0  0  0  0  0  0  0  0  0  0  0
   11.0440   -2.1110   47.6910 C   0  0  0  0  0  0  0  0  0  0  0  0
   10.6260   -1.1260   46.7910 C   0  0  0  0  0  0  0  0  0  0  0  0
    9.3800   -1.2290   46.1630 C   0  0  0  0  0  0  0  0  0  0  0  0
    7.2180   -2.4240   45.7550 C   0  0  0  0  0  0  0  0  0  0  0  0
    0.9050   -2.7230   42.3770 C   0  0  0  0  0  0  0  0  0  0  0  0
    1.8570   -1.7340   42.1140 C   0  0  0  0  0  0  0  0  0  0  0  0
    1.1730   -3.6820   43.3490 C   0  0  0  0  0  0  0  0  0  0  0  0
    3.0860   -1.7070   42.7950 C   0  0  0  0  0  0  0  0  0  0  0  0
    2.3950   -3.6600   44.0340 C   0  0  0  0  0  0  0  0  0  0  0  0
    4.0130   -0.7070   42.4950 C   0  0  0  0  0  0  0  0  0  0  0  0
    3.3890   -2.6810   43.7800 C   0  0  0  0  0  0  0  0  0  0  0  0
    5.2400   -0.6510   43.1510 C   0  0  0  0  0  0  0  0  0  0  0  0
    4.6610   -2.6230   44.4580 C   0  0  0  0  0  0  0  0  0  0  0  0
    5.5750   -1.5930   44.1260 C   0  0  0  0  0  0  0  0  0  0  0  0
    5.0760   -3.5380   45.4540 C   0  0  0  0  0  0  0  0  0  0  0  0
    6.8240   -1.5080   44.7710 C   0  0  0  0  0  0  0  0  0  0  0  0
    6.3230   -3.4420   46.0850 C   0  0  0  0  0  0  0  0  0  0  0  0
   -0.3730   -2.6950   41.6180 C   0  0  0  0  0  0  0  0  0  0  0  0
   -0.6900   -3.7970   40.8720 N   0  0  0  0  0  0  0  0  0  0  0  0
   -1.1050   -1.7130   41.6250 O   0  0  0  0  0  0  0  0  0  0  0  0
   12.3720   -1.9600   48.3330 C   0  0  0  0  0  0  0  0  0  0  0  0
   13.1040   -2.8680   48.6790 O   0  0  0  0  0  0  0  0  0  0  0  0
   12.7210   -0.6740   48.5130 O   0  0  0  0  0  0  0  0  0  0  0  0
  1  7  1  0
  1  6  1  0
  1  2  2  0
  2  3  1  0
  3  4  2  0
  4  5  1  0
  4 24  1  0
  5  6  2  0
  7 19  2  0
  7 20  1  0
  8 21  1  0
  8  9  2  0
  8 10  1  0
  9 11  1  0
 10 12  2  0
 11 13  2  0
 11 14  1  0
 12 14  1  0
 13 15  1  0
 14 16  2  0
 15 17  2  0
 16 17  1  0
 16 18  1  0
 17 19  1  0
 18 20  2  0
 21 22  1  0
 21 23  2  0
 24 26  1  0
 24 25  2  0
M  END
>  <vina_dock>  (408) 
-9.934

$$$$
O14757_PocketFlow_idx-in-all-generaetd-720
     RDKit          3D

 35 37  0  0  0  0  0  0  0  0999 V2000
    7.6190   -3.6440   48.2490 C   0  0  2  0  0  0  0  0  0  0  0  0
    6.5970   -3.1630   47.1670 C   0  0  1  0  0  0  0  0  0  0  0  0
    8.9760   -2.9080   48.1840 C   0  0  0  0  0  0  0  0  0  0  0  0
    8.9930   -1.8070   47.1300 C   0  0  2  0  0  0  0  0  0  0  0  0
    8.6120   -2.3560   45.7600 C   0  0  0  0  0  0  0  0  0  0  0  0
    7.2170   -3.0150   45.7490 C   0  0  2  0  0  0  0  0  0  0  0  0
   10.7940   -1.0420   47.0380 Br  0  0  0  0  0  0  0  0  0  0  0  0
    7.8200   -5.1570   48.3340 C   0  0  0  0  0  0  0  0  0  0  0  0
    8.2880   -7.9360   48.4780 C   0  0  0  0  0  0  0  0  0  0  0  0
    7.1870   -7.3710   49.1280 C   0  0  0  0  0  0  0  0  0  0  0  0
    9.1540   -7.1170   47.7510 C   0  0  0  0  0  0  0  0  0  0  0  0
    6.9520   -5.9940   49.0530 C   0  0  0  0  0  0  0  0  0  0  0  0
    8.9210   -5.7380   47.6800 C   0  0  0  0  0  0  0  0  0  0  0  0
    8.5150   -9.3500   48.5430 C   0  0  0  0  0  0  0  0  0  0  0  0
    8.6980  -10.4950   48.6040 N   0  0  0  0  0  0  0  0  0  0  0  0
    5.3420   -4.0240   47.1590 C   0  0  0  0  0  0  0  0  0  0  0  0
    4.5120   -4.1400   46.1120 C   0  0  0  0  0  0  0  0  0  0  0  0
    3.2600   -4.8630   46.1510 C   0  0  0  0  0  0  0  0  0  0  0  0
    2.3060   -4.7950   45.2060 C   0  0  0  0  0  0  0  0  0  0  0  0
    1.0540   -5.5770   45.1870 C   0  0  0  0  0  0  0  0  0  0  0  0
    0.2050   -5.6780   46.2990 C   0  0  0  0  0  0  0  0  0  0  0  0
    0.7350   -6.3130   44.0340 C   0  0  0  0  0  0  0  0  0  0  0  0
   -0.9370   -6.4880   46.2570 C   0  0  0  0  0  0  0  0  0  0  0  0
   -0.4040   -7.1250   43.9880 C   0  0  0  0  0  0  0  0  0  0  0  0
   -1.2530   -7.1970   45.0960 C   0  0  0  0  0  0  0  0  0  0  0  0
   -2.4460   -8.0760   45.1070 C   0  0  0  0  0  0  0  0  0  0  0  0
   -2.5300   -9.1090   46.0470 N   0  0  0  0  0  0  0  0  0  0  0  0
   -3.3160   -7.8420   44.2660 O   0  0  0  0  0  0  0  0  0  0  0  0
   -3.7610   -9.8800   46.0630 C   0  0  0  0  0  0  0  0  0  0  0  0
   -1.3470   -9.8150   46.5300 C   0  0  0  0  0  0  0  0  0  0  0  0
    6.3150   -2.2390   44.8620 C   0  0  0  0  0  0  0  0  0  0  0  0
    5.5840   -1.6270   44.1310 C   0  0  0  0  0  0  0  0  0  0  0  0
    4.7090   -0.8750   43.2760 C   0  0  0  0  0  0  0  0  0  0  0  0
    4.8140    0.3230   43.0840 O   0  0  0  0  0  0  0  0  0  0  0  0
    3.7330   -1.6090   42.7070 O   0  0  0  0  0  0  0  0  0  0  0  0
  1  2  1  0
  1  3  1  0
  1  8  1  6
  2  6  1  0
  2 16  1  6
  3  4  1  0
  4  5  1  0
  4  7  1  6
  5  6  1  0
  6 31  1  6
  8 13  2  0
  8 12  1  0
  9 11  2  0
  9 14  1  0
  9 10  1  0
 10 12  2  0
 11 13  1  0
 14 15  3  0
 16 17  2  3
 17 18  1  0
 18 19  2  3
 19 20  1  0
 20 22  1  0
 20 21  2  0
 21 23  1  0
 22 24  2  0
 23 25  2  0
 24 25  1  0
 25 26  1  0
 26 28  2  0
 26 27  1  0
 27 29  1  0
 27 30  1  0
 31 32  3  0
 32 33  1  0
 33 35  1  0
 33 34  2  0
M  END
>  <vina_dock>  (409) 
-7.903

$$$$
O14757_PocketFlow_idx-in-all-generaetd-107
     RDKit          3D

 26 28  0  0  0  0  0  0  0  0999 V2000
    0.9270   -4.2290   43.4930 C   0  0  2  0  0  0  0  0  0  0  0  0
    1.3790   -2.8080   43.0140 C   0  0  2  0  0  0  0  0  0  0  0  0
    1.1570   -2.6000   41.2410 Cl  0  0  0  0  0  0  0  0  0  0  0  0
    2.7910   -2.4290   43.4200 C   0  0  0  0  0  0  0  0  0  0  0  0
    4.7870   -1.0760   43.1990 C   0  0  0  0  0  0  0  0  0  0  0  0
    5.4460   -1.7780   44.2340 C   0  0  0  0  0  0  0  0  0  0  0  0
    3.4840   -1.3830   42.8100 C   0  0  0  0  0  0  0  0  0  0  0  0
    4.7650   -2.8530   44.8570 C   0  0  0  0  0  0  0  0  0  0  0  0
    6.7450   -1.4530   44.6860 C   0  0  0  0  0  0  0  0  0  0  0  0
    3.4470   -3.1530   44.4310 C   0  0  0  0  0  0  0  0  0  0  0  0
    5.4070   -3.5880   45.8890 C   0  0  0  0  0  0  0  0  0  0  0  0
    7.3630   -2.1800   45.7000 C   0  0  0  0  0  0  0  0  0  0  0  0
    6.7010   -3.2480   46.2960 C   0  0  0  0  0  0  0  0  0  0  0  0
    5.3810   -0.0560   42.5010 O   0  0  0  0  0  0  0  0  0  0  0  0
    4.6840   -4.6250   46.4330 O   0  0  0  0  0  0  0  0  0  0  0  0
    5.2520   -5.3180   47.5370 C   0  0  0  0  0  0  0  0  0  0  0  0
   -0.0570   -4.7820   42.6370 O   0  0  0  0  0  0  0  0  0  0  0  0
    0.3210   -4.2810   44.8210 N   0  0  0  0  0  0  0  0  0  0  0  0
    0.9680   -5.2630   45.6980 C   0  0  0  0  0  0  0  0  0  0  0  0
    1.0600   -6.6460   45.0320 C   0  0  0  0  0  0  0  0  0  0  0  0
   -0.1770   -7.4890   45.2420 C   0  0  0  0  0  0  0  0  0  0  0  0
   -0.2890   -8.3230   46.3630 C   0  0  0  0  0  0  0  0  0  0  0  0
   -1.2410   -7.4260   44.3320 C   0  0  0  0  0  0  0  0  0  0  0  0
   -1.4440   -9.0780   46.5700 C   0  0  0  0  0  0  0  0  0  0  0  0
   -2.3960   -8.1810   44.5410 C   0  0  0  0  0  0  0  0  0  0  0  0
   -2.4970   -9.0060   45.6590 C   0  0  0  0  0  0  0  0  0  0  0  0
  1 17  1  6
  1  2  1  0
  1 18  1  0
  2  3  1  6
  2  4  1  0
  4  7  1  0
  4 10  2  0
  5 14  1  0
  5  7  2  0
  5  6  1  0
  6  9  2  0
  6  8  1  0
  8 10  1  0
  8 11  2  0
  9 12  1  0
 11 13  1  0
 11 15  1  0
 12 13  2  0
 15 16  1  0
 18 19  1  0
 19 20  1  0
 20 21  1  0
 21 23  1  0
 21 22  2  0
 22 24  1  0
 23 25  2  0
 24 26  2  0
 25 26  1  0
M  END
>  <vina_dock>  (410) 
-8.653

$$$$
O14757_PocketFlow_idx-in-all-generaetd-153
     RDKit          3D

  8  7  0  0  0  0  0  0  0  0999 V2000
    2.4610   -3.8780   44.2150 C   0  0  0  0  0  0  0  0  0  0  0  0
    1.0600   -3.6840   43.6280 C   0  0  0  0  0  0  0  0  0  0  0  0
    1.0400   -2.7660   42.4030 C   0  0  0  0  0  0  0  0  0  0  0  0
    0.0380   -3.1940   41.3410 C   0  0  0  0  0  0  0  0  0  0  0  0
    3.3980   -2.8000   43.7480 C   0  0  0  0  0  0  0  0  0  0  0  0
    4.5230   -2.4610   44.3930 C   0  0  0  0  0  0  0  0  0  0  0  0
    5.4070   -1.4180   43.9320 C   0  0  0  0  0  0  0  0  0  0  0  0
    5.0130   -0.4380   43.1110 C   0  0  0  0  0  0  0  0  0  0  0  0
  1  2  1  0
  1  5  1  0
  2  3  1  0
  3  4  1  0
  5  6  2  3
  6  7  1  0
  7  8  2  0
M  END
>  <vina_dock>  (411) 
-4.554

$$$$
O14757_PocketFlow_idx-in-all-generaetd-192
     RDKit          3D

 28 29  0  0  0  0  0  0  0  0999 V2000
    4.8680   -0.8880   45.1750 C   0  0  0  0  0  0  0  0  0  0  0  0
    4.6590   -1.9580   45.9640 C   0  0  0  0  0  0  0  0  0  0  0  0
    5.5100   -0.8880   43.8790 C   0  0  0  0  0  0  0  0  0  0  0  0
    4.9210   -0.6310   42.7010 C   0  0  0  0  0  0  0  0  0  0  0  0
    3.4780   -0.3180   42.4200 C   0  0  0  0  0  0  0  0  0  0  0  0
    2.6400   -1.5990   42.3620 C   0  0  0  0  0  0  0  0  0  0  0  0
    1.6140   -1.5670   41.2340 C   0  0  1  0  0  0  0  0  0  0  0  0
    0.7940   -2.8070   41.0780 C   0  0  0  0  0  0  0  0  0  0  0  0
   -0.4890   -2.5270   41.3200 C   0  0  0  0  0  0  0  0  0  0  0  0
    0.4540   -0.6650   41.5880 C   0  0  0  0  0  0  0  0  0  0  0  0
   -0.7170   -1.2190   41.6360 N   0  0  0  0  0  0  0  0  0  0  0  0
    5.0040   -3.4150   45.6780 C   0  0  1  0  0  0  0  0  0  0  0  0
    5.9180   -4.0290   46.7630 C   0  0  2  0  0  0  0  0  0  0  0  0
    5.3880   -3.7380   47.9910 F   0  0  0  0  0  0  0  0  0  0  0  0
    7.3710   -3.6180   46.6410 C   0  0  0  0  0  0  0  0  0  0  0  0
    8.3500   -4.4680   46.5890 N   0  0  0  0  0  0  0  0  0  0  0  0
    3.7830   -4.2790   45.3520 C   0  0  0  0  0  0  0  0  0  0  0  0
    2.7160   -3.7080   44.6370 C   0  0  0  0  0  0  0  0  0  0  0  0
    3.6930   -5.6390   45.7000 C   0  0  0  0  0  0  0  0  0  0  0  0
    1.5910   -4.4620   44.2970 C   0  0  0  0  0  0  0  0  0  0  0  0
    2.5700   -6.3990   45.3570 C   0  0  0  0  0  0  0  0  0  0  0  0
    1.5160   -5.8040   44.6580 C   0  0  0  0  0  0  0  0  0  0  0  0
    2.5100   -7.8160   45.7210 C   0  0  0  0  0  0  0  0  0  0  0  0
    1.4110   -8.4780   46.1160 C   0  0  0  0  0  0  0  0  0  0  0  0
    0.0800   -7.9280   46.2340 C   0  0  0  0  0  0  0  0  0  0  0  0
   -0.8420   -8.0330   45.2630 C   0  0  0  0  0  0  0  0  0  0  0  0
   -2.2330   -7.4780   45.3730 C   0  0  0  0  0  0  0  0  0  0  0  0
   -3.1750   -8.1350   44.3760 C   0  0  0  0  0  0  0  0  0  0  0  0
  1  3  1  0
  1  2  2  3
  2 12  1  0
  3  4  2  3
  4  5  1  0
  5  6  1  0
  7  6  1  1
  7  8  1  0
  7 10  1  0
  8  9  2  0
  9 11  1  0
 10 11  2  0
 12 17  1  1
 12 13  1  0
 13 15  1  0
 13 14  1  1
 15 16  2  3
 17 18  2  0
 17 19  1  0
 18 20  1  0
 19 21  2  0
 20 22  2  0
 21 22  1  0
 21 23  1  0
 23 24  2  3
 24 25  1  0
 25 26  2  3
 26 27  1  0
 27 28  1  0
M  END
>  <vina_dock>  (412) 
-8.236

$$$$
O14757_PocketFlow_idx-in-all-generaetd-66
     RDKit          3D

 13 13  0  0  0  0  0  0  0  0999 V2000
    0.7410   -5.1440   44.4020 C   0  0  0  0  0  0  0  0  0  0  0  0
    1.0890   -6.2230   45.1200 C   0  0  0  0  0  0  0  0  0  0  0  0
    1.6140   -4.0070   44.2200 C   0  0  0  0  0  0  0  0  0  0  0  0
    2.9520   -4.1160   44.1990 C   0  0  0  0  0  0  0  0  0  0  0  0
    3.8630   -2.9770   44.0210 C   0  0  0  0  0  0  0  0  0  0  0  0
    5.9530   -1.8820   44.6070 C   0  0  0  0  0  0  0  0  0  0  0  0
    5.6880   -0.8690   43.6890 C   0  0  0  0  0  0  0  0  0  0  0  0
    5.0480   -2.9340   44.7680 C   0  0  0  0  0  0  0  0  0  0  0  0
    4.5210   -0.9080   42.9290 C   0  0  0  0  0  0  0  0  0  0  0  0
    3.6150   -1.9590   43.0900 C   0  0  0  0  0  0  0  0  0  0  0  0
    0.2030   -7.4200   45.3160 C   0  0  0  0  0  0  0  0  0  0  0  0
   -0.9660   -7.3930   44.3770 C   0  0  0  0  0  0  0  0  0  0  0  0
   -2.1760   -7.8930   44.6620 C   0  0  0  0  0  0  0  0  0  0  0  0
  1  3  1  0
  1  2  2  3
  2 11  1  0
  3  4  2  3
  4  5  1  0
  5 10  2  0
  5  8  1  0
  6  7  1  0
  6  8  2  0
  7  9  2  0
  9 10  1  0
 11 12  1  0
 12 13  2  0
M  END
>  <vina_dock>  (413) 
-6.472

$$$$
O14757_PocketFlow_idx-in-all-generaetd-184
     RDKit          3D

 33 35  0  0  0  0  0  0  0  0999 V2000
    7.2020   -3.3320   46.9670 C   0  0  0  0  0  0  0  0  0  0  0  0
    5.8190   -3.2840   46.7290 C   0  0  0  0  0  0  0  0  0  0  0  0
    5.3360   -2.4300   45.7270 C   0  0  0  0  0  0  0  0  0  0  0  0
    6.2150   -1.6580   44.9550 C   0  0  0  0  0  0  0  0  0  0  0  0
    8.0860   -2.5080   46.2670 C   0  0  0  0  0  0  0  0  0  0  0  0
    7.5880   -1.7110   45.2320 C   0  0  0  0  0  0  0  0  0  0  0  0
    4.8710   -4.1370   47.5380 C   0  0  0  0  0  0  0  0  0  0  0  0
    4.9550   -5.5470   47.1610 N   0  0  0  0  0  0  0  0  0  0  0  0
    4.0140   -5.8650   46.0860 C   0  0  0  0  0  0  0  0  0  0  0  0
    3.2860   -7.1850   46.3610 C   0  0  0  0  0  0  0  0  0  0  0  0
    2.3640   -7.6330   45.2080 C   0  0  2  0  0  0  0  0  0  0  0  0
    1.6390   -6.4420   44.5900 C   0  0  0  0  0  0  0  0  0  0  0  0
    1.4980   -8.7370   45.5050 O   0  0  0  0  0  0  0  0  0  0  0  0
    0.3410   -6.2530   44.2980 C   0  0  0  0  0  0  0  0  0  0  0  0
    0.8990   -8.7900   46.8010 C   0  0  0  0  0  0  0  0  0  0  0  0
   -0.6820   -7.2170   44.5850 C   0  0  0  0  0  0  0  0  0  0  0  0
   -0.2550   -9.8150   46.8110 C   0  0  0  0  0  0  0  0  0  0  0  0
   -1.4710   -7.1080   45.6610 C   0  0  0  0  0  0  0  0  0  0  0  0
   -1.6950   -9.3710   46.6220 C   0  0  0  0  0  0  0  0  0  0  0  0
   -2.2230   -8.2250   46.1650 C   0  0  0  0  0  0  0  0  0  0  0  0
    9.4690   -2.6400   46.4480 N   0  0  0  0  0  0  0  0  0  0  0  0
    5.6870   -0.7750   43.8510 C   0  0  0  0  0  0  0  0  0  0  0  0
    4.2300   -1.0190   43.5780 C   0  0  0  0  0  0  0  0  0  0  0  0
    3.7400   -1.3660   42.3780 C   0  0  0  0  0  0  0  0  0  0  0  0
    2.3140   -1.6040   42.1200 C   0  0  0  0  0  0  0  0  0  0  0  0
    1.7040   -2.8300   42.4150 C   0  0  0  0  0  0  0  0  0  0  0  0
    1.5500   -0.5960   41.5210 C   0  0  0  0  0  0  0  0  0  0  0  0
    0.3510   -3.0340   42.1330 C   0  0  0  0  0  0  0  0  0  0  0  0
    0.1960   -0.8000   41.2420 C   0  0  0  0  0  0  0  0  0  0  0  0
   -0.4180   -2.0240   41.5420 C   0  0  0  0  0  0  0  0  0  0  0  0
   -1.8820   -2.2510   41.2490 C   0  0  0  0  0  0  0  0  0  0  0  0
   -2.6150   -0.9850   41.2610 N   0  0  0  0  0  0  0  0  0  0  0  0
   -3.6820   -0.9900   40.2730 C   0  0  0  0  0  0  0  0  0  0  0  0
  1  5  2  0
  1  2  1  0
  2  3  2  0
  2  7  1  0
  3  4  1  0
  4 22  1  0
  4  6  2  0
  5  6  1  0
  5 21  1  0
  7  8  1  0
  8  9  1  0
  9 10  1  0
 11 10  1  1
 11 12  1  0
 11 13  1  0
 12 14  2  3
 13 15  1  0
 14 16  1  0
 15 17  1  0
 16 18  2  3
 17 19  1  0
 18 20  1  0
 19 20  2  3
 22 23  1  0
 23 24  2  3
 24 25  1  0
 25 27  1  0
 25 26  2  0
 26 28  1  0
 27 29  2  0
 28 30  2  0
 29 30  1  0
 30 31  1  0
 31 32  1  0
 32 33  1  0
M  END
>  <vina_dock>  (414) 
-8.808

$$$$
O14757_PocketFlow_idx-in-all-generaetd-252
     RDKit          3D

 28 32  0  0  0  0  0  0  0  0999 V2000
   -0.0750   -1.9060   41.9730 C   0  0  0  0  0  0  0  0  0  0  0  0
    0.4290   -2.7980   42.9400 C   0  0  0  0  0  0  0  0  0  0  0  0
    1.7930   -2.8280   43.2720 C   0  0  0  0  0  0  0  0  0  0  0  0
    0.8150   -1.0340   41.3340 C   0  0  0  0  0  0  0  0  0  0  0  0
    2.6590   -1.8970   42.6580 C   0  0  0  0  0  0  0  0  0  0  0  0
    2.1690   -1.0330   41.6710 C   0  0  0  0  0  0  0  0  0  0  0  0
    2.4030   -3.7740   44.2640 C   0  0  0  0  0  0  0  0  0  0  0  0
    1.7560   -4.9100   44.5970 C   0  0  0  0  0  0  0  0  0  0  0  0
    3.7880   -3.5240   44.7810 C   0  0  0  0  0  0  0  0  0  0  0  0
    4.3450   -4.1590   45.9000 C   0  0  0  0  0  0  0  0  0  0  0  0
    5.6600   -3.8890   46.2970 C   0  0  0  0  0  0  0  0  0  0  0  0
    6.4570   -2.9760   45.5950 C   0  0  0  0  0  0  0  0  0  0  0  0
    5.8910   -2.3200   44.4920 C   0  0  0  0  0  0  0  0  0  0  0  0
    4.5640   -2.5590   44.1010 C   0  0  1  0  0  0  0  0  0  0  0  0
    4.0350   -1.8820   42.9790 N   0  0  0  0  0  0  0  0  0  0  0  0
   -1.5490   -1.8990   41.6160 C   0  0  2  0  0  0  0  0  0  0  0  0
   -1.7940   -2.5700   40.3550 N   0  0  0  0  0  0  0  0  0  0  0  0
   -2.0300   -0.5640   41.4850 N   0  0  0  0  0  0  0  0  0  0  0  0
   -3.2140   -2.6040   40.1120 C   0  0  0  0  0  0  0  0  0  0  0  0
   -3.1940   -0.2830   40.8600 C   0  0  0  0  0  0  0  0  0  0  0  0
   -3.6910   -1.2650   40.0750 N   0  0  0  0  0  0  0  0  0  0  0  0
   -3.7520    0.8010   40.9760 O   0  0  0  0  0  0  0  0  0  0  0  0
    7.8450   -2.7090   46.0060 C   0  0  0  0  0  0  0  0  0  0  0  0
    8.6700   -3.7410   46.4830 C   0  0  0  0  0  0  0  0  0  0  0  0
    8.3850   -1.4150   45.9300 C   0  0  0  0  0  0  0  0  0  0  0  0
    9.9880   -3.4880   46.8720 C   0  0  0  0  0  0  0  0  0  0  0  0
    9.7010   -1.1590   46.3210 C   0  0  0  0  0  0  0  0  0  0  0  0
   10.5020   -2.1960   46.7910 C   0  0  0  0  0  0  0  0  0  0  0  0
  1  4  1  0
 16  1  1  6
  1  2  2  0
  2  3  1  0
  3  5  2  0
  3  7  1  0
  4  6  2  0
  5  6  1  0
  5 15  1  0
  7  8  1  0
  7  9  2  0
  9 14  1  0
  9 10  1  0
 10 11  2  0
 11 12  1  0
 12 13  2  0
 12 23  1  0
 13 14  1  0
 14 15  1  6
 16 17  1  0
 16 18  1  0
 17 19  1  0
 18 20  1  0
 19 21  1  0
 20 21  1  0
 20 22  2  0
 23 25  1  0
 23 24  2  0
 24 26  1  0
 25 27  2  0
 26 28  2  0
 27 28  1  0
M  END
>  <vina_dock>  (415) 
-10.368

$$$$
O14757_PocketFlow_idx-in-all-generaetd-334
     RDKit          3D

 35 39  0  0  0  0  0  0  0  0999 V2000
    8.7440   -1.6430   46.1230 C   0  0  0  0  0  0  0  0  0  0  0  0
    7.6590   -1.4170   45.2760 C   0  0  0  0  0  0  0  0  0  0  0  0
    8.6810   -2.6910   47.0430 C   0  0  0  0  0  0  0  0  0  0  0  0
    6.5150   -2.2350   45.3490 C   0  0  0  0  0  0  0  0  0  0  0  0
    5.3390   -1.9600   44.4380 C   0  0  0  0  0  0  0  0  0  0  0  0
    4.1780   -2.9230   44.5610 C   0  0  0  0  0  0  0  0  0  0  0  0
    3.0570   -2.7750   43.7380 C   0  0  0  0  0  0  0  0  0  0  0  0
    7.5500   -3.5070   47.1220 C   0  0  0  0  0  0  0  0  0  0  0  0
    6.4690   -3.2970   46.2650 C   0  0  0  0  0  0  0  0  0  0  0  0
    1.9750   -3.6500   43.8600 C   0  0  0  0  0  0  0  0  0  0  0  0
    1.9740   -4.6930   44.8030 C   0  0  0  0  0  0  0  0  0  0  0  0
    3.1080   -4.8180   45.6280 C   0  0  0  0  0  0  0  0  0  0  0  0
    4.2110   -3.9610   45.5020 C   0  0  0  0  0  0  0  0  0  0  0  0
    5.3080   -4.0770   46.3690 N   0  0  0  0  0  0  0  0  0  0  0  0
    9.9080   -0.9280   46.1610 O   0  0  0  0  0  0  0  0  0  0  0  0
   11.0200   -1.4910   46.8380 C   0  0  0  0  0  0  0  0  0  0  0  0
   12.0070   -2.2390   45.9590 C   0  0  0  0  0  0  0  0  0  0  0  0
   12.3760   -1.8950   44.8460 O   0  0  0  0  0  0  0  0  0  0  0  0
   12.4520   -3.3890   46.5030 O   0  0  0  0  0  0  0  0  0  0  0  0
    0.8130   -5.6010   44.9190 C   0  0  0  0  0  0  0  0  0  0  0  0
    0.3370   -6.3680   43.8550 C   0  0  0  0  0  0  0  0  0  0  0  0
    0.2130   -5.6410   46.1380 N   0  0  0  0  0  0  0  0  0  0  0  0
   -0.7650   -7.2040   44.0490 C   0  0  0  0  0  0  0  0  0  0  0  0
   -0.8540   -6.4620   46.3040 C   0  0  0  0  0  0  0  0  0  0  0  0
   -1.3800   -7.2600   45.3000 C   0  0  0  0  0  0  0  0  0  0  0  0
   -2.5470   -8.1490   45.4990 C   0  0  0  0  0  0  0  0  0  0  0  0
   -3.6990   -7.7460   45.4510 O   0  0  0  0  0  0  0  0  0  0  0  0
   -2.1190   -9.4400   45.7350 O   0  0  0  0  0  0  0  0  0  0  0  0
   -1.8700   -9.7000   47.0850 C   0  0  0  0  0  0  0  0  0  0  0  0
   -0.5590   -9.9540   47.4850 C   0  0  0  0  0  0  0  0  0  0  0  0
   -2.9130   -9.6260   48.0070 C   0  0  0  0  0  0  0  0  0  0  0  0
   -0.3040  -10.1660   48.8380 C   0  0  0  0  0  0  0  0  0  0  0  0
   -2.6440   -9.8400   49.3580 C   0  0  0  0  0  0  0  0  0  0  0  0
    1.3040  -10.4880   49.3600 Cl  0  0  0  0  0  0  0  0  0  0  0  0
   -1.3380  -10.1130   49.7740 C   0  0  0  0  0  0  0  0  0  0  0  0
  1  2  2  0
  1 15  1  0
  1  3  1  0
  2  4  1  0
  3  8  2  0
  4  5  1  0
  4  9  2  0
  5  6  2  0
  6  7  1  0
  6 13  1  0
  7 10  1  0
  8  9  1  0
  9 14  1  0
 10 11  2  0
 11 20  1  0
 11 12  1  0
 12 13  2  0
 13 14  1  0
 15 16  1  0
 16 17  1  0
 17 18  2  0
 17 19  1  0
 20 21  2  0
 20 22  1  0
 21 23  1  0
 22 24  2  0
 23 25  2  0
 24 25  1  0
 25 26  1  0
 26 27  2  0
 26 28  1  0
 28 29  1  0
 29 30  2  0
 29 31  1  0
 30 32  1  0
 31 33  2  0
 32 34  1  0
 32 35  2  0
 33 35  1  0
M  END
>  <vina_dock>  (416) 
-9.835

$$$$
O14757_PocketFlow_idx-in-all-generaetd-890
     RDKit          3D

 32 34  0  0  0  0  0  0  0  0999 V2000
    6.2430   -2.0800   45.2420 C   0  0  0  0  0  0  0  0  0  0  0  0
    5.2170   -3.0450   45.2710 C   0  0  0  0  0  0  0  0  0  0  0  0
    4.1640   -3.0380   44.3380 C   0  0  0  0  0  0  0  0  0  0  0  0
    4.1600   -2.0340   43.3590 C   0  0  0  0  0  0  0  0  0  0  0  0
    5.1740   -1.0770   43.3060 C   0  0  0  0  0  0  0  0  0  0  0  0
    6.2100   -1.1010   44.2370 C   0  0  0  0  0  0  0  0  0  0  0  0
    7.3660   -2.1530   46.2770 C   0  0  1  0  0  0  0  0  0  0  0  0
    7.5690   -3.5380   46.8800 C   0  0  0  0  0  0  0  0  0  0  0  0
    7.1330   -4.0000   48.0660 C   0  0  0  0  0  0  0  0  0  0  0  0
    7.3550   -5.3770   48.6500 C   0  0  0  0  0  0  0  0  0  0  0  0
    6.1530   -6.3270   48.7990 C   0  0  0  0  0  0  0  0  0  0  0  0
    5.2050   -6.2320   47.6900 N   0  0  0  0  0  0  0  0  0  0  0  0
    8.6900   -1.5770   45.7300 C   0  0  0  0  0  0  0  0  0  0  0  0
    9.7400   -1.5360   46.7590 C   0  0  0  0  0  0  0  0  0  0  0  0
   10.5710   -1.4960   47.5670 N   0  0  0  0  0  0  0  0  0  0  0  0
    3.0990   -4.0550   44.3870 C   0  0  0  0  0  0  0  0  0  0  0  0
    1.7560   -3.7110   44.1550 C   0  0  0  0  0  0  0  0  0  0  0  0
    3.3940   -5.3990   44.6690 C   0  0  0  0  0  0  0  0  0  0  0  0
    0.7430   -4.6750   44.2060 C   0  0  0  0  0  0  0  0  0  0  0  0
    2.3840   -6.3680   44.7240 C   0  0  0  0  0  0  0  0  0  0  0  0
    1.0510   -6.0090   44.4940 C   0  0  0  0  0  0  0  0  0  0  0  0
   -0.0600   -6.9960   44.5420 C   0  0  0  0  0  0  0  0  0  0  0  0
   -0.9120   -7.1070   43.6740 O   0  0  0  0  0  0  0  0  0  0  0  0
    0.0070   -7.7290   45.6730 O   0  0  0  0  0  0  0  0  0  0  0  0
   -0.5060   -7.0590   46.8210 C   0  0  2  0  0  0  0  0  0  0  0  0
   -1.0420   -8.1300   47.7470 C   0  0  0  0  0  0  0  0  0  0  0  0
   -0.1540   -8.9790   48.4290 C   0  0  0  0  0  0  0  0  0  0  0  0
   -2.4210   -8.3390   47.9030 C   0  0  0  0  0  0  0  0  0  0  0  0
   -0.6350   -9.9950   49.2580 C   0  0  0  0  0  0  0  0  0  0  0  0
   -2.9010   -9.3550   48.7330 C   0  0  0  0  0  0  0  0  0  0  0  0
   -2.0060  -10.1820   49.4100 C   0  0  0  0  0  0  0  0  0  0  0  0
   -1.5480   -6.1620   46.4630 O   0  0  0  0  0  0  0  0  0  0  0  0
  1  6  2  0
  1  2  1  0
  1  7  1  0
  2  3  2  0
  3  4  1  0
  3 16  1  0
  4  5  2  0
  5  6  1  0
  7 13  1  6
  7  8  1  0
  8  9  2  3
  9 10  1  0
 10 11  1  0
 11 12  1  0
 13 14  1  0
 14 15  3  0
 16 17  2  0
 16 18  1  0
 17 19  1  0
 18 20  2  0
 19 21  2  0
 20 21  1  0
 21 22  1  0
 22 23  2  0
 22 24  1  0
 24 25  1  0
 25 32  1  6
 25 26  1  0
 26 28  1  0
 26 27  2  0
 27 29  1  0
 28 30  2  0
 29 31  2  0
 30 31  1  0
M  END
>  <vina_dock>  (417) 
-8.542

$$$$
O14757_PocketFlow_idx-in-all-generaetd-458
     RDKit          3D

 33 35  0  0  0  0  0  0  0  0999 V2000
    1.3630   -2.4340   42.6140 C   0  0  0  0  0  0  0  0  0  0  0  0
    1.9040   -3.2850   43.6250 C   0  0  0  0  0  0  0  0  0  0  0  0
    3.2330   -3.0630   44.0820 C   0  0  0  0  0  0  0  0  0  0  0  0
    3.9740   -1.9960   43.5180 C   0  0  0  0  0  0  0  0  0  0  0  0
    3.4380   -1.1790   42.5170 C   0  0  0  0  0  0  0  0  0  0  0  0
    2.1440   -1.3990   42.0700 C   0  0  0  0  0  0  0  0  0  0  0  0
    3.7590   -3.9110   45.0880 C   0  0  0  0  0  0  0  0  0  0  0  0
    3.0150   -4.9530   45.6400 C   0  0  0  0  0  0  0  0  0  0  0  0
    1.7170   -5.1770   45.1980 C   0  0  0  0  0  0  0  0  0  0  0  0
    1.1750   -4.3520   44.2030 C   0  0  0  0  0  0  0  0  0  0  0  0
   -0.0410   -2.6080   42.0530 C   0  0  0  0  0  0  0  0  0  0  0  0
   -0.1220   -3.5800   40.8880 C   0  0  0  0  0  0  0  0  0  0  0  0
   -1.2550   -3.3580   40.1800 F   0  0  0  0  0  0  0  0  0  0  0  0
   -0.1480   -4.8650   41.2950 F   0  0  0  0  0  0  0  0  0  0  0  0
    0.9170   -3.4260   40.0380 F   0  0  0  0  0  0  0  0  0  0  0  0
    0.8720   -6.2650   45.7490 C   0  0  0  0  0  0  0  0  0  0  0  0
    0.8040   -7.3990   45.3130 O   0  0  0  0  0  0  0  0  0  0  0  0
    0.1490   -5.8780   46.8130 O   0  0  0  0  0  0  0  0  0  0  0  0
    5.3540   -1.6840   43.9640 C   0  0  0  0  0  0  0  0  0  0  0  0
    5.9890   -0.8140   43.3870 O   0  0  0  0  0  0  0  0  0  0  0  0
    5.7960   -2.5020   44.9870 N   0  0  0  0  0  0  0  0  0  0  0  0
    6.9740   -2.3290   45.6900 C   0  0  0  0  0  0  0  0  0  0  0  0
    7.6720   -1.3250   45.6860 O   0  0  0  0  0  0  0  0  0  0  0  0
    7.3340   -3.4500   46.6040 C   0  0  0  0  0  0  0  0  0  0  0  0
    6.3810   -3.8900   47.5280 C   0  0  0  0  0  0  0  0  0  0  0  0
    8.6010   -4.0470   46.5750 C   0  0  0  0  0  0  0  0  0  0  0  0
    6.6790   -4.9390   48.4030 C   0  0  0  0  0  0  0  0  0  0  0  0
    8.8980   -5.0960   47.4510 C   0  0  0  0  0  0  0  0  0  0  0  0
    7.9430   -5.5500   48.3760 C   0  0  0  0  0  0  0  0  0  0  0  0
    8.2620   -6.6980   49.3070 C   0  0  0  0  0  0  0  0  0  0  0  0
    9.4720   -6.5750   49.9180 F   0  0  0  0  0  0  0  0  0  0  0  0
    7.3450   -6.8180   50.3040 F   0  0  0  0  0  0  0  0  0  0  0  0
    8.2850   -7.9030   48.6720 F   0  0  0  0  0  0  0  0  0  0  0  0
  1 11  1  0
  1  6  2  0
  1  2  1  0
  2  3  2  0
  2 10  1  0
  3  4  1  0
  3  7  1  0
  4  5  2  0
  4 19  1  0
  5  6  1  0
  7  8  2  0
  8  9  1  0
  9 10  2  0
  9 16  1  0
 11 12  1  0
 12 15  1  0
 12 13  1  0
 12 14  1  0
 16 17  2  0
 16 18  1  0
 19 20  2  0
 19 21  1  0
 21 22  1  0
 22 23  2  0
 22 24  1  0
 24 26  1  0
 24 25  2  0
 25 27  1  0
 26 28  2  0
 27 29  2  0
 28 29  1  0
 29 30  1  0
 30 33  1  0
 30 31  1  0
 30 32  1  0
M  END
>  <vina_dock>  (418) 
-9.62

$$$$
O14757_PocketFlow_idx-in-all-generaetd-402
     RDKit          3D

 35 39  0  0  0  0  0  0  0  0999 V2000
    9.8550   -6.6280   49.6660 C   0  0  0  0  0  0  0  0  0  0  0  0
    9.2930   -5.5380   50.5920 C   0  0  0  0  0  0  0  0  0  0  0  0
    9.0160   -4.2620   49.8900 N   0  0  0  0  0  0  0  0  0  0  0  0
    1.1110   -3.0680   42.5180 C   0  0  0  0  0  0  0  0  0  0  0  0
    1.0720   -3.9590   43.5870 C   0  0  0  0  0  0  0  0  0  0  0  0
    2.2600   -2.3010   42.3140 C   0  0  0  0  0  0  0  0  0  0  0  0
    2.1660   -4.0560   44.4560 C   0  0  0  0  0  0  0  0  0  0  0  0
    3.3610   -2.3900   43.1840 C   0  0  0  0  0  0  0  0  0  0  0  0
    3.3380   -3.2750   44.2910 C   0  0  0  0  0  0  0  0  0  0  0  0
    4.4850   -1.5940   42.9520 C   0  0  0  0  0  0  0  0  0  0  0  0
    4.4820   -3.3330   45.1670 C   0  0  0  0  0  0  0  0  0  0  0  0
    5.5840   -1.6510   43.8030 C   0  0  0  0  0  0  0  0  0  0  0  0
    4.5800   -4.1740   46.3020 C   0  0  0  0  0  0  0  0  0  0  0  0
    5.5950   -2.5070   44.9080 C   0  0  0  0  0  0  0  0  0  0  0  0
    5.7060   -4.2000   47.1510 C   0  0  0  0  0  0  0  0  0  0  0  0
    6.7190   -2.5350   45.7580 C   0  0  0  0  0  0  0  0  0  0  0  0
    5.7210   -5.0410   48.2650 C   0  0  0  0  0  0  0  0  0  0  0  0
    6.8130   -3.3750   46.8940 C   0  0  0  0  0  0  0  0  0  0  0  0
    6.8080   -5.0600   49.1430 C   0  0  0  0  0  0  0  0  0  0  0  0
    7.9390   -3.4190   47.7900 C   0  0  0  0  0  0  0  0  0  0  0  0
    7.9410   -4.2520   48.9440 C   0  0  0  0  0  0  0  0  0  0  0  0
    9.1320   -2.5880   47.5090 C   0  0  0  0  0  0  0  0  0  0  0  0
    9.9610   -2.8990   46.4990 C   0  0  0  0  0  0  0  0  0  0  0  0
    9.3490   -1.4400   48.4530 C   0  0  0  0  0  0  0  0  0  0  0  0
    9.5850   -3.0860   50.3740 C   0  0  0  0  0  0  0  0  0  0  0  0
    9.7150   -1.8650   49.8410 C   0  0  0  0  0  0  0  0  0  0  0  0
   -0.0220   -2.9220   41.5610 C   0  0  0  0  0  0  0  0  0  0  0  0
    0.0370   -3.4410   40.4530 O   0  0  0  0  0  0  0  0  0  0  0  0
   -1.0870   -2.1540   41.9860 N   0  0  0  0  0  0  0  0  0  0  0  0
   -2.1840   -1.8590   41.0970 C   0  0  0  0  0  0  0  0  0  0  0  0
   11.0920   -6.2050   48.8610 C   0  0  0  0  0  0  0  0  0  0  0  0
   10.9380   -6.3560   47.3490 C   0  0  0  0  0  0  0  0  0  0  0  0
    9.6260   -7.0640   46.9950 C   0  0  0  0  0  0  0  0  0  0  0  0
    9.8300   -8.3820   46.2440 C   0  0  0  0  0  0  0  0  0  0  0  0
   11.1280   -9.0940   46.5940 C   0  0  0  0  0  0  0  0  0  0  0  0
  1 31  1  0
  1  2  1  0
  2  3  1  0
  3 21  1  0
  3 25  1  0
  4 27  1  0
  4  6  1  0
  4  5  2  0
  5  7  1  0
  6  8  2  0
  7  9  2  0
  8 10  1  0
  8  9  1  0
  9 11  1  0
 10 12  2  0
 11 14  1  0
 11 13  2  0
 12 14  1  0
 13 15  1  0
 14 16  2  0
 15 18  1  0
 15 17  2  0
 16 18  1  0
 17 19  1  0
 18 20  2  0
 19 21  2  0
 20 22  1  0
 20 21  1  0
 22 23  2  0
 22 24  1  0
 24 26  1  0
 25 26  2  0
 27 28  2  0
 27 29  1  0
 29 30  1  0
 31 32  1  0
 32 33  1  0
 33 34  1  0
 34 35  1  0
M  END
>  <vina_dock>  (419) 
-8.774

$$$$
O14757_PocketFlow_idx-in-all-generaetd-54
     RDKit          3D

 26 27  0  0  0  0  0  0  0  0999 V2000
    3.2780   -1.0020   42.5410 C   0  0  0  0  0  0  0  0  0  0  0  0
    4.2130   -0.0300   42.9140 C   0  0  0  0  0  0  0  0  0  0  0  0
    5.3230   -0.3770   43.6880 C   0  0  0  0  0  0  0  0  0  0  0  0
    5.5170   -1.7040   44.0920 C   0  0  0  0  0  0  0  0  0  0  0  0
    4.5860   -2.6790   43.7160 C   0  0  0  0  0  0  0  0  0  0  0  0
    3.4740   -2.3290   42.9460 C   0  0  0  0  0  0  0  0  0  0  0  0
    2.0860   -0.6340   41.6890 C   0  0  0  0  0  0  0  0  0  0  0  0
    1.4400   -1.8730   41.0650 C   0  0  0  0  0  0  0  0  0  0  0  0
    0.3890   -2.5300   41.9640 C   0  0  0  0  0  0  0  0  0  0  0  0
   -0.7660   -3.1600   41.1840 C   0  0  0  0  0  0  0  0  0  0  0  0
   -1.9410   -2.2250   41.0840 C   0  0  0  0  0  0  0  0  0  0  0  0
   -2.0340   -1.0950   41.5270 O   0  0  0  0  0  0  0  0  0  0  0  0
   -2.9710   -2.7870   40.4240 O   0  0  0  0  0  0  0  0  0  0  0  0
    6.7080   -2.0200   44.9260 C   0  0  0  0  0  0  0  0  0  0  0  0
    7.6020   -1.2220   45.1580 O   0  0  0  0  0  0  0  0  0  0  0  0
    6.6420   -3.2950   45.3770 O   0  0  0  0  0  0  0  0  0  0  0  0
    6.7890   -3.4310   46.8000 C   0  0  0  0  0  0  0  0  0  0  0  0
    5.4840   -3.9630   47.4170 C   0  0  2  0  0  0  0  0  0  0  0  0
    5.6570   -4.0630   48.8390 O   0  0  0  0  0  0  0  0  0  0  0  0
    5.0580   -5.3350   46.8720 C   0  0  0  0  0  0  0  0  0  0  0  0
    3.7490   -5.3150   46.1240 C   0  0  0  0  0  0  0  0  0  0  0  0
    2.9080   -4.2000   46.1990 C   0  0  0  0  0  0  0  0  0  0  0  0
    3.3550   -6.4160   45.3510 C   0  0  0  0  0  0  0  0  0  0  0  0
    1.6950   -4.1810   45.5080 C   0  0  0  0  0  0  0  0  0  0  0  0
    2.1430   -6.3950   44.6590 C   0  0  0  0  0  0  0  0  0  0  0  0
    1.3140   -5.2780   44.7350 C   0  0  0  0  0  0  0  0  0  0  0  0
  1  7  1  0
  1  2  2  0
  1  6  1  0
  2  3  1  0
  3  4  2  0
  4  5  1  0
  4 14  1  0
  5  6  2  0
  7  8  1  0
  8  9  1  0
  9 10  1  0
 10 11  1  0
 11 13  1  0
 11 12  2  0
 14 15  2  0
 14 16  1  0
 16 17  1  0
 17 18  1  0
 18 20  1  0
 18 19  1  1
 20 21  1  0
 21 23  1  0
 21 22  2  0
 22 24  1  0
 23 25  2  0
 24 26  2  0
 25 26  1  0
M  END
>  <vina_dock>  (420) 
-7.457

$$$$
O14757_PocketFlow_idx-in-all-generaetd-687
     RDKit          3D

 28 30  0  0  0  0  0  0  0  0999 V2000
    4.6700   -2.2800   44.8980 C   0  0  1  0  0  0  0  0  0  0  0  0
    5.0610   -1.8460   43.4840 C   0  0  0  0  0  0  0  0  0  0  0  0
    3.8310   -1.3220   42.7500 C   0  0  0  0  0  0  0  0  0  0  0  0
    2.6450   -2.2520   42.8360 C   0  0  0  0  0  0  0  0  0  0  0  0
    1.6020   -2.0780   41.9110 C   0  0  0  0  0  0  0  0  0  0  0  0
    0.4810   -2.8970   41.9450 C   0  0  0  0  0  0  0  0  0  0  0  0
    0.3830   -3.8970   42.9070 C   0  0  0  0  0  0  0  0  0  0  0  0
    1.3970   -4.0830   43.8620 C   0  0  0  0  0  0  0  0  0  0  0  0
    2.5390   -3.2460   43.8360 C   0  0  0  0  0  0  0  0  0  0  0  0
    3.6700   -3.4500   44.8280 C   0  0  0  0  0  0  0  0  0  0  0  0
    5.8610   -2.6320   45.7620 C   0  0  0  0  0  0  0  0  0  0  0  0
    8.1520   -2.3070   46.5390 C   0  0  0  0  0  0  0  0  0  0  0  0
    7.0600   -1.9190   45.7370 C   0  0  0  0  0  0  0  0  0  0  0  0
    7.9800   -3.4170   47.3720 C   0  0  0  0  0  0  0  0  0  0  0  0
    6.8260   -4.1080   47.4190 N   0  0  0  0  0  0  0  0  0  0  0  0
    5.8100   -3.7220   46.6190 C   0  0  0  0  0  0  0  0  0  0  0  0
    9.4260   -1.5010   46.5230 C   0  0  1  0  0  0  0  0  0  0  0  0
    9.3310   -0.3360   45.8250 F   0  0  0  0  0  0  0  0  0  0  0  0
    9.8610   -1.0940   47.8490 N   0  0  0  0  0  0  0  0  0  0  0  0
    8.9570   -3.8250   48.2830 N   0  0  0  0  0  0  0  0  0  0  0  0
    1.2400   -5.2230   44.8390 C   0  0  0  0  0  0  0  0  0  0  0  0
   -0.0450   -5.8620   44.6820 N   0  0  0  0  0  0  0  0  0  0  0  0
   -0.2120   -7.2190   44.9150 C   0  0  0  0  0  0  0  0  0  0  0  0
    0.7210   -7.9240   45.3010 O   0  0  0  0  0  0  0  0  0  0  0  0
   -1.6450   -7.7470   44.6770 C   0  0  0  0  0  0  0  0  0  0  0  0
   -1.8290   -8.9910   45.1950 F   0  0  0  0  0  0  0  0  0  0  0  0
   -1.9720   -7.8150   43.3590 F   0  0  0  0  0  0  0  0  0  0  0  0
   -2.5840   -6.9470   45.2660 F   0  0  0  0  0  0  0  0  0  0  0  0
  1  2  1  0
  1 10  1  0
  1 11  1  1
  2  3  1  0
  3  4  1  0
  4  5  2  0
  4  9  1  0
  5  6  1  0
  6  7  2  0
  7  8  1  0
  8  9  2  0
  8 21  1  0
  9 10  1  0
 11 13  1  0
 11 16  2  0
 12 13  2  0
 12 17  1  0
 12 14  1  0
 14 15  2  0
 14 20  1  0
 15 16  1  0
 17 18  1  0
 17 19  1  1
 21 22  1  0
 22 23  1  0
 23 25  1  0
 23 24  2  0
 25 27  1  0
 25 26  1  0
 25 28  1  0
M  END
>  <vina_dock>  (421) 
-9.935

$$$$
O14757_PocketFlow_idx-in-all-generaetd-380
     RDKit          3D

 33 36  0  0  0  0  0  0  0  0999 V2000
    3.3340   -0.3670   42.1000 C   0  0  0  0  0  0  0  0  0  0  0  0
    4.0690    0.3810   42.8430 N   0  0  0  0  0  0  0  0  0  0  0  0
    2.0510   -0.1770   41.6580 N   0  0  0  0  0  0  0  0  0  0  0  0
    1.0310   -1.1230   41.4430 C   0  0  0  0  0  0  0  0  0  0  0  0
   -1.3770   -1.6070   41.4570 C   0  0  0  0  0  0  0  0  0  0  0  0
   -0.3040   -0.7230   41.6300 C   0  0  0  0  0  0  0  0  0  0  0  0
   -1.1210   -2.9210   41.0810 C   0  0  0  0  0  0  0  0  0  0  0  0
    0.1960   -3.3430   40.8970 C   0  0  0  0  0  0  0  0  0  0  0  0
    1.2600   -2.4530   41.0840 C   0  0  0  0  0  0  0  0  0  0  0  0
   -2.6070   -1.0480   41.6710 O   0  0  0  0  0  0  0  0  0  0  0  0
   -3.2910   -0.4460   40.5730 C   0  0  0  0  0  0  0  0  0  0  0  0
   -3.7610    0.9520   40.9340 C   0  0  0  0  0  0  0  0  0  0  0  0
    5.4050   -0.1620   43.1160 C   0  0  0  0  0  0  0  0  0  0  0  0
    5.3840   -1.3970   43.9860 C   0  0  0  0  0  0  0  0  0  0  0  0
    4.2960   -2.2790   43.9500 C   0  0  0  0  0  0  0  0  0  0  0  0
    6.4740   -1.6950   44.8180 C   0  0  0  0  0  0  0  0  0  0  0  0
    4.2720   -3.4380   44.7420 C   0  0  0  0  0  0  0  0  0  0  0  0
    6.4880   -2.8400   45.6280 C   0  0  0  0  0  0  0  0  0  0  0  0
    5.3750   -3.6980   45.5750 C   0  0  0  0  0  0  0  0  0  0  0  0
    3.1220   -4.3570   44.7020 C   0  0  0  0  0  0  0  0  0  0  0  0
    3.2740   -5.7190   45.0090 C   0  0  0  0  0  0  0  0  0  0  0  0
    1.8420   -3.8980   44.3550 C   0  0  0  0  0  0  0  0  0  0  0  0
    2.1820   -6.5930   44.9720 C   0  0  0  0  0  0  0  0  0  0  0  0
    0.7470   -4.7680   44.3190 C   0  0  0  0  0  0  0  0  0  0  0  0
    0.9050   -6.1230   44.6370 C   0  0  0  0  0  0  0  0  0  0  0  0
   -0.2670   -7.0620   44.5890 C   0  0  0  0  0  0  0  0  0  0  0  0
   -0.1280   -8.3000   45.8520 Cl  0  0  0  0  0  0  0  0  0  0  0  0
    7.6330   -3.1300   46.5120 C   0  0  0  0  0  0  0  0  0  0  0  0
    7.5750   -4.1640   47.4610 C   0  0  0  0  0  0  0  0  0  0  0  0
    8.8190   -2.3810   46.4280 C   0  0  0  0  0  0  0  0  0  0  0  0
    8.6610   -4.4390   48.2960 C   0  0  0  0  0  0  0  0  0  0  0  0
    9.9060   -2.6550   47.2630 C   0  0  0  0  0  0  0  0  0  0  0  0
    9.8260   -3.6830   48.1960 C   0  0  0  0  0  0  0  0  0  0  0  0
  1  3  1  0
  1  2  1  0
  2 13  1  0
  3  4  1  0
  4  9  1  0
  4  6  2  0
  5  7  2  0
  5  6  1  0
  5 10  1  0
  7  8  1  0
  8  9  2  0
 10 11  1  0
 11 12  1  0
 13 14  1  0
 14 15  2  0
 14 16  1  0
 15 17  1  0
 16 18  2  0
 17 20  1  0
 17 19  2  0
 18 19  1  0
 18 28  1  0
 20 22  1  0
 20 21  2  0
 21 23  1  0
 22 24  2  0
 23 25  2  0
 24 25  1  0
 25 26  1  0
 26 27  1  0
 28 30  1  0
 28 29  2  0
 29 31  1  0
 30 32  2  0
 31 33  2  0
 32 33  1  0
M  END
>  <vina_dock>  (422) 
-10.045

$$$$
O14757_PocketFlow_idx-in-all-generaetd-419
     RDKit          3D

 35 38  0  0  0  0  0  0  0  0999 V2000
    0.6700   -6.1180   45.7600 C   0  0  0  0  0  0  0  0  0  0  0  0
    1.4030   -4.9650   45.4340 C   0  0  0  0  0  0  0  0  0  0  0  0
    2.7080   -5.0500   44.9240 C   0  0  0  0  0  0  0  0  0  0  0  0
    3.2750   -6.3180   44.7430 C   0  0  0  0  0  0  0  0  0  0  0  0
    1.2580   -7.3730   45.5590 C   0  0  0  0  0  0  0  0  0  0  0  0
    2.5550   -7.4720   45.0570 C   0  0  0  0  0  0  0  0  0  0  0  0
   -0.7380   -6.0030   46.2950 C   0  0  0  0  0  0  0  0  0  0  0  0
   -1.5710   -7.2450   46.0710 C   0  0  0  0  0  0  0  0  0  0  0  0
   -2.6180   -9.2670   46.9370 C   0  0  0  0  0  0  0  0  0  0  0  0
   -1.8350   -8.1270   47.1340 C   0  0  0  0  0  0  0  0  0  0  0  0
   -3.1350   -9.5280   45.6670 C   0  0  0  0  0  0  0  0  0  0  0  0
   -2.8870   -8.6590   44.6050 C   0  0  0  0  0  0  0  0  0  0  0  0
   -2.1100   -7.5190   44.8060 C   0  0  0  0  0  0  0  0  0  0  0  0
   -2.9440  -10.1940   47.8890 O   0  0  0  0  0  0  0  0  0  0  0  0
   -2.6380   -9.8660   49.2370 C   0  0  0  0  0  0  0  0  0  0  0  0
    3.4480   -3.8300   44.5740 C   0  0  0  0  0  0  0  0  0  0  0  0
    3.0590   -2.9900   43.5180 C   0  0  0  0  0  0  0  0  0  0  0  0
    4.5990   -3.4820   45.3070 C   0  0  0  0  0  0  0  0  0  0  0  0
    3.8190   -1.8680   43.1740 C   0  0  0  0  0  0  0  0  0  0  0  0
    5.3640   -2.3430   44.9910 C   0  0  0  0  0  0  0  0  0  0  0  0
    4.9590   -1.5450   43.9110 C   0  0  0  0  0  0  0  0  0  0  0  0
    1.9630   -3.3310   42.7550 O   0  0  0  0  0  0  0  0  0  0  0  0
    0.9730   -2.3930   42.5520 C   0  0  0  0  0  0  0  0  0  0  0  0
    0.6700   -1.7350   41.4220 C   0  0  0  0  0  0  0  0  0  0  0  0
   -0.3840   -0.7510   41.3520 C   0  0  0  0  0  0  0  0  0  0  0  0
   -1.6800   -1.0790   41.2460 C   0  0  0  0  0  0  0  0  0  0  0  0
   -2.7870   -0.0770   41.1760 C   0  0  0  0  0  0  0  0  0  0  0  0
    6.6040   -2.0070   45.8110 C   0  0  2  0  0  0  0  0  0  0  0  0
    7.4640   -1.1590   45.0550 O   0  0  0  0  0  0  0  0  0  0  0  0
    7.3620   -3.1390   46.3420 N   0  0  0  0  0  0  0  0  0  0  0  0
    8.8110   -2.9580   46.2560 C   0  0  0  0  0  0  0  0  0  0  0  0
    6.9420   -3.5730   47.6760 C   0  0  0  0  0  0  0  0  0  0  0  0
    9.5430   -4.2590   46.5880 C   0  0  0  0  0  0  0  0  0  0  0  0
    7.6180   -4.8930   48.0570 C   0  0  0  0  0  0  0  0  0  0  0  0
    9.1350   -4.7880   47.9580 C   0  0  0  0  0  0  0  0  0  0  0  0
  1  2  2  0
  1  5  1  0
  1  7  1  0
  2  3  1  0
  3 16  1  0
  3  4  2  0
  4  6  1  0
  5  6  2  0
  7  8  1  0
  8 13  1  0
  8 10  2  0
  9 11  2  0
  9 10  1  0
  9 14  1  0
 11 12  1  0
 12 13  2  0
 14 15  1  0
 16 17  2  0
 16 18  1  0
 17 22  1  0
 17 19  1  0
 18 20  2  0
 19 21  2  0
 20 21  1  0
 20 28  1  0
 22 23  1  0
 23 24  2  3
 24 25  1  0
 25 26  2  3
 26 27  1  0
 28 29  1  6
 28 30  1  0
 30 31  1  0
 30 32  1  0
 31 33  1  0
 32 34  1  0
 33 35  1  0
 34 35  1  0
M  END
>  <vina_dock>  (423) 
-8.951

$$$$
O14757_PocketFlow_idx-in-all-generaetd-760
     RDKit          3D

 21 22  0  0  0  0  0  0  0  0999 V2000
    1.1160   -4.3620   44.2490 C   0  0  0  0  0  0  0  0  0  0  0  0
    1.6510   -5.6540   44.8040 C   0  0  0  0  0  0  0  0  0  0  0  0
    0.9850   -6.8110   44.9620 C   0  0  0  0  0  0  0  0  0  0  0  0
   -0.4340   -7.1030   44.5700 C   0  0  0  0  0  0  0  0  0  0  0  0
   -1.3100   -7.1860   45.8090 C   0  0  0  0  0  0  0  0  0  0  0  0
   -1.4470   -6.0210   46.5100 N   0  0  0  0  0  0  0  0  0  0  0  0
   -1.8780   -8.2080   46.1790 O   0  0  0  0  0  0  0  0  0  0  0  0
    2.2220   -3.4160   43.8430 C   0  0  0  0  0  0  0  0  0  0  0  0
    2.0520   -2.5350   42.7700 C   0  0  0  0  0  0  0  0  0  0  0  0
    3.4290   -3.3910   44.5610 C   0  0  0  0  0  0  0  0  0  0  0  0
    3.0720   -1.6560   42.4140 C   0  0  0  0  0  0  0  0  0  0  0  0
    4.4710   -2.5100   44.2190 C   0  0  0  0  0  0  0  0  0  0  0  0
    4.2710   -1.6440   43.1320 C   0  0  0  0  0  0  0  0  0  0  0  0
    5.7310   -2.4970   44.9810 C   0  0  0  0  0  0  0  0  0  0  0  0
    5.9740   -3.4430   45.9930 C   0  0  0  0  0  0  0  0  0  0  0  0
    6.7220   -1.5360   44.7250 C   0  0  0  0  0  0  0  0  0  0  0  0
    7.1690   -3.4390   46.7330 C   0  0  0  0  0  0  0  0  0  0  0  0
    7.9100   -1.5150   45.4590 C   0  0  0  0  0  0  0  0  0  0  0  0
    8.1310   -2.4600   46.4590 C   0  0  0  0  0  0  0  0  0  0  0  0
    7.3950   -4.4530   47.8180 C   0  0  0  0  0  0  0  0  0  0  0  0
    5.8590   -4.8720   48.6040 Cl  0  0  0  0  0  0  0  0  0  0  0  0
  1  8  1  0
  1  2  1  0
  2  3  2  3
  3  4  1  0
  4  5  1  0
  5  7  2  0
  5  6  1  0
  8  9  2  0
  8 10  1  0
  9 11  1  0
 10 12  2  0
 11 13  2  0
 12 13  1  0
 12 14  1  0
 14 16  1  0
 14 15  2  0
 15 17  1  0
 16 18  2  0
 17 19  2  0
 17 20  1  0
 18 19  1  0
 20 21  1  0
M  END
>  <vina_dock>  (424) 
-8.351

$$$$
O14757_PocketFlow_idx-in-all-generaetd-114
     RDKit          3D

 14 15  0  0  0  0  0  0  0  0999 V2000
    0.7920   -6.6980   45.1470 C   0  0  0  0  0  0  0  0  0  0  0  0
    2.0740   -6.4750   44.6340 C   0  0  0  0  0  0  0  0  0  0  0  0
    2.7220   -5.2510   44.8430 C   0  0  0  0  0  0  0  0  0  0  0  0
    0.1150   -5.6910   45.8370 C   0  0  0  0  0  0  0  0  0  0  0  0
    2.0660   -4.2630   45.5870 C   0  0  0  0  0  0  0  0  0  0  0  0
    0.7830   -4.4930   46.0960 C   0  0  0  0  0  0  0  0  0  0  0  0
   -1.1170   -5.9580   46.4470 N   0  0  0  0  0  0  0  0  0  0  0  0
    4.1070   -5.0040   44.2870 C   0  0  0  0  0  0  0  0  0  0  0  0
    4.4720   -3.5430   44.1450 C   0  0  0  0  0  0  0  0  0  0  0  0
    3.8190   -2.7300   43.2070 C   0  0  0  0  0  0  0  0  0  0  0  0
    5.4800   -2.9810   44.9410 C   0  0  0  0  0  0  0  0  0  0  0  0
    4.1630   -1.3840   43.0730 C   0  0  0  0  0  0  0  0  0  0  0  0
    5.8230   -1.6350   44.8050 C   0  0  0  0  0  0  0  0  0  0  0  0
    5.1650   -0.8370   43.8720 C   0  0  0  0  0  0  0  0  0  0  0  0
  1  2  2  0
  1  4  1  0
  2  3  1  0
  3  8  1  0
  3  5  2  0
  4  6  2  0
  4  7  1  0
  5  6  1  0
  8  9  1  0
  9 10  2  0
  9 11  1  0
 10 12  1  0
 11 13  2  0
 12 14  2  0
 13 14  1  0
M  END
>  <vina_dock>  (425) 
-6.981

$$$$
O14757_PocketFlow_idx-in-all-generaetd-41
     RDKit          3D

  9  9  0  0  0  0  0  0  0  0999 V2000
    1.3410   -2.9710   42.7670 C   0  0  0  0  0  0  0  0  0  0  0  0
    0.0350   -3.4080   43.1240 O   0  0  0  0  0  0  0  0  0  0  0  0
    2.3510   -3.5170   43.7720 C   0  0  0  0  0  0  0  0  0  0  0  0
    3.6020   -2.6790   43.8260 C   0  0  0  0  0  0  0  0  0  0  0  0
    3.7750   -1.6030   42.9440 C   0  0  0  0  0  0  0  0  0  0  0  0
    4.5940   -2.9460   44.7790 C   0  0  0  0  0  0  0  0  0  0  0  0
    4.9250   -0.8160   43.0100 C   0  0  0  0  0  0  0  0  0  0  0  0
    5.7430   -2.1570   44.8410 C   0  0  0  0  0  0  0  0  0  0  0  0
    5.9090   -1.0920   43.9570 C   0  0  0  0  0  0  0  0  0  0  0  0
  1  2  1  0
  1  3  1  0
  3  4  1  0
  4  5  2  0
  4  6  1  0
  5  7  1  0
  6  8  2  0
  7  9  2  0
  8  9  1  0
M  END
>  <vina_dock>  (426) 
-5.214

$$$$
O14757_PocketFlow_idx-in-all-generaetd-790
     RDKit          3D

 19 21  0  0  0  0  0  0  0  0999 V2000
    1.9670   -4.7240   44.8680 C   0  0  0  0  0  0  0  0  0  0  0  0
    2.9640   -4.7930   45.7730 C   0  0  0  0  0  0  0  0  0  0  0  0
    2.0960   -3.6270   43.8840 C   0  0  0  0  0  0  0  0  0  0  0  0
    3.4150   -1.8440   42.8770 C   0  0  0  0  0  0  0  0  0  0  0  0
    4.7050   -1.0880   42.7640 C   0  0  0  0  0  0  0  0  0  0  0  0
    3.2890   -2.8950   43.7950 C   0  0  0  0  0  0  0  0  0  0  0  0
    2.3420   -1.5490   42.0270 C   0  0  0  0  0  0  0  0  0  0  0  0
    1.1530   -2.2760   42.1080 C   0  0  0  0  0  0  0  0  0  0  0  0
    1.0290   -3.3110   43.0340 C   0  0  0  0  0  0  0  0  0  0  0  0
    0.8390   -5.7020   44.9060 C   0  0  0  0  0  0  0  0  0  0  0  0
    0.2920   -6.2110   43.7320 C   0  0  0  0  0  0  0  0  0  0  0  0
    0.3770   -6.0690   46.1280 N   0  0  0  0  0  0  0  0  0  0  0  0
   -0.7590   -7.1200   43.8150 C   0  0  0  0  0  0  0  0  0  0  0  0
   -0.6380   -6.9480   46.2070 C   0  0  0  0  0  0  0  0  0  0  0  0
   -1.2450   -7.5070   45.0660 C   0  0  0  0  0  0  0  0  0  0  0  0
   -1.1160   -7.3280   47.4550 C   0  0  0  0  0  0  0  0  0  0  0  0
   -2.3040   -8.4220   45.1990 C   0  0  0  0  0  0  0  0  0  0  0  0
   -2.1680   -8.2380   47.5930 C   0  0  0  0  0  0  0  0  0  0  0  0
   -2.7640   -8.7850   46.4640 C   0  0  0  0  0  0  0  0  0  0  0  0
  1  3  1  0
  1 10  1  0
  1  2  2  0
  3  9  1  0
  3  6  2  0
  4  7  2  0
  4  5  1  0
  4  6  1  0
  7  8  1  0
  8  9  2  0
 10 11  2  0
 10 12  1  0
 11 13  1  0
 12 14  2  0
 13 15  2  0
 14 15  1  0
 14 16  1  0
 15 17  1  0
 16 18  2  0
 17 19  2  0
 18 19  1  0
M  END
>  <vina_dock>  (427) 
-8.753

$$$$
O14757_PocketFlow_idx-in-all-generaetd-824
     RDKit          3D

  7  7  0  0  0  0  0  0  0  0999 V2000
    4.4300   -0.5850   43.1050 C   0  0  0  0  0  0  0  0  0  0  0  0
    5.5990   -0.6530   43.8550 C   0  0  0  0  0  0  0  0  0  0  0  0
    5.9210   -1.8330   44.5260 C   0  0  0  0  0  0  0  0  0  0  0  0
    5.0710   -2.9350   44.4430 C   0  0  0  0  0  0  0  0  0  0  0  0
    3.8980   -2.8590   43.6880 C   0  0  0  0  0  0  0  0  0  0  0  0
    3.5740   -1.6800   43.0160 C   0  0  0  0  0  0  0  0  0  0  0  0
    4.1530    0.5860   42.4650 O   0  0  0  0  0  0  0  0  0  0  0  0
  1  7  1  0
  1  6  2  0
  1  2  1  0
  2  3  2  0
  3  4  1  0
  4  5  2  0
  5  6  1  0
M  END
>  <vina_dock>  (428) 
-4.449

$$$$
O14757_PocketFlow_idx-in-all-generaetd-487
     RDKit          3D

 33 36  0  0  0  0  0  0  0  0999 V2000
    2.2290   -7.1410   45.3060 C   0  0  0  0  0  0  0  0  0  0  0  0
    0.7600   -7.0660   45.7370 C   0  0  0  0  0  0  0  0  0  0  0  0
   -0.2480   -7.0370   44.5820 C   0  0  0  0  0  0  0  0  0  0  0  0
   -1.4730   -7.8850   44.8250 C   0  0  0  0  0  0  0  0  0  0  0  0
   -2.7280   -9.4160   46.2420 C   0  0  0  0  0  0  0  0  0  0  0  0
   -1.5880   -8.6430   46.0030 C   0  0  0  0  0  0  0  0  0  0  0  0
   -3.7550   -9.4290   45.2970 C   0  0  0  0  0  0  0  0  0  0  0  0
   -3.6530   -8.6800   44.1250 C   0  0  0  0  0  0  0  0  0  0  0  0
   -2.5150   -7.9100   43.8890 C   0  0  0  0  0  0  0  0  0  0  0  0
   -2.9570  -10.1930   47.3450 O   0  0  0  0  0  0  0  0  0  0  0  0
   -2.6970   -9.6040   48.6130 C   0  0  0  0  0  0  0  0  0  0  0  0
    3.0390   -6.1850   46.0570 N   0  0  0  0  0  0  0  0  0  0  0  0
    3.5120   -5.0310   45.4150 C   0  0  0  0  0  0  0  0  0  0  0  0
    2.7510   -4.2690   44.5210 C   0  0  0  0  0  0  0  0  0  0  0  0
    4.7700   -4.5340   45.7880 C   0  0  0  0  0  0  0  0  0  0  0  0
    3.2410   -3.0830   43.9460 C   0  0  0  0  0  0  0  0  0  0  0  0
    5.3010   -3.3510   45.2450 C   0  0  0  0  0  0  0  0  0  0  0  0
    4.5220   -2.6450   44.3160 C   0  0  0  0  0  0  0  0  0  0  0  0
    2.4280   -2.3160   42.9870 C   0  0  0  0  0  0  0  0  0  0  0  0
    2.8810   -1.0870   42.4770 C   0  0  0  0  0  0  0  0  0  0  0  0
    1.1780   -2.7890   42.5550 C   0  0  0  0  0  0  0  0  0  0  0  0
    2.1100   -0.3560   41.5680 C   0  0  0  0  0  0  0  0  0  0  0  0
    0.4070   -2.0600   41.6460 C   0  0  0  0  0  0  0  0  0  0  0  0
    0.8730   -0.8440   41.1530 C   0  0  0  0  0  0  0  0  0  0  0  0
    6.6320   -2.8650   45.6420 C   0  0  0  0  0  0  0  0  0  0  0  0
    7.0820   -1.5920   45.2580 C   0  0  0  0  0  0  0  0  0  0  0  0
    7.4870   -3.6600   46.4250 C   0  0  0  0  0  0  0  0  0  0  0  0
    8.3460   -1.1290   45.6390 C   0  0  0  0  0  0  0  0  0  0  0  0
    8.7530   -3.2030   46.8090 C   0  0  0  0  0  0  0  0  0  0  0  0
    9.1920   -1.9360   46.4070 C   0  0  0  0  0  0  0  0  0  0  0  0
   10.5270   -1.4010   46.7880 C   0  0  0  0  0  0  0  0  0  0  0  0
   10.7400   -1.1130   48.1070 N   0  0  0  0  0  0  0  0  0  0  0  0
   11.4200   -1.2530   45.9630 O   0  0  0  0  0  0  0  0  0  0  0  0
  1  2  1  0
  1 12  1  0
  2  3  1  0
  3  4  1  0
  4  9  1  0
  4  6  2  0
  5  7  2  0
  5  6  1  0
  5 10  1  0
  7  8  1  0
  8  9  2  0
 10 11  1  0
 12 13  1  0
 13 14  2  0
 13 15  1  0
 14 16  1  0
 15 17  2  0
 16 19  1  0
 16 18  2  0
 17 18  1  0
 17 25  1  0
 19 20  2  0
 19 21  1  0
 20 22  1  0
 21 23  2  0
 22 24  2  0
 23 24  1  0
 25 26  2  0
 25 27  1  0
 26 28  1  0
 27 29  2  0
 28 30  2  0
 29 30  1  0
 30 31  1  0
 31 33  2  0
 31 32  1  0
M  END
>  <vina_dock>  (429) 
-10.111

$$$$
O14757_PocketFlow_idx-in-all-generaetd-786
     RDKit          3D

 16 16  0  0  0  0  0  0  0  0999 V2000
    2.2870   -4.4680   45.4680 C   0  0  0  0  0  0  0  0  0  0  0  0
    2.5580   -3.9580   44.0350 C   0  0  1  0  0  0  0  0  0  0  0  0
    1.2700   -3.3870   43.4250 C   0  0  0  0  0  0  0  0  0  0  0  0
    3.6770   -2.9310   43.9670 C   0  0  0  0  0  0  0  0  0  0  0  0
    3.5710   -1.8470   43.0810 C   0  0  0  0  0  0  0  0  0  0  0  0
    4.8300   -3.0400   44.7630 C   0  0  0  0  0  0  0  0  0  0  0  0
    4.5940   -0.9020   42.9820 C   0  0  0  0  0  0  0  0  0  0  0  0
    5.8520   -2.0840   44.6780 C   0  0  0  0  0  0  0  0  0  0  0  0
    5.7340   -1.0220   43.7750 C   0  0  0  0  0  0  0  0  0  0  0  0
    7.0850   -2.1690   45.5070 C   0  0  0  0  0  0  0  0  0  0  0  0
    7.7810   -1.0100   45.7220 N   0  0  0  0  0  0  0  0  0  0  0  0
    7.4930   -3.2340   45.9510 O   0  0  0  0  0  0  0  0  0  0  0  0
    0.8780   -5.0250   45.7140 C   0  0  0  0  0  0  0  0  0  0  0  0
    0.7420   -6.5120   45.3790 C   0  0  0  0  0  0  0  0  0  0  0  0
   -0.3470   -6.7440   44.3700 C   0  0  0  0  0  0  0  0  0  0  0  0
   -1.3440   -7.6240   44.5310 C   0  0  0  0  0  0  0  0  0  0  0  0
  1  2  1  0
  1 13  1  0
  2  3  1  1
  2  4  1  0
  4  5  2  0
  4  6  1  0
  5  7  1  0
  6  8  2  0
  7  9  2  0
  8  9  1  0
  8 10  1  0
 10 11  1  0
 10 12  2  0
 13 14  1  0
 14 15  1  0
 15 16  2  0
M  END
>  <vina_dock>  (430) 
-7.118

$$$$
O14757_PocketFlow_idx-in-all-generaetd-47
     RDKit          3D

 30 33  0  0  0  0  0  0  0  0999 V2000
   -1.8510   -8.3830   46.3760 C   0  0  2  0  0  0  0  0  0  0  0  0
   -1.7890   -8.0880   44.8680 C   0  0  0  0  0  0  0  0  0  0  0  0
   -0.5950   -7.2120   44.4490 C   0  0  2  0  0  0  0  0  0  0  0  0
   -0.4980   -5.9550   45.3520 C   0  0  1  0  0  0  0  0  0  0  0  0
   -0.5230   -6.3760   46.8360 C   0  0  0  0  0  0  0  0  0  0  0  0
   -1.7120   -7.1610   47.1850 N   0  0  0  0  0  0  0  0  0  0  0  0
   -0.9980   -9.5500   46.9050 C   0  0  0  0  0  0  0  0  0  0  0  0
   -0.5350   -9.4660   48.3290 C   0  0  0  0  0  0  0  0  0  0  0  0
   -1.1930   -9.7610   49.3140 O   0  0  0  0  0  0  0  0  0  0  0  0
    0.7260   -9.0110   48.4600 O   0  0  0  0  0  0  0  0  0  0  0  0
   -0.7240   -6.8660   43.0240 N   0  0  0  0  0  0  0  0  0  0  0  0
    0.7210   -5.0800   45.0820 C   0  0  0  0  0  0  0  0  0  0  0  0
    1.8180   -5.0540   45.9510 C   0  0  0  0  0  0  0  0  0  0  0  0
    0.7470   -4.2500   43.9500 C   0  0  0  0  0  0  0  0  0  0  0  0
    2.9130   -4.2280   45.6900 C   0  0  0  0  0  0  0  0  0  0  0  0
    1.8450   -3.4130   43.6750 C   0  0  0  0  0  0  0  0  0  0  0  0
    2.9460   -3.3980   44.5570 C   0  0  0  0  0  0  0  0  0  0  0  0
    1.8090   -2.5380   42.4500 C   0  0  0  0  0  0  0  0  0  0  0  0
    4.1220   -2.5470   44.3350 C   0  0  0  0  0  0  0  0  0  0  0  0
    4.1020   -1.5450   43.3550 C   0  0  0  0  0  0  0  0  0  0  0  0
    5.2930   -2.7300   45.0900 C   0  0  0  0  0  0  0  0  0  0  0  0
    5.2240   -0.7450   43.1380 C   0  0  0  0  0  0  0  0  0  0  0  0
    6.4360   -1.9360   44.8870 C   0  0  0  0  0  0  0  0  0  0  0  0
    6.3790   -0.9410   43.8990 C   0  0  0  0  0  0  0  0  0  0  0  0
    7.6560   -2.1450   45.6870 C   0  0  0  0  0  0  0  0  0  0  0  0
    7.8970   -3.3680   46.3370 C   0  0  0  0  0  0  0  0  0  0  0  0
    8.6170   -1.1290   45.8270 C   0  0  0  0  0  0  0  0  0  0  0  0
    9.0530   -3.5680   47.0960 C   0  0  0  0  0  0  0  0  0  0  0  0
    9.7740   -1.3270   46.5850 C   0  0  0  0  0  0  0  0  0  0  0  0
    9.9910   -2.5480   47.2190 C   0  0  0  0  0  0  0  0  0  0  0  0
  1  2  1  0
  1  7  1  1
  1  6  1  0
  2  3  1  0
  3 11  1  6
  3  4  1  0
  4 12  1  6
  4  5  1  0
  5  6  1  0
  7  8  1  0
  8 10  1  0
  8  9  2  0
 12 14  1  0
 12 13  2  0
 13 15  1  0
 14 16  2  0
 15 17  2  0
 16 18  1  0
 16 17  1  0
 17 19  1  0
 19 20  2  0
 19 21  1  0
 20 22  1  0
 21 23  2  0
 22 24  2  0
 23 24  1  0
 23 25  1  0
 25 27  1  0
 25 26  2  0
 26 28  1  0
 27 29  2  0
 28 30  2  0
 29 30  1  0
M  END
>  <vina_dock>  (431) 
-9.993

$$$$
O14757_PocketFlow_idx-in-all-generaetd-819
     RDKit          3D

 21 23  0  0  0  0  0  0  0  0999 V2000
   -1.8210   -8.7880   45.6740 C   0  0  0  0  0  0  0  0  0  0  0  0
   -1.7910   -7.9250   44.5760 C   0  0  0  0  0  0  0  0  0  0  0  0
   -0.7450   -7.0060   44.4370 C   0  0  0  0  0  0  0  0  0  0  0  0
    0.2860   -6.9360   45.3880 C   0  0  0  0  0  0  0  0  0  0  0  0
    0.2410   -7.8090   46.4870 C   0  0  0  0  0  0  0  0  0  0  0  0
   -0.8030   -8.7300   46.6290 C   0  0  0  0  0  0  0  0  0  0  0  0
   -2.8920   -9.7310   45.8190 C   0  0  0  0  0  0  0  0  0  0  0  0
   -3.7610  -10.4920   45.9350 N   0  0  0  0  0  0  0  0  0  0  0  0
    1.3820   -5.9620   45.2430 C   0  0  0  0  0  0  0  0  0  0  0  0
    1.2310   -4.5950   45.5600 C   0  0  0  0  0  0  0  0  0  0  0  0
    2.6270   -6.4060   44.7630 C   0  0  0  0  0  0  0  0  0  0  0  0
    2.3490   -3.7460   45.4890 C   0  0  0  0  0  0  0  0  0  0  0  0
    3.7110   -5.5340   44.6410 C   0  0  0  0  0  0  0  0  0  0  0  0
    3.5940   -4.1890   45.0140 C   0  0  0  0  0  0  0  0  0  0  0  0
    0.0470   -4.0910   46.1390 N   0  0  0  0  0  0  0  0  0  0  0  0
    4.7440   -3.2740   44.9230 C   0  0  0  0  0  0  0  0  0  0  0  0
    5.8530   -3.4180   45.7730 C   0  0  0  0  0  0  0  0  0  0  0  0
    4.7640   -2.2280   43.9850 C   0  0  0  0  0  0  0  0  0  0  0  0
    6.9450   -2.5500   45.6870 C   0  0  0  0  0  0  0  0  0  0  0  0
    5.8550   -1.3580   43.8980 C   0  0  0  0  0  0  0  0  0  0  0  0
    6.9440   -1.5200   44.7500 C   0  0  0  0  0  0  0  0  0  0  0  0
  1  2  2  0
  1  7  1  0
  1  6  1  0
  2  3  1  0
  3  4  2  0
  4  9  1  0
  4  5  1  0
  5  6  2  0
  7  8  3  0
  9 11  1  0
  9 10  2  0
 10 12  1  0
 10 15  1  0
 11 13  2  0
 12 14  2  0
 13 14  1  0
 14 16  1  0
 16 18  1  0
 16 17  2  0
 17 19  1  0
 18 20  2  0
 19 21  2  0
 20 21  1  0
M  END
>  <vina_dock>  (432) 
-8.497

$$$$
O14757_PocketFlow_idx-in-all-generaetd-105
     RDKit          3D

 35 39  0  0  0  0  0  0  0  0999 V2000
    5.7480   -4.0100   47.0510 C   0  0  0  0  0  0  0  0  0  0  0  0
    6.4760   -3.0720   46.4380 N   0  0  0  0  0  0  0  0  0  0  0  0
    4.4860   -4.2840   46.5500 C   0  0  0  0  0  0  0  0  0  0  0  0
    3.9890   -3.6060   45.4060 C   0  0  0  0  0  0  0  0  0  0  0  0
    2.7180   -3.8100   44.8290 C   0  0  0  0  0  0  0  0  0  0  0  0
    2.3100   -3.1160   43.6700 C   0  0  0  0  0  0  0  0  0  0  0  0
    3.2120   -2.1840   43.1490 C   0  0  0  0  0  0  0  0  0  0  0  0
    4.3940   -1.9730   43.7140 N   0  0  0  0  0  0  0  0  0  0  0  0
    4.7920   -2.6520   44.7910 C   0  0  0  0  0  0  0  0  0  0  0  0
    5.9910   -2.4050   45.3090 N   0  0  0  0  0  0  0  0  0  0  0  0
    2.9280   -1.4630   42.0690 N   0  0  0  0  0  0  0  0  0  0  0  0
    1.7490   -1.6490   41.4490 C   0  0  0  0  0  0  0  0  0  0  0  0
    0.7950   -2.5490   41.8650 C   0  0  0  0  0  0  0  0  0  0  0  0
    1.0790   -3.2980   42.9930 C   0  0  0  0  0  0  0  0  0  0  0  0
    1.4950   -0.9090   40.3610 F   0  0  0  0  0  0  0  0  0  0  0  0
    6.1910   -4.7110   48.1950 N   0  0  0  0  0  0  0  0  0  0  0  0
    6.3110   -6.1090   48.3700 C   0  0  0  0  0  0  0  0  0  0  0  0
    5.3970   -8.3670   48.4140 C   0  0  0  0  0  0  0  0  0  0  0  0
    6.6780   -8.8960   48.5930 C   0  0  0  0  0  0  0  0  0  0  0  0
    5.2170   -6.9820   48.2950 C   0  0  0  0  0  0  0  0  0  0  0  0
    7.7780   -8.0430   48.6350 C   0  0  0  0  0  0  0  0  0  0  0  0
    7.5940   -6.6640   48.5100 C   0  0  0  0  0  0  0  0  0  0  0  0
    4.2430   -9.2820   48.3400 C   0  0  0  0  0  0  0  0  0  0  0  0
    3.6300   -9.6460   47.2350 N   0  0  0  0  0  0  0  0  0  0  0  0
    3.6900   -9.8530   49.4850 N   0  0  0  0  0  0  0  0  0  0  0  0
    2.6480  -10.4810   47.7240 C   0  0  0  0  0  0  0  0  0  0  0  0
    2.8350  -10.4860   48.9970 C   0  0  0  0  0  0  0  0  0  0  0  0
    1.8020   -4.7860   45.4560 C   0  0  0  0  0  0  0  0  0  0  0  0
    1.0990   -4.4440   46.3950 O   0  0  0  0  0  0  0  0  0  0  0  0
    1.8100   -6.0360   44.8850 N   0  0  0  0  0  0  0  0  0  0  0  0
    0.9460   -7.0840   45.3680 C   0  0  0  0  0  0  0  0  0  0  0  0
   -0.2830   -7.0860   44.5190 C   0  0  0  0  0  0  0  0  0  0  0  0
   -1.5020   -7.5470   44.8450 C   0  0  0  0  0  0  0  0  0  0  0  0
   -1.8610   -8.1730   46.0960 C   0  0  0  0  0  0  0  0  0  0  0  0
   -1.7760   -9.4930   46.2970 C   0  0  0  0  0  0  0  0  0  0  0  0
  1  2  2  0
  1  3  1  0
  1 16  1  0
  2 10  1  0
  3  4  2  0
  4  9  1  0
  4  5  1  0
  5  6  2  0
  5 28  1  0
  6 14  1  0
  6  7  1  0
  7 11  1  0
  7  8  2  0
  8  9  2  0
  9 10  1  0
 11 12  2  0
 12 15  1  0
 12 13  1  0
 13 14  2  0
 16 17  1  0
 17 20  2  0
 17 22  1  0
 18 20  1  0
 18 23  1  0
 18 19  2  0
 19 21  1  0
 21 22  2  0
 23 24  2  0
 23 25  1  0
 24 26  1  0
 25 27  2  0
 26 27  1  0
 28 30  1  0
 28 29  2  0
 30 31  1  0
 31 32  1  0
 32 33  2  3
 33 34  1  0
 34 35  2  0
M  CHG  1   8   1
M  END
>  <vina_dock>  (433) 
-8.992

$$$$
O14757_PocketFlow_idx-in-all-generaetd-577
     RDKit          3D

 35 38  0  0  0  0  0  0  0  0999 V2000
    6.5370   -1.4040   44.9790 O   0  0  0  0  0  0  0  0  0  0  0  0
    5.4830   -2.2860   45.0210 C   0  0  0  0  0  0  0  0  0  0  0  0
    3.2680   -4.0600   45.1020 C   0  0  0  0  0  0  0  0  0  0  0  0
    3.7450   -3.5180   43.8940 C   0  0  0  0  0  0  0  0  0  0  0  0
    3.9090   -3.6230   46.2740 C   0  0  0  0  0  0  0  0  0  0  0  0
    4.8360   -2.6420   43.8460 C   0  0  0  0  0  0  0  0  0  0  0  0
    5.0050   -2.7490   46.2400 C   0  0  0  0  0  0  0  0  0  0  0  0
    2.1770   -4.9350   45.1140 N   0  0  0  0  0  0  0  0  0  0  0  0
    0.0000   -6.4540   44.6030 C   0  0  2  0  0  0  0  0  0  0  0  0
    1.2590   -7.1210   44.3040 N   0  0  0  0  0  0  0  0  0  0  0  0
    0.0200   -5.8580   46.0550 C   0  0  1  0  0  0  0  0  0  0  0  0
    2.4030   -6.3140   44.7040 C   0  0  0  0  0  0  0  0  0  0  0  0
    1.1500   -4.7910   46.1540 C   0  0  0  0  0  0  0  0  0  0  0  0
   -0.9200   -7.5380   44.2920 N   0  0  0  0  0  0  0  0  0  0  0  0
   -1.2980   -8.4510   45.3790 C   0  0  0  0  0  0  0  0  0  0  0  0
   -2.8000   -8.6520   45.5360 C   0  0  0  0  0  0  0  0  0  0  0  0
   -3.4380   -9.6930   45.4530 O   0  0  0  0  0  0  0  0  0  0  0  0
   -3.4550   -7.4840   45.7280 O   0  0  0  0  0  0  0  0  0  0  0  0
   -1.2660   -5.2920   46.5290 N   0  0  0  0  0  0  0  0  0  0  0  0
    7.6640   -1.8510   45.6310 C   0  0  0  0  0  0  0  0  0  0  0  0
    8.6530   -0.9470   46.0060 C   0  0  0  0  0  0  0  0  0  0  0  0
    7.7670   -3.2000   45.9760 C   0  0  0  0  0  0  0  0  0  0  0  0
    9.7760   -1.4020   46.7010 C   0  0  0  0  0  0  0  0  0  0  0  0
    8.8950   -3.6710   46.6660 C   0  0  0  0  0  0  0  0  0  0  0  0
    9.9130   -2.7610   47.0320 C   0  0  0  0  0  0  0  0  0  0  0  0
    9.0340   -5.0290   46.9970 C   0  0  0  0  0  0  0  0  0  0  0  0
   11.0370   -3.2350   47.7240 C   0  0  0  0  0  0  0  0  0  0  0  0
   10.1640   -5.4980   47.6850 C   0  0  0  0  0  0  0  0  0  0  0  0
   11.1620   -4.5890   48.0440 C   0  0  0  0  0  0  0  0  0  0  0  0
   10.3060   -6.9640   48.0140 C   0  0  0  0  0  0  0  0  0  0  0  0
    9.2780   -7.4870   49.0220 C   0  0  0  0  0  0  0  0  0  0  0  0
    8.3310   -8.5230   48.4160 C   0  0  0  0  0  0  0  0  0  0  0  0
    7.1250   -7.8610   47.9340 N   0  0  0  0  0  0  0  0  0  0  0  0
    6.2200   -7.1910   48.7180 C   0  0  0  0  0  0  0  0  0  0  0  0
    5.8590   -5.9070   48.6660 C   0  0  0  0  0  0  0  0  0  0  0  0
  1  2  1  0
  1 20  1  0
  2  6  2  0
  2  7  1  0
  3  4  2  0
  3  8  1  0
  3  5  1  0
  4  6  1  0
  5  7  2  0
  8 12  1  0
  8 13  1  0
  9 14  1  1
  9 10  1  0
  9 11  1  0
 10 12  1  0
 11 13  1  0
 11 19  1  6
 14 15  1  0
 15 16  1  0
 16 17  2  0
 16 18  1  0
 20 22  1  0
 20 21  2  0
 21 23  1  0
 22 24  2  0
 23 25  2  0
 24 26  1  0
 24 25  1  0
 25 27  1  0
 26 28  2  0
 27 29  2  0
 28 30  1  0
 28 29  1  0
 30 31  1  0
 31 32  1  0
 32 33  1  0
 33 34  1  0
 34 35  2  0
M  END
>  <vina_dock>  (434) 
-7.441

$$$$
O14757_PocketFlow_idx-in-all-generaetd-6
     RDKit          3D

 29 33  0  0  0  0  0  0  0  0999 V2000
    8.8780   -2.9990   47.2960 C   0  0  2  0  0  0  0  0  0  0  0  0
    9.1290   -2.6620   48.7740 C   0  0  0  0  0  0  0  0  0  0  0  0
    7.4210   -3.3170   46.9780 C   0  0  0  0  0  0  0  0  0  0  0  0
    5.4910   -3.3020   45.4660 C   0  0  0  0  0  0  0  0  0  0  0  0
    4.6980   -3.8460   46.4850 C   0  0  0  0  0  0  0  0  0  0  0  0
    6.8530   -3.0530   45.7230 C   0  0  0  0  0  0  0  0  0  0  0  0
    5.2500   -4.1180   47.7360 C   0  0  0  0  0  0  0  0  0  0  0  0
    6.5960   -3.8480   47.9820 C   0  0  0  0  0  0  0  0  0  0  0  0
    4.8880   -2.9860   44.1050 C   0  0  2  0  0  0  0  0  0  0  0  0
    4.4010   -0.8710   42.8990 C   0  0  0  0  0  0  0  0  0  0  0  0
    3.0460   -1.3730   42.5730 C   0  0  0  0  0  0  0  0  0  0  0  0
    5.1250   -1.5880   43.8100 N   0  0  0  0  0  0  0  0  0  0  0  0
    4.8420    0.1680   42.4200 O   0  0  0  0  0  0  0  0  0  0  0  0
    2.5900   -2.5740   43.1410 C   0  0  0  0  0  0  0  0  0  0  0  0
    2.2200   -0.6020   41.7450 C   0  0  0  0  0  0  0  0  0  0  0  0
    3.4270   -3.3770   43.9450 C   0  0  0  0  0  0  0  0  0  0  0  0
    1.2580   -2.9790   42.8870 C   0  0  0  0  0  0  0  0  0  0  0  0
    0.9170   -1.0170   41.4860 C   0  0  0  0  0  0  0  0  0  0  0  0
    2.9250   -4.5740   44.4830 C   0  0  0  0  0  0  0  0  0  0  0  0
    0.7780   -4.1660   43.4600 C   0  0  0  0  0  0  0  0  0  0  0  0
    0.4370   -2.1930   42.0620 C   0  0  0  0  0  0  0  0  0  0  0  0
    1.6060   -4.9570   44.2550 C   0  0  0  0  0  0  0  0  0  0  0  0
    9.8150   -4.0750   46.7790 C   0  0  0  0  0  0  0  0  0  0  0  0
   11.0540   -3.7840   46.2110 C   0  0  0  0  0  0  0  0  0  0  0  0
    9.4770   -5.4290   46.8790 C   0  0  0  0  0  0  0  0  0  0  0  0
   11.9250   -4.7120   45.7470 N   0  0  0  0  0  0  0  0  0  0  0  0
   10.3600   -6.4010   46.4100 C   0  0  0  0  0  0  0  0  0  0  0  0
   11.5670   -6.0000   45.8580 C   0  0  0  0  0  0  0  0  0  0  0  0
   12.4670   -6.9410   45.3640 N   0  0  0  0  0  0  0  0  0  0  0  0
  1 23  1  0
  1  3  1  0
  1  2  1  1
  3  6  2  0
  3  8  1  0
  9  4  1  1
  4  6  1  0
  4  5  2  0
  5  7  1  0
  7  8  2  0
  9 12  1  0
  9 16  1  0
 10 13  2  0
 10 11  1  0
 10 12  1  0
 11 15  2  0
 11 14  1  0
 14 17  1  0
 14 16  2  0
 15 18  1  0
 16 19  1  0
 17 21  1  0
 17 20  2  0
 18 21  2  0
 19 22  2  0
 20 22  1  0
 23 24  2  0
 23 25  1  0
 24 26  1  0
 25 27  2  0
 26 28  2  0
 27 28  1  0
 28 29  1  0
M  END
>  <vina_dock>  (435) 
-10.283

$$$$
O14757_PocketFlow_idx-in-all-generaetd-902
     RDKit          3D

 14 15  0  0  0  0  0  0  0  0999 V2000
    0.7740   -5.4080   45.7530 C   0  0  0  0  0  0  0  0  0  0  0  0
    1.1390   -6.6200   45.1620 C   0  0  0  0  0  0  0  0  0  0  0  0
    1.7730   -4.4720   46.0350 C   0  0  0  0  0  0  0  0  0  0  0  0
    3.1050   -4.6870   45.6460 C   0  0  0  0  0  0  0  0  0  0  0  0
    3.4350   -5.8830   44.9950 C   0  0  0  0  0  0  0  0  0  0  0  0
    2.4580   -6.8500   44.7640 C   0  0  0  0  0  0  0  0  0  0  0  0
   -0.5210   -5.2300   46.2530 N   0  0  0  0  0  0  0  0  0  0  0  0
    4.1660   -3.6480   45.9310 C   0  0  0  0  0  0  0  0  0  0  0  0
    4.3850   -2.6560   44.8110 C   0  0  0  0  0  0  0  0  0  0  0  0
    3.5060   -2.6090   43.7190 C   0  0  0  0  0  0  0  0  0  0  0  0
    5.4610   -1.7560   44.8510 C   0  0  0  0  0  0  0  0  0  0  0  0
    3.7020   -1.6870   42.6890 C   0  0  0  0  0  0  0  0  0  0  0  0
    5.6550   -0.8360   43.8200 C   0  0  0  0  0  0  0  0  0  0  0  0
    4.7760   -0.8010   42.7400 C   0  0  0  0  0  0  0  0  0  0  0  0
  1  2  2  0
  1  3  1  0
  1  7  1  0
  2  6  1  0
  3  4  2  0
  4  5  1  0
  4  8  1  0
  5  6  2  0
  8  9  1  0
  9 10  2  0
  9 11  1  0
 10 12  1  0
 11 13  2  0
 12 14  2  0
 13 14  1  0
M  END
>  <vina_dock>  (436) 
-6.803

$$$$
O14757_PocketFlow_idx-in-all-generaetd-269
     RDKit          3D

 10 11  0  0  0  0  0  0  0  0999 V2000
    1.1750   -3.3800   43.0260 C   0  0  0  0  0  0  0  0  0  0  0  0
    1.2590   -2.3430   42.1030 C   0  0  0  0  0  0  0  0  0  0  0  0
    2.2330   -3.6240   43.9030 C   0  0  0  0  0  0  0  0  0  0  0  0
    3.3910   -2.8300   43.8680 C   0  0  0  0  0  0  0  0  0  0  0  0
    3.4780   -1.7750   42.9290 C   0  0  0  0  0  0  0  0  0  0  0  0
    2.4040   -1.5440   42.0540 C   0  0  0  0  0  0  0  0  0  0  0  0
    4.4650   -3.0610   44.7430 C   0  0  0  0  0  0  0  0  0  0  0  0
    5.6090   -2.2630   44.6940 C   0  0  0  0  0  0  0  0  0  0  0  0
    5.6940   -1.2250   43.7710 C   0  0  0  0  0  0  0  0  0  0  0  0
    4.6360   -0.9810   42.8940 C   0  0  0  0  0  0  0  0  0  0  0  0
  1  2  2  0
  1  3  1  0
  2  6  1  0
  3  4  2  0
  4  5  1  0
  4  7  1  0
  5  6  2  0
  5 10  1  0
  7  8  2  0
  8  9  1  0
  9 10  2  0
M  END
>  <vina_dock>  (437) 
-6.384

$$$$
O14757_PocketFlow_idx-in-all-generaetd-797
     RDKit          3D

 19 20  0  0  0  0  0  0  0  0999 V2000
    0.9870   -6.3620   45.0050 C   0  0  0  0  0  0  0  0  0  0  0  0
    1.1270   -5.0590   45.3030 C   0  0  0  0  0  0  0  0  0  0  0  0
    0.5350   -7.4720   45.9350 C   0  0  2  0  0  0  0  0  0  0  0  0
    1.5200   -8.6350   46.1130 C   0  0  0  0  0  0  0  0  0  0  0  0
   -0.8350   -8.0000   45.5260 C   0  0  0  0  0  0  0  0  0  0  0  0
   -2.7370   -9.4560   45.9470 C   0  0  0  0  0  0  0  0  0  0  0  0
   -3.3590   -8.9920   44.7910 C   0  0  0  0  0  0  0  0  0  0  0  0
   -1.4830   -8.9640   46.3130 C   0  0  0  0  0  0  0  0  0  0  0  0
   -2.7300   -8.0340   43.9990 C   0  0  0  0  0  0  0  0  0  0  0  0
   -1.4760   -7.5400   44.3630 C   0  0  0  0  0  0  0  0  0  0  0  0
    1.5760   -4.0460   44.3370 C   0  0  0  0  0  0  0  0  0  0  0  0
    2.9200   -3.6480   44.3460 C   0  0  0  0  0  0  0  0  0  0  0  0
    0.7170   -3.5080   43.3690 C   0  0  0  0  0  0  0  0  0  0  0  0
    3.3960   -2.7110   43.4200 C   0  0  0  0  0  0  0  0  0  0  0  0
    1.1840   -2.5700   42.4470 C   0  0  0  0  0  0  0  0  0  0  0  0
    2.5190   -2.1690   42.4750 C   0  0  0  0  0  0  0  0  0  0  0  0
    4.7980   -2.2950   43.4660 C   0  0  0  0  0  0  0  0  0  0  0  0
    5.4150   -1.7570   44.5310 C   0  0  0  0  0  0  0  0  0  0  0  0
    4.8170   -1.4420   45.8650 C   0  0  0  0  0  0  0  0  0  0  0  0
  1  2  2  3
  1  3  1  0
  2 11  1  0
  3  5  1  0
  3  4  1  6
  5 10  1  0
  5  8  2  0
  6  7  2  0
  6  8  1  0
  7  9  1  0
  9 10  2  0
 11 13  1  0
 11 12  2  0
 12 14  1  0
 13 15  2  0
 14 16  2  0
 14 17  1  0
 15 16  1  0
 17 18  2  3
 18 19  1  0
M  END
>  <vina_dock>  (438) 
-8.444

$$$$
O14757_PocketFlow_idx-in-all-generaetd-357
     RDKit          3D

 11 11  0  0  0  0  0  0  0  0999 V2000
    4.9590   -1.8560   43.9950 C   0  0  0  0  0  0  0  0  0  0  0  0
    6.2080   -1.4630   44.2950 C   0  0  0  0  0  0  0  0  0  0  0  0
    4.1740   -1.3290   42.8270 C   0  0  0  0  0  0  0  0  0  0  0  0
    2.8310   -2.0060   42.6860 C   0  0  0  0  0  0  0  0  0  0  0  0
    1.2110   -3.6490   43.4480 C   0  0  0  0  0  0  0  0  0  0  0  0
    0.3520   -3.2890   42.4110 C   0  0  0  0  0  0  0  0  0  0  0  0
    2.4460   -3.0120   43.5830 C   0  0  0  0  0  0  0  0  0  0  0  0
    0.7270   -2.2970   41.5080 C   0  0  0  0  0  0  0  0  0  0  0  0
    1.9620   -1.6600   41.6420 C   0  0  0  0  0  0  0  0  0  0  0  0
    6.9410   -1.9830   45.4230 C   0  0  0  0  0  0  0  0  0  0  0  0
    8.1010   -1.4620   45.8410 C   0  0  0  0  0  0  0  0  0  0  0  0
  1  3  1  0
  1  2  2  3
  2 10  1  0
  3  4  1  0
  4  9  2  0
  4  7  1  0
  5  6  1  0
  5  7  2  0
  6  8  2  0
  8  9  1  0
 10 11  2  0
M  END
>  <vina_dock>  (439) 
-6.034

$$$$
O14757_PocketFlow_idx-in-all-generaetd-85
     RDKit          3D

 26 27  0  0  0  0  0  0  0  0999 V2000
    6.4890   -3.2100   45.5290 C   0  0  0  0  0  0  0  0  0  0  0  0
    6.7620   -1.7960   44.9990 C   0  0  0  0  0  0  0  0  0  0  0  0
    5.4820   -1.0170   44.6740 C   0  0  0  0  0  0  0  0  0  0  0  0
    5.3210   -0.7100   43.1830 C   0  0  0  0  0  0  0  0  0  0  0  0
    3.8920   -0.8640   42.7380 C   0  0  0  0  0  0  0  0  0  0  0  0
   -0.1270   -3.4250   42.0210 C   0  0  0  0  0  0  0  0  0  0  0  0
    1.1820   -3.3820   42.4750 C   0  0  0  0  0  0  0  0  0  0  0  0
   -0.6540   -2.2600   41.5050 C   0  0  0  0  0  0  0  0  0  0  0  0
    1.8950   -2.1790   42.3920 C   0  0  0  0  0  0  0  0  0  0  0  0
   -2.2660   -2.2190   40.9170 Cl  0  0  0  0  0  0  0  0  0  0  0  0
    0.0050   -1.0910   41.4100 N   0  0  0  0  0  0  0  0  0  0  0  0
    3.2210   -2.0780   42.8370 C   0  0  0  0  0  0  0  0  0  0  0  0
    1.2630   -1.0420   41.8450 C   0  0  0  0  0  0  0  0  0  0  0  0
    1.9130    0.1180   41.7470 N   0  0  0  0  0  0  0  0  0  0  0  0
    3.1910    0.1940   42.1820 C   0  0  0  0  0  0  0  0  0  0  0  0
    5.0930   -3.4290   46.1580 C   0  0  2  0  0  0  0  0  0  0  0  0
    5.1840   -3.8780   47.6320 C   0  0  0  0  0  0  0  0  0  0  0  0
    6.6290   -4.0890   48.0990 C   0  0  0  0  0  0  0  0  0  0  0  0
    6.8340   -5.4850   48.6170 C   0  0  0  0  0  0  0  0  0  0  0  0
    5.8810   -6.4250   48.6350 C   0  0  0  0  0  0  0  0  0  0  0  0
    4.2690   -4.3940   45.3330 C   0  0  0  0  0  0  0  0  0  0  0  0
    3.0750   -4.8690   45.7170 C   0  0  0  0  0  0  0  0  0  0  0  0
    2.3070   -5.7970   44.9190 C   0  0  0  0  0  0  0  0  0  0  0  0
    0.9810   -5.9510   45.0550 C   0  0  0  0  0  0  0  0  0  0  0  0
    0.2130   -6.8780   44.2580 C   0  0  0  0  0  0  0  0  0  0  0  0
   -1.0040   -7.3080   44.6100 C   0  0  0  0  0  0  0  0  0  0  0  0
  1  2  1  0
 16  1  1  6
  2  3  1  0
  3  4  1  0
  4  5  1  0
  5 15  2  0
  5 12  1  0
  6  8  1  0
  6  7  2  0
  7  9  1  0
  8 10  1  0
  8 11  2  0
  9 13  1  0
  9 12  2  0
 11 13  1  0
 13 14  2  0
 14 15  1  0
 16 21  1  0
 16 17  1  0
 17 18  1  0
 18 19  1  0
 19 20  2  0
 21 22  2  3
 22 23  1  0
 23 24  2  3
 24 25  1  0
 25 26  2  0
M  END
>  <vina_dock>  (440) 
-7.175

$$$$
O14757_PocketFlow_idx-in-all-generaetd-694
     RDKit          3D

 16 16  0  0  0  0  0  0  0  0999 V2000
    0.7820   -4.0810   45.1260 C   0  0  0  0  0  0  0  0  0  0  0  0
    0.7340   -4.0740   43.6210 C   0  0  0  0  0  0  0  0  0  0  0  0
    0.6270   -2.9590   42.8810 C   0  0  0  0  0  0  0  0  0  0  0  0
    0.5760   -2.8540   41.3770 C   0  0  0  0  0  0  0  0  0  0  0  0
    1.5430   -1.9000   40.6730 C   0  0  0  0  0  0  0  0  0  0  0  0
    1.5760   -0.2930   41.4430 Cl  0  0  0  0  0  0  0  0  0  0  0  0
    1.3160   -5.3940   45.7130 C   0  0  0  0  0  0  0  0  0  0  0  0
    2.4620   -5.9780   44.9320 C   0  0  0  0  0  0  0  0  0  0  0  0
    3.7540   -5.6100   44.9760 C   0  0  0  0  0  0  0  0  0  0  0  0
    4.3790   -4.5520   45.8420 C   0  0  0  0  0  0  0  0  0  0  0  0
    4.8200   -3.3470   45.0420 C   0  0  0  0  0  0  0  0  0  0  0  0
    5.9550   -2.6140   45.4180 C   0  0  0  0  0  0  0  0  0  0  0  0
    4.0840   -2.9310   43.9240 C   0  0  0  0  0  0  0  0  0  0  0  0
    6.3500   -1.4950   44.6840 C   0  0  0  0  0  0  0  0  0  0  0  0
    4.4810   -1.8110   43.1910 C   0  0  0  0  0  0  0  0  0  0  0  0
    5.6140   -1.0940   43.5710 C   0  0  0  0  0  0  0  0  0  0  0  0
  1  2  1  0
  1  7  1  0
  2  3  2  3
  3  4  1  0
  4  5  1  0
  5  6  1  0
  7  8  1  0
  8  9  2  3
  9 10  1  0
 10 11  1  0
 11 13  2  0
 11 12  1  0
 12 14  2  0
 13 15  1  0
 14 16  1  0
 15 16  2  0
M  END
>  <vina_dock>  (441) 
-6.374

$$$$
O14757_PocketFlow_idx-in-all-generaetd-3
     RDKit          3D

 21 22  0  0  0  0  0  0  0  0999 V2000
    0.1890   -7.0760   45.5370 C   0  0  0  0  0  0  0  0  0  0  0  0
    1.3850   -6.3290   45.7010 O   0  0  0  0  0  0  0  0  0  0  0  0
    1.5650   -5.2420   44.8880 C   0  0  0  0  0  0  0  0  0  0  0  0
    0.6780   -4.8250   43.9040 C   0  0  0  0  0  0  0  0  0  0  0  0
    0.9820   -3.7150   43.1070 C   0  0  0  0  0  0  0  0  0  0  0  0
    2.1770   -2.9760   43.2670 C   0  0  0  0  0  0  0  0  0  0  0  0
    2.7610   -4.5310   45.0530 C   0  0  0  0  0  0  0  0  0  0  0  0
    2.4940   -1.8310   42.4850 C   0  0  0  0  0  0  0  0  0  0  0  0
    3.0840   -3.3930   44.2720 C   0  0  0  0  0  0  0  0  0  0  0  0
    3.6980   -1.1360   42.7140 C   0  0  0  0  0  0  0  0  0  0  0  0
    4.2680   -2.6480   44.4740 C   0  0  0  0  0  0  0  0  0  0  0  0
    4.6110   -1.5610   43.6720 C   0  0  0  0  0  0  0  0  0  0  0  0
    3.6370   -4.9800   46.0150 O   0  0  0  0  0  0  0  0  0  0  0  0
    1.5610   -1.3170   41.4140 C   0  0  0  0  0  0  0  0  0  0  0  0
    1.9180   -0.0860   40.9520 F   0  0  0  0  0  0  0  0  0  0  0  0
    0.2670   -1.1870   41.8280 F   0  0  0  0  0  0  0  0  0  0  0  0
    1.5130   -2.1280   40.3190 F   0  0  0  0  0  0  0  0  0  0  0  0
    5.7290   -0.7800   43.9740 N   0  0  0  0  0  0  0  0  0  0  0  0
   -0.7590   -6.8310   46.6970 C   0  0  0  0  0  0  0  0  0  0  0  0
   -0.9170   -7.5000   47.7040 O   0  0  0  0  0  0  0  0  0  0  0  0
   -1.5010   -5.7140   46.5130 O   0  0  0  0  0  0  0  0  0  0  0  0
  1  2  1  0
  1 19  1  0
  2  3  1  0
  3  4  2  0
  3  7  1  0
  4  5  1  0
  5  6  2  0
  6  8  1  0
  6  9  1  0
  7  9  2  0
  7 13  1  0
  8 14  1  0
  8 10  2  0
  9 11  1  0
 10 12  1  0
 11 12  2  0
 12 18  1  0
 14 17  1  0
 14 15  1  0
 14 16  1  0
 19 21  1  0
 19 20  2  0
M  END
>  <vina_dock>  (442) 
-8.171

$$$$
O14757_PocketFlow_idx-in-all-generaetd-62
     RDKit          3D

 25 28  0  0  0  0  0  0  0  0999 V2000
   10.0730   -2.2530   47.1680 C   0  0  0  0  0  0  0  0  0  0  0  0
    9.6000   -1.1380   46.4500 C   0  0  0  0  0  0  0  0  0  0  0  0
    9.2580   -3.3990   47.1680 C   0  0  0  0  0  0  0  0  0  0  0  0
    8.0330   -3.4310   46.4870 C   0  0  0  0  0  0  0  0  0  0  0  0
    7.5710   -2.3160   45.7740 C   0  0  0  0  0  0  0  0  0  0  0  0
    8.3750   -1.1690   45.7670 C   0  0  0  0  0  0  0  0  0  0  0  0
   11.3630   -2.2170   47.8850 C   0  0  0  0  0  0  0  0  0  0  0  0
   11.6920   -3.2830   48.6570 N   0  0  0  0  0  0  0  0  0  0  0  0
   12.1500   -1.1290   47.7310 N   0  0  0  0  0  0  0  0  0  0  0  0
   12.8640   -3.2810   49.3360 N   0  0  0  0  0  0  0  0  0  0  0  0
   13.3090   -1.1460   48.3980 C   0  0  0  0  0  0  0  0  0  0  0  0
   13.6620   -2.2080   49.2090 C   0  0  0  0  0  0  0  0  0  0  0  0
   14.1230   -0.0200   48.2650 N   0  0  0  0  0  0  0  0  0  0  0  0
    6.2850   -2.3490   45.0590 C   0  0  0  0  0  0  0  0  0  0  0  0
    5.3810   -3.4070   45.2390 C   0  0  0  0  0  0  0  0  0  0  0  0
    5.9230   -1.3250   44.1720 C   0  0  0  0  0  0  0  0  0  0  0  0
    4.1580   -3.4380   44.5580 C   0  0  0  0  0  0  0  0  0  0  0  0
    4.6990   -1.3560   43.4920 C   0  0  0  0  0  0  0  0  0  0  0  0
    3.7950   -2.4140   43.6720 C   0  0  0  0  0  0  0  0  0  0  0  0
    2.5090   -2.4460   42.9560 C   0  0  0  0  0  0  0  0  0  0  0  0
    2.2170   -1.5080   41.9520 C   0  0  0  0  0  0  0  0  0  0  0  0
    1.5370   -3.4150   43.2570 C   0  0  0  0  0  0  0  0  0  0  0  0
    0.9960   -1.5370   41.2720 C   0  0  0  0  0  0  0  0  0  0  0  0
    0.3160   -3.4450   42.5770 C   0  0  0  0  0  0  0  0  0  0  0  0
    0.0460   -2.5060   41.5860 C   0  0  0  0  0  0  0  0  0  0  0  0
  1  2  2  0
  1  3  1  0
  1  7  1  0
  2  6  1  0
  3  4  2  0
  4  5  1  0
  5 14  1  0
  5  6  2  0
  7  9  1  0
  7  8  2  0
  8 10  1  0
  9 11  2  0
 10 12  2  0
 11 13  1  0
 11 12  1  0
 14 16  1  0
 14 15  2  0
 15 17  1  0
 16 18  2  0
 17 19  2  0
 18 19  1  0
 19 20  1  0
 20 21  2  0
 20 22  1  0
 21 23  1  0
 22 24  2  0
 23 25  2  0
 24 25  1  0
M  END
>  <vina_dock>  (443) 
-8.843

$$$$
O14757_PocketFlow_idx-in-all-generaetd-939
     RDKit          3D

 20 21  0  0  0  0  0  0  0  0999 V2000
   -0.9960   -8.0280   45.1850 C   0  0  0  0  0  0  0  0  0  0  0  0
   -0.7750   -7.1240   44.2170 C   0  0  0  0  0  0  0  0  0  0  0  0
   -0.0550   -8.4260   46.2880 C   0  0  0  0  0  0  0  0  0  0  0  0
   -0.6670   -8.1710   47.6700 C   0  0  0  0  0  0  0  0  0  0  0  0
   -1.5270   -6.9880   47.6770 N   0  0  0  0  0  0  0  0  0  0  0  0
    0.4910   -6.3430   43.9780 C   0  0  0  0  0  0  0  0  0  0  0  0
    0.4250   -4.9050   44.5380 C   0  0  1  0  0  0  0  0  0  0  0  0
    0.8940   -4.8600   46.0010 C   0  0  0  0  0  0  0  0  0  0  0  0
    1.2130   -3.8890   43.6750 C   0  0  0  0  0  0  0  0  0  0  0  0
    2.3240   -5.1220   46.1770 N   0  0  0  0  0  0  0  0  0  0  0  0
    2.4700   -3.3490   44.3860 C   0  0  1  0  0  0  0  0  0  0  0  0
    3.1530   -4.5110   45.1570 C   0  0  1  0  0  0  0  0  0  0  0  0
    3.4480   -2.6560   43.4460 C   0  0  0  0  0  0  0  0  0  0  0  0
    4.3190   -4.0780   45.8980 N   0  0  0  0  0  0  0  0  0  0  0  0
    3.0910   -1.6910   42.5820 C   0  0  0  0  0  0  0  0  0  0  0  0
    4.8850   -3.1090   43.5940 C   0  0  0  0  0  0  0  0  0  0  0  0
    5.3050   -3.3610   45.0680 C   0  0  1  0  0  0  0  0  0  0  0  0
    5.6150   -2.0630   45.7700 C   0  0  0  0  0  0  0  0  0  0  0  0
    6.8160   -1.5690   46.1170 C   0  0  0  0  0  0  0  0  0  0  0  0
    8.1600   -2.1770   45.8820 C   0  0  0  0  0  0  0  0  0  0  0  0
  1  2  2  3
  1  3  1  0
  2  6  1  0
  3  4  1  0
  4  5  1  0
  7  6  1  6
  7  9  1  0
  7  8  1  0
  8 10  1  0
 11  9  1  6
 12 10  1  1
 11 13  1  0
 11 12  1  0
 12 14  1  0
 13 15  2  0
 13 16  1  0
 14 17  1  0
 17 16  1  6
 17 18  1  0
 18 19  2  3
 19 20  1  0
M  END
>  <vina_dock>  (444) 
-6.787

$$$$
O14757_PocketFlow_idx-in-all-generaetd-832
     RDKit          3D

 16 17  0  0  0  0  0  0  0  0999 V2000
    3.1810   -1.3840   42.5370 C   0  0  0  0  0  0  0  0  0  0  0  0
    4.1800   -0.4380   42.7930 C   0  0  0  0  0  0  0  0  0  0  0  0
    3.2550   -2.6510   43.1300 C   0  0  0  0  0  0  0  0  0  0  0  0
    4.3250   -2.9810   43.9760 C   0  0  0  0  0  0  0  0  0  0  0  0
    5.2440   -0.7560   43.6370 C   0  0  0  0  0  0  0  0  0  0  0  0
    5.3150   -2.0190   44.2270 C   0  0  0  0  0  0  0  0  0  0  0  0
    2.0650   -1.0000   41.6380 C   0  0  0  0  0  0  0  0  0  0  0  0
    1.3640   -1.7660   41.0030 O   0  0  0  0  0  0  0  0  0  0  0  0
    1.8740    0.3310   41.5760 O   0  0  0  0  0  0  0  0  0  0  0  0
    4.3940   -4.3420   44.6300 C   0  0  0  0  0  0  0  0  0  0  0  0
    3.0380   -4.9180   44.9660 C   0  0  0  0  0  0  0  0  0  0  0  0
    2.0950   -4.1570   45.6730 C   0  0  0  0  0  0  0  0  0  0  0  0
    2.7100   -6.2310   44.5990 C   0  0  0  0  0  0  0  0  0  0  0  0
    0.8480   -4.6950   45.9950 C   0  0  0  0  0  0  0  0  0  0  0  0
    1.4630   -6.7670   44.9220 C   0  0  0  0  0  0  0  0  0  0  0  0
    0.5320   -5.9990   45.6190 C   0  0  0  0  0  0  0  0  0  0  0  0
  1  7  1  0
  1  2  2  0
  1  3  1  0
  2  5  1  0
  3  4  2  0
  4  6  1  0
  4 10  1  0
  5  6  2  0
  7  8  2  0
  7  9  1  0
 10 11  1  0
 11 13  1  0
 11 12  2  0
 12 14  1  0
 13 15  2  0
 14 16  2  0
 15 16  1  0
M  END
>  <vina_dock>  (445) 
-7.154

$$$$
O14757_PocketFlow_idx-in-all-generaetd-435
     RDKit          3D

 30 34  0  0  0  0  0  0  0  0999 V2000
    1.1340   -2.6190   42.1510 C   0  0  0  0  0  0  0  0  0  0  0  0
    2.0150   -1.6330   41.7020 C   0  0  0  0  0  0  0  0  0  0  0  0
    1.4880   -3.3930   43.2610 C   0  0  0  0  0  0  0  0  0  0  0  0
    2.7260   -3.2000   43.9020 C   0  0  0  0  0  0  0  0  0  0  0  0
    3.6210   -2.2200   43.4400 C   0  0  0  0  0  0  0  0  0  0  0  0
    3.2440   -1.4500   42.3480 C   0  0  0  0  0  0  0  0  0  0  0  0
    3.1120   -3.9580   45.0080 C   0  0  0  0  0  0  0  0  0  0  0  0
    4.3560   -3.7280   45.6120 C   0  0  0  0  0  0  0  0  0  0  0  0
    4.8000   -4.4450   46.7130 C   0  0  0  0  0  0  0  0  0  0  0  0
    5.1970   -2.7370   45.0960 C   0  0  0  0  0  0  0  0  0  0  0  0
    6.4380   -2.5310   45.7220 C   0  0  0  0  0  0  0  0  0  0  0  0
    6.8000   -3.3080   46.8320 C   0  0  0  0  0  0  0  0  0  0  0  0
    5.9900   -4.2470   47.3110 N   0  0  0  0  0  0  0  0  0  0  0  0
    7.9690   -3.1450   47.4520 N   0  0  0  0  0  0  0  0  0  0  0  0
    8.8620   -2.2240   47.0230 C   0  0  0  0  0  0  0  0  0  0  0  0
    8.5640   -1.4050   45.9390 C   0  0  0  0  0  0  0  0  0  0  0  0
    7.3500   -1.5610   45.2830 C   0  0  0  0  0  0  0  0  0  0  0  0
    4.8140   -2.0040   44.0210 N   0  0  0  0  0  0  0  0  0  0  0  0
   -0.1890   -2.8590   41.5110 C   0  0  0  0  0  0  0  0  0  0  0  0
   -1.1190   -1.8460   41.6230 N   0  0  0  0  0  0  0  0  0  0  0  0
   -0.3900   -3.9000   40.8970 O   0  0  0  0  0  0  0  0  0  0  0  0
   -2.3860   -1.9410   40.9400 C   0  0  0  0  0  0  0  0  0  0  0  0
   10.0970   -2.0480   47.7060 N   0  0  0  0  0  0  0  0  0  0  0  0
    9.9410   -1.3450   48.9870 C   0  0  0  0  0  0  0  0  0  0  0  0
   11.1450   -3.0040   47.7570 C   0  0  0  0  0  0  0  0  0  0  0  0
   11.5270   -3.7510   46.6320 C   0  0  0  0  0  0  0  0  0  0  0  0
   11.8270   -3.2260   48.9630 C   0  0  0  0  0  0  0  0  0  0  0  0
   12.5620   -4.6870   46.7100 C   0  0  0  0  0  0  0  0  0  0  0  0
   12.8630   -4.1600   49.0430 C   0  0  0  0  0  0  0  0  0  0  0  0
   13.2310   -4.8890   47.9150 C   0  0  0  0  0  0  0  0  0  0  0  0
  1 19  1  0
  1  2  2  0
  1  3  1  0
  2  6  1  0
  3  4  2  0
  4  5  1  0
  4  7  1  0
  5  6  2  0
  5 18  1  0
  7  8  2  0
  8 10  1  0
  8  9  1  0
  9 13  1  0
 10 18  2  0
 10 11  1  0
 11 17  1  0
 11 12  1  0
 12 13  2  0
 12 14  1  0
 14 15  2  0
 15 16  1  0
 15 23  1  0
 16 17  2  0
 19 21  2  0
 19 20  1  0
 20 22  1  0
 23 25  1  0
 23 24  1  0
 25 26  2  0
 25 27  1  0
 26 28  1  0
 27 29  2  0
 28 30  2  0
 29 30  1  0
M  END
>  <vina_dock>  (446) 
-9.785

$$$$
O14757_PocketFlow_idx-in-all-generaetd-271
     RDKit          3D

 23 25  0  0  0  0  0  0  0  0999 V2000
    7.6670   -1.8660   45.8140 C   0  0  0  0  0  0  0  0  0  0  0  0
    7.3660   -2.9480   46.6510 C   0  0  0  0  0  0  0  0  0  0  0  0
    6.1910   -3.6850   46.4690 C   0  0  0  0  0  0  0  0  0  0  0  0
    5.2880   -3.3500   45.4490 C   0  0  0  0  0  0  0  0  0  0  0  0
    5.5940   -2.2750   44.6070 C   0  0  0  0  0  0  0  0  0  0  0  0
    6.7740   -1.5370   44.7860 C   0  0  0  0  0  0  0  0  0  0  0  0
    4.0390   -4.1720   45.2680 C   0  0  0  0  0  0  0  0  0  0  0  0
    3.0320   -3.6140   44.2970 C   0  0  0  0  0  0  0  0  0  0  0  0
    1.7590   -4.1980   44.2120 C   0  0  0  0  0  0  0  0  0  0  0  0
    0.8050   -3.7080   43.3150 C   0  0  0  0  0  0  0  0  0  0  0  0
    1.1040   -2.6320   42.4650 C   0  0  0  0  0  0  0  0  0  0  0  0
    2.3860   -2.0600   42.5410 C   0  0  0  0  0  0  0  0  0  0  0  0
    3.3370   -2.5430   43.4500 C   0  0  0  0  0  0  0  0  0  0  0  0
    4.6660   -1.8920   43.5190 C   0  0  0  0  0  0  0  0  0  0  0  0
    4.9930   -1.0440   42.6930 O   0  0  0  0  0  0  0  0  0  0  0  0
    8.9300   -1.0650   46.0210 C   0  0  0  0  0  0  0  0  0  0  0  0
    9.8400   -1.6710   47.0720 C   0  0  0  0  0  0  0  0  0  0  0  0
   10.5960   -2.6130   46.8520 O   0  0  0  0  0  0  0  0  0  0  0  0
    9.7700   -1.1010   48.3160 N   0  0  0  0  0  0  0  0  0  0  0  0
    0.0610   -2.1060   41.4950 C   0  0  2  0  0  0  0  0  0  0  0  0
   -0.1430   -0.7190   41.7050 O   0  0  0  0  0  0  0  0  0  0  0  0
   -1.2050   -2.7920   41.6680 N   0  0  0  0  0  0  0  0  0  0  0  0
   -2.2770   -2.1360   40.9360 C   0  0  0  0  0  0  0  0  0  0  0  0
  1  6  2  0
  1 16  1  0
  1  2  1  0
  2  3  2  0
  3  4  1  0
  4  5  2  0
  4  7  1  0
  5 14  1  0
  5  6  1  0
  7  8  1  0
  8 13  2  0
  8  9  1  0
  9 10  2  0
 10 11  1  0
 11 20  1  0
 11 12  2  0
 12 13  1  0
 13 14  1  0
 14 15  2  0
 16 17  1  0
 17 18  2  0
 17 19  1  0
 20 22  1  0
 20 21  1  1
 22 23  1  0
M  END
>  <vina_dock>  (447) 
-9.422

$$$$
O14757_PocketFlow_idx-in-all-generaetd-731
     RDKit          3D

 20 22  0  0  0  0  0  0  0  0999 V2000
    1.2390   -2.6030   42.3660 C   0  0  0  0  0  0  0  0  0  0  0  0
    2.2290   -1.6970   41.9720 C   0  0  0  0  0  0  0  0  0  0  0  0
    3.4490   -1.6490   42.6580 C   0  0  0  0  0  0  0  0  0  0  0  0
    3.7110   -2.5050   43.7410 C   0  0  0  0  0  0  0  0  0  0  0  0
    2.7100   -3.4170   44.1150 C   0  0  0  0  0  0  0  0  0  0  0  0
    1.4900   -3.4700   43.4330 C   0  0  0  0  0  0  0  0  0  0  0  0
   -0.0730   -2.6990   41.6720 C   0  0  0  0  0  0  0  0  0  0  0  0
   -0.3910   -3.8890   41.0790 N   0  0  0  0  0  0  0  0  0  0  0  0
   -0.8340   -1.7420   41.6000 O   0  0  0  0  0  0  0  0  0  0  0  0
    4.9920   -2.4500   44.4590 C   0  0  0  0  0  0  0  0  0  0  0  0
    5.3390   -3.3840   45.4290 C   0  0  0  0  0  0  0  0  0  0  0  0
    5.9400   -1.4580   44.2120 C   0  0  0  0  0  0  0  0  0  0  0  0
    6.5080   -3.3930   46.1200 N   0  0  0  0  0  0  0  0  0  0  0  0
    7.1500   -1.4440   44.9140 C   0  0  0  0  0  0  0  0  0  0  0  0
    7.4170   -2.4240   45.8680 C   0  0  0  0  0  0  0  0  0  0  0  0
    8.6040   -2.4400   46.5780 N   0  0  0  0  0  0  0  0  0  0  0  0
    9.1290   -3.3050   47.4930 C   0  0  0  0  0  0  0  0  0  0  0  0
    9.6050   -1.3660   46.4000 C   0  0  0  0  0  0  0  0  0  0  0  0
   10.2700   -2.7630   47.7760 C   0  0  0  0  0  0  0  0  0  0  0  0
   10.7310   -1.7710   47.3420 N   0  0  0  0  0  0  0  0  0  0  0  0
  1  7  1  0
  1  2  2  0
  1  6  1  0
  2  3  1  0
  3  4  2  0
  4  5  1  0
  4 10  1  0
  5  6  2  0
  7  8  1  0
  7  9  2  0
 10 12  1  0
 10 11  2  0
 11 13  1  0
 12 14  2  0
 13 15  2  0
 14 15  1  0
 15 16  1  0
 16 18  1  0
 16 17  1  0
 17 19  2  0
 18 20  2  0
 19 20  1  0
M  END
>  <vina_dock>  (448) 
-8.319

$$$$
O14757_PocketFlow_idx-in-all-generaetd-880
     RDKit          3D

 30 34  0  0  0  0  0  0  0  0999 V2000
   -0.2130   -7.5990   45.8250 C   0  0  2  0  0  0  0  0  0  0  0  0
    0.9030   -7.5250   44.7670 C   0  0  0  0  0  0  0  0  0  0  0  0
    1.7750   -6.3080   44.8790 C   0  0  0  0  0  0  0  0  0  0  0  0
    2.9560   -6.2200   44.1540 C   0  0  0  0  0  0  0  0  0  0  0  0
    3.7960   -5.1630   44.1890 N   0  0  0  0  0  0  0  0  0  0  0  0
    3.4780   -4.1220   44.9860 C   0  0  0  0  0  0  0  0  0  0  0  0
    2.3080   -4.1420   45.7510 C   0  0  0  0  0  0  0  0  0  0  0  0
    1.4210   -5.2180   45.6730 C   0  0  0  0  0  0  0  0  0  0  0  0
   -0.7560   -6.1940   46.1290 C   0  0  0  0  0  0  0  0  0  0  0  0
    0.2960   -5.2550   46.5100 N   0  0  0  0  0  0  0  0  0  0  0  0
    0.1680   -8.3880   47.0770 C   0  0  0  0  0  0  0  0  0  0  0  0
    0.7930   -9.8130   49.4150 C   0  0  0  0  0  0  0  0  0  0  0  0
    1.0870  -10.4940   50.5320 F   0  0  0  0  0  0  0  0  0  0  0  0
    1.7010   -9.7600   48.3670 C   0  0  0  0  0  0  0  0  0  0  0  0
   -0.4290   -9.1600   49.3160 C   0  0  0  0  0  0  0  0  0  0  0  0
    2.8810  -10.3890   48.4670 F   0  0  0  0  0  0  0  0  0  0  0  0
    1.3970   -9.0540   47.2050 C   0  0  0  0  0  0  0  0  0  0  0  0
   -0.7400   -8.4500   48.1530 C   0  0  0  0  0  0  0  0  0  0  0  0
    4.3460   -3.0090   45.0840 N   0  0  0  0  0  0  0  0  0  0  0  0
    4.3830   -2.2420   43.8300 C   0  0  0  0  0  0  0  0  0  0  0  0
    5.6870   -3.3860   45.5690 C   0  0  0  0  0  0  0  0  0  0  0  0
    5.1820   -0.9580   44.0480 C   0  0  0  0  0  0  0  0  0  0  0  0
    6.5010   -2.1110   45.8690 C   0  0  2  0  0  0  0  0  0  0  0  0
    6.5800   -1.2490   44.5940 C   0  0  0  0  0  0  0  0  0  0  0  0
    7.8810   -2.4960   46.4430 C   0  0  2  0  0  0  0  0  0  0  0  0
    8.9950   -1.5150   46.0250 C   0  0  0  0  0  0  0  0  0  0  0  0
    8.2340   -3.8200   46.0170 O   0  0  0  0  0  0  0  0  0  0  0  0
   10.3440   -2.0350   46.4300 C   0  0  0  0  0  0  0  0  0  0  0  0
    9.3840   -4.3220   46.7080 C   0  0  0  0  0  0  0  0  0  0  0  0
   10.5070   -3.3260   46.7530 C   0  0  0  0  0  0  0  0  0  0  0  0
  1  2  1  0
  1  9  1  0
  1 11  1  1
  2  3  1  0
  3  4  2  0
  3  8  1  0
  4  5  1  0
  5  6  2  0
  6 19  1  0
  6  7  1  0
  7  8  2  0
  8 10  1  0
  9 10  1  0
 11 17  2  0
 11 18  1  0
 12 14  2  0
 12 15  1  0
 12 13  1  0
 14 17  1  0
 14 16  1  0
 15 18  2  0
 19 20  1  0
 19 21  1  0
 20 22  1  0
 23 21  1  6
 22 24  1  0
 23 24  1  0
 23 25  1  0
 25 27  1  0
 25 26  1  6
 26 28  1  0
 27 29  1  0
 28 30  2  0
 29 30  1  0
M  END
>  <vina_dock>  (449) 
-8.541

$$$$
O14757_PocketFlow_idx-in-all-generaetd-788
     RDKit          3D

 15 16  0  0  0  0  0  0  0  0999 V2000
    3.1680   -4.1880   44.3230 C   0  0  0  0  0  0  0  0  0  0  0  0
    3.7620   -5.3780   44.5230 C   0  0  0  0  0  0  0  0  0  0  0  0
    4.0210   -3.0050   44.0650 C   0  0  0  0  0  0  0  0  0  0  0  0
    4.4450   -0.9270   42.8710 C   0  0  0  0  0  0  0  0  0  0  0  0
    5.6210   -0.7430   43.5950 C   0  0  0  0  0  0  0  0  0  0  0  0
    3.6500   -2.0520   43.1060 C   0  0  0  0  0  0  0  0  0  0  0  0
    6.0020   -1.6820   44.5520 C   0  0  0  0  0  0  0  0  0  0  0  0
    5.2060   -2.8060   44.7870 C   0  0  0  0  0  0  0  0  0  0  0  0
    1.6720   -3.9300   44.3510 C   0  0  0  0  0  0  0  0  0  0  0  0
    0.7960   -5.1120   44.7100 C   0  0  0  0  0  0  0  0  0  0  0  0
    0.4290   -5.3430   46.0440 C   0  0  0  0  0  0  0  0  0  0  0  0
    0.3230   -5.9790   43.7150 C   0  0  0  0  0  0  0  0  0  0  0  0
   -0.3870   -6.4260   46.3760 C   0  0  0  0  0  0  0  0  0  0  0  0
   -0.4930   -7.0610   44.0490 C   0  0  0  0  0  0  0  0  0  0  0  0
   -0.8470   -7.2850   45.3780 C   0  0  0  0  0  0  0  0  0  0  0  0
  1  3  1  0
  1  9  1  0
  1  2  2  0
  3  6  1  0
  3  8  2  0
  4  6  2  0
  4  5  1  0
  5  7  2  0
  7  8  1  0
  9 10  1  0
 10 12  1  0
 10 11  2  0
 11 13  1  0
 12 14  2  0
 13 15  2  0
 14 15  1  0
M  END
>  <vina_dock>  (450) 
-7.344

$$$$
O14757_PocketFlow_idx-in-all-generaetd-611
     RDKit          3D

 35 38  0  0  0  0  0  0  0  0999 V2000
    0.6560   -1.8310   41.5720 C   0  0  0  0  0  0  0  0  0  0  0  0
    1.5130   -0.8140   41.7400 C   0  0  0  0  0  0  0  0  0  0  0  0
    2.7910   -1.0190   42.4080 C   0  0  0  0  0  0  0  0  0  0  0  0
    3.7230    0.0120   42.5000 C   0  0  0  0  0  0  0  0  0  0  0  0
    4.9450   -0.1980   43.1430 C   0  0  0  0  0  0  0  0  0  0  0  0
    5.2610   -1.4380   43.7070 C   0  0  0  0  0  0  0  0  0  0  0  0
    4.3270   -2.5020   43.5980 C   0  0  0  0  0  0  0  0  0  0  0  0
    3.0810   -2.2700   42.9530 C   0  0  0  0  0  0  0  0  0  0  0  0
    4.6640   -3.8650   44.0880 C   0  0  0  0  0  0  0  0  0  0  0  0
    3.8400   -4.7170   44.7210 C   0  0  0  0  0  0  0  0  0  0  0  0
    2.4560   -4.4660   45.0560 C   0  0  0  0  0  0  0  0  0  0  0  0
    1.5860   -3.8310   44.2410 C   0  0  0  0  0  0  0  0  0  0  0  0
    2.0250   -3.3590   42.8550 C   0  0  0  0  0  0  0  0  0  0  0  0
    0.8840   -3.1100   42.0160 O   0  0  0  0  0  0  0  0  0  0  0  0
   -0.6140   -1.6450   40.8860 C   0  0  0  0  0  0  0  0  0  0  0  0
   -1.7680   -2.2520   41.2120 C   0  0  0  0  0  0  0  0  0  0  0  0
   -3.0020   -2.0230   40.4920 C   0  0  0  0  0  0  0  0  0  0  0  0
   -3.7360   -0.9020   40.4090 C   0  0  0  0  0  0  0  0  0  0  0  0
   -3.5570    0.4340   40.9960 C   0  0  0  0  0  0  0  0  0  0  0  0
   -3.2480    0.6160   42.1610 O   0  0  0  0  0  0  0  0  0  0  0  0
   -3.7590    1.4620   40.1680 O   0  0  0  0  0  0  0  0  0  0  0  0
    0.1730   -3.5770   44.6830 C   0  0  0  0  0  0  0  0  0  0  0  0
   -0.0800   -4.1570   45.9930 N   0  0  0  0  0  0  0  0  0  0  0  0
    6.4820   -1.6540   44.4020 N   0  0  0  0  0  0  0  0  0  0  0  0
    6.6630   -1.9820   45.7330 C   0  0  0  0  0  0  0  0  0  0  0  0
    5.7940   -2.1960   46.5700 O   0  0  0  0  0  0  0  0  0  0  0  0
    8.0880   -2.1120   46.1500 C   0  0  0  0  0  0  0  0  0  0  0  0
    8.5640   -3.3750   46.5250 C   0  0  0  0  0  0  0  0  0  0  0  0
    8.9410   -1.0020   46.2020 C   0  0  0  0  0  0  0  0  0  0  0  0
    9.8990   -3.5450   46.9200 C   0  0  0  0  0  0  0  0  0  0  0  0
   10.2680   -1.1630   46.6010 C   0  0  0  0  0  0  0  0  0  0  0  0
   10.7450   -2.4280   46.9540 C   0  0  0  0  0  0  0  0  0  0  0  0
   10.4080   -4.9040   47.3320 C   0  0  0  0  0  0  0  0  0  0  0  0
   10.5350   -5.8470   46.1350 C   0  0  0  0  0  0  0  0  0  0  0  0
   10.1310   -7.2670   46.5030 C   0  0  0  0  0  0  0  0  0  0  0  0
  1 15  1  0
  1  2  2  0
  1 14  1  0
  2  3  1  0
  3  4  1  0
  3  8  2  0
  4  5  2  0
  5  6  1  0
  6  7  2  0
  6 24  1  0
  7  8  1  0
  7  9  1  0
  8 13  1  0
  9 10  1  0
 10 11  2  0
 11 12  1  0
 12 13  2  0
 12 22  1  0
 13 14  1  0
 15 16  2  3
 16 17  1  0
 17 18  2  3
 18 19  1  0
 19 21  1  0
 19 20  2  0
 22 23  1  0
 24 25  1  0
 25 27  1  0
 25 26  2  0
 27 29  1  0
 27 28  2  0
 28 30  1  0
 29 31  2  0
 30 32  2  0
 30 33  1  0
 31 32  1  0
 33 34  1  0
 34 35  1  0
M  END
>  <vina_dock>  (451) 
-8.932

$$$$
O14757_PocketFlow_idx-in-all-generaetd-614
     RDKit          3D

 28 30  0  0  0  0  0  0  0  0999 V2000
    1.5680   -2.9990   42.7770 C   0  0  0  0  0  0  0  0  0  0  0  0
    2.8430   -2.7610   43.3230 C   0  0  0  0  0  0  0  0  0  0  0  0
    3.2850   -3.4100   44.4910 C   0  0  0  0  0  0  0  0  0  0  0  0
    2.4180   -4.3240   45.1080 C   0  0  0  0  0  0  0  0  0  0  0  0
    1.1540   -4.5920   44.5680 C   0  0  0  0  0  0  0  0  0  0  0  0
    0.7260   -3.9210   43.4160 C   0  0  0  0  0  0  0  0  0  0  0  0
    1.0900   -2.2740   41.5320 C   0  0  2  0  0  0  0  0  0  0  0  0
    1.4080   -0.7770   41.5910 C   0  0  0  0  0  0  0  0  0  0  0  0
   -0.4010   -2.5080   41.2800 C   0  0  0  0  0  0  0  0  0  0  0  0
   -0.5540   -3.6470   40.5470 F   0  0  0  0  0  0  0  0  0  0  0  0
    4.6200   -3.1360   45.0500 C   0  0  0  0  0  0  0  0  0  0  0  0
    5.4650   -2.1760   44.4730 C   0  0  0  0  0  0  0  0  0  0  0  0
    5.0890   -3.8270   46.1770 C   0  0  0  0  0  0  0  0  0  0  0  0
    6.7350   -1.9190   45.0030 C   0  0  0  0  0  0  0  0  0  0  0  0
    6.3590   -3.5680   46.7070 C   0  0  0  0  0  0  0  0  0  0  0  0
    7.2050   -2.6110   46.1300 C   0  0  0  0  0  0  0  0  0  0  0  0
    8.5390   -2.3380   46.6880 C   0  0  0  0  0  0  0  0  0  0  0  0
    8.9830   -2.9870   47.8510 C   0  0  0  0  0  0  0  0  0  0  0  0
    9.4070   -1.4190   46.0740 C   0  0  0  0  0  0  0  0  0  0  0  0
   10.2500   -2.7290   48.3820 C   0  0  0  0  0  0  0  0  0  0  0  0
   10.6740   -1.1600   46.6020 C   0  0  0  0  0  0  0  0  0  0  0  0
   11.0950   -1.8150   47.7570 C   0  0  0  0  0  0  0  0  0  0  0  0
    0.2800   -5.5760   45.2660 C   0  0  0  0  0  0  0  0  0  0  0  0
    0.2140   -5.5300   46.4890 O   0  0  0  0  0  0  0  0  0  0  0  0
   -0.3550   -6.4850   44.4340 N   0  0  0  0  0  0  0  0  0  0  0  0
   -1.2430   -7.4800   44.7750 C   0  0  0  0  0  0  0  0  0  0  0  0
   -2.3950   -7.7690   44.1600 C   0  0  0  0  0  0  0  0  0  0  0  0
   -3.3100   -8.8700   44.5870 C   0  0  0  0  0  0  0  0  0  0  0  0
  1  7  1  0
  1  2  2  0
  1  6  1  0
  2  3  1  0
  3 11  1  0
  3  4  2  0
  4  5  1  0
  5  6  2  0
  5 23  1  0
  7  9  1  0
  7  8  1  1
  9 10  1  0
 11 12  2  0
 11 13  1  0
 12 14  1  0
 13 15  2  0
 14 16  2  0
 15 16  1  0
 16 17  1  0
 17 19  1  0
 17 18  2  0
 18 20  1  0
 19 21  2  0
 20 22  2  0
 21 22  1  0
 23 25  1  0
 23 24  2  0
 25 26  1  0
 26 27  2  3
 27 28  1  0
M  END
>  <vina_dock>  (452) 
-9.919

$$$$
O14757_PocketFlow_idx-in-all-generaetd-960
     RDKit          3D

 19 21  0  0  0  0  0  0  0  0999 V2000
    7.4540   -3.8090   47.0390 C   0  0  0  0  0  0  0  0  0  0  0  0
    7.2990   -3.7630   48.2440 O   0  0  0  0  0  0  0  0  0  0  0  0
    6.6090   -3.1330   46.0230 C   0  0  0  0  0  0  0  0  0  0  0  0
    1.0960   -3.6930   43.2730 C   0  0  0  0  0  0  0  0  0  0  0  0
    0.3690   -3.3600   42.1330 C   0  0  0  0  0  0  0  0  0  0  0  0
    2.2830   -3.0080   43.5730 C   0  0  0  0  0  0  0  0  0  0  0  0
    0.8300   -2.3540   41.2900 C   0  0  0  0  0  0  0  0  0  0  0  0
    3.0680   -3.4290   44.7600 C   0  0  0  0  0  0  0  0  0  0  0  0
    2.7420   -1.9650   42.7540 C   0  0  0  0  0  0  0  0  0  0  0  0
    2.0090   -1.6650   41.5940 C   0  0  0  0  0  0  0  0  0  0  0  0
    4.4560   -2.9300   44.9280 C   0  0  0  0  0  0  0  0  0  0  0  0
    2.5910   -4.2130   45.5750 O   0  0  0  0  0  0  0  0  0  0  0  0
    3.9880   -1.2560   43.1550 C   0  0  0  0  0  0  0  0  0  0  0  0
    5.2810   -3.5420   45.8830 C   0  0  0  0  0  0  0  0  0  0  0  0
    4.9330   -1.8840   44.1190 C   0  0  0  0  0  0  0  0  0  0  0  0
    4.1910    0.0150   42.7540 C   0  0  0  0  0  0  0  0  0  0  0  0
    6.2780   -1.5050   44.2540 C   0  0  0  0  0  0  0  0  0  0  0  0
    7.1080   -2.1190   45.2000 C   0  0  0  0  0  0  0  0  0  0  0  0
    8.4600   -4.5130   46.4910 O   0  0  0  0  0  0  0  0  0  0  0  0
  1  3  1  0
  1 19  1  0
  1  2  2  0
  3 18  2  0
  3 14  1  0
  4  5  2  0
  4  6  1  0
  5  7  1  0
  6  9  2  0
  6  8  1  0
  7 10  2  0
  8 11  1  0
  8 12  2  0
  9 10  1  0
  9 13  1  0
 11 15  1  0
 11 14  2  0
 13 16  2  0
 13 15  1  0
 15 17  2  0
 17 18  1  0
M  END
>  <vina_dock>  (453) 
-9.244

$$$$
O14757_PocketFlow_idx-in-all-generaetd-58
     RDKit          3D

 29 32  0  0  0  0  0  0  0  0999 V2000
    1.8790   -5.0130   45.4850 C   0  0  0  0  0  0  0  0  0  0  0  0
    1.6140   -4.1750   44.2160 C   0  0  2  0  0  0  0  0  0  0  0  0
    2.7660   -3.2350   43.9010 C   0  0  0  0  0  0  0  0  0  0  0  0
    5.0060   -2.3700   44.3410 C   0  0  0  0  0  0  0  0  0  0  0  0
    3.9650   -3.2600   44.6380 C   0  0  0  0  0  0  0  0  0  0  0  0
    4.8500   -1.4370   43.3140 C   0  0  0  0  0  0  0  0  0  0  0  0
    3.6660   -1.3980   42.5790 C   0  0  0  0  0  0  0  0  0  0  0  0
    2.6320   -2.2890   42.8710 C   0  0  0  0  0  0  0  0  0  0  0  0
    6.2720   -2.4020   45.1180 C   0  0  0  0  0  0  0  0  0  0  0  0
    6.5470   -3.3880   45.9370 N   0  0  0  0  0  0  0  0  0  0  0  0
    7.2100   -1.3960   45.0450 N   0  0  0  0  0  0  0  0  0  0  0  0
    7.8860   -3.0540   46.4930 C   0  0  0  0  0  0  0  0  0  0  0  0
    8.1470   -1.5920   46.1300 C   0  0  0  0  0  0  0  0  0  0  0  0
    0.3600   -3.4270   44.3150 N   0  0  0  0  0  0  0  0  0  0  0  0
    1.8550   -6.5250   45.2070 C   0  0  0  0  0  0  0  0  0  0  0  0
    0.4990   -7.2220   45.1480 C   0  0  0  0  0  0  0  0  0  0  0  0
   -0.4390   -6.8500   44.1770 C   0  0  0  0  0  0  0  0  0  0  0  0
    0.1610   -8.2630   46.0700 C   0  0  0  0  0  0  0  0  0  0  0  0
   -1.6900   -7.4560   44.1090 C   0  0  0  0  0  0  0  0  0  0  0  0
   -1.1390   -8.8920   45.9990 C   0  0  0  0  0  0  0  0  0  0  0  0
   -2.0530   -8.4620   45.0030 C   0  0  0  0  0  0  0  0  0  0  0  0
   -1.6020   -9.9290   46.8520 C   0  0  0  0  0  0  0  0  0  0  0  0
   -3.3310   -9.0360   44.8940 C   0  0  0  0  0  0  0  0  0  0  0  0
   -2.8770  -10.4950   46.7360 C   0  0  0  0  0  0  0  0  0  0  0  0
   -3.7440  -10.0450   45.7560 C   0  0  0  0  0  0  0  0  0  0  0  0
    1.1760   -8.6610   47.1530 C   0  0  1  0  0  0  0  0  0  0  0  0
    0.4910   -8.9820   48.4860 C   0  0  0  0  0  0  0  0  0  0  0  0
    2.1590   -9.7500   46.7590 C   0  0  0  0  0  0  0  0  0  0  0  0
    2.8620   -9.7510   45.7530 O   0  0  0  0  0  0  0  0  0  0  0  0
  1  2  1  0
  1 15  1  0
  2  3  1  0
  2 14  1  1
  3  8  1  0
  3  5  2  0
  4  6  2  0
  4  5  1  0
  4  9  1  0
  6  7  1  0
  7  8  2  0
  9 11  1  0
  9 10  1  0
 10 12  1  0
 11 13  1  0
 12 13  1  0
 15 16  1  0
 16 17  2  0
 16 18  1  0
 17 19  1  0
 18 20  2  0
 18 26  1  0
 19 21  2  0
 20 21  1  0
 20 22  1  0
 21 23  1  0
 22 24  2  0
 23 25  2  0
 24 25  1  0
 26 28  1  0
 26 27  1  1
 28 29  2  0
M  END
>  <vina_dock>  (454) 
-9.53

$$$$
O14757_PocketFlow_idx-in-all-generaetd-513
     RDKit          3D

 34 36  0  0  0  0  0  0  0  0999 V2000
    2.3440   -1.9700   42.2660 C   0  0  0  0  0  0  0  0  0  0  0  0
    3.3890   -1.0620   42.3700 C   0  0  0  0  0  0  0  0  0  0  0  0
    4.3210   -1.2020   43.3900 C   0  0  0  0  0  0  0  0  0  0  0  0
    4.2630   -2.2360   44.3530 C   0  0  0  0  0  0  0  0  0  0  0  0
    3.2420   -3.2030   44.2400 C   0  0  0  0  0  0  0  0  0  0  0  0
    2.2860   -3.0170   43.2050 C   0  0  0  0  0  0  0  0  0  0  0  0
    3.1190   -4.4330   45.1020 C   0  0  0  0  0  0  0  0  0  0  0  0
    3.5010   -4.4820   46.3930 C   0  0  0  0  0  0  0  0  0  0  0  0
    4.0480   -3.4470   47.2260 C   0  0  0  0  0  0  0  0  0  0  0  0
    4.8790   -2.4790   46.8340 C   0  0  0  0  0  0  0  0  0  0  0  0
    5.3360   -2.1730   45.4300 C   0  0  0  0  0  0  0  0  0  0  0  0
    5.3110   -0.2960   43.4480 F   0  0  0  0  0  0  0  0  0  0  0  0
    1.2750   -1.8380   41.2020 C   0  0  1  0  0  0  0  0  0  0  0  0
    0.1820   -2.9130   41.3290 C   0  0  0  0  0  0  0  0  0  0  0  0
    0.1320   -4.0070   40.7910 O   0  0  0  0  0  0  0  0  0  0  0  0
   -0.8480   -2.4920   42.1080 O   0  0  0  0  0  0  0  0  0  0  0  0
    0.7190   -0.5210   41.2350 O   0  0  0  0  0  0  0  0  0  0  0  0
    2.4790   -5.6510   44.4140 C   0  0  0  0  0  0  0  0  0  0  0  0
    1.0230   -5.7230   44.2640 N   0  0  0  0  0  0  0  0  0  0  0  0
    0.3420   -6.6950   45.1450 C   0  0  2  0  0  0  0  0  0  0  0  0
    1.3600   -7.7280   45.6800 C   0  0  0  0  0  0  0  0  0  0  0  0
   -0.7880   -7.3810   44.3480 C   0  0  0  0  0  0  0  0  0  0  0  0
    0.8780   -8.9090   46.4750 C   0  0  0  0  0  0  0  0  0  0  0  0
   -1.8440   -7.9960   45.2300 C   0  0  0  0  0  0  0  0  0  0  0  0
   -0.3640   -9.3440   46.7220 C   0  0  0  0  0  0  0  0  0  0  0  0
   -1.6190   -8.7870   46.2880 C   0  0  0  0  0  0  0  0  0  0  0  0
   -3.1450   -7.5940   44.9590 O   0  0  0  0  0  0  0  0  0  0  0  0
   -3.7160   -8.2280   43.5040 Cl  0  0  0  0  0  0  0  0  0  0  0  0
    6.7030   -2.7950   45.0200 C   0  0  1  0  0  0  0  0  0  0  0  0
    7.7030   -1.7660   44.9800 O   0  0  0  0  0  0  0  0  0  0  0  0
    7.1850   -3.7830   45.9220 O   0  0  0  0  0  0  0  0  0  0  0  0
    8.4020   -3.5550   46.4330 C   0  0  0  0  0  0  0  0  0  0  0  0
    9.4800   -3.9930   46.0790 O   0  0  0  0  0  0  0  0  0  0  0  0
    8.2890   -2.6880   47.4530 O   0  0  0  0  0  0  0  0  0  0  0  0
  1 13  1  0
  1  2  2  0
  1  6  1  0
  2  3  1  0
  3 12  1  0
  3  4  2  0
  4  5  1  0
  4 11  1  0
  5  6  1  0
  5  7  2  0
  7 18  1  0
  7  8  1  0
  8  9  2  0
  9 10  1  0
 10 11  2  0
 11 29  1  0
 13 17  1  1
 13 14  1  0
 14 15  2  0
 14 16  1  0
 18 19  1  0
 20 19  1  6
 20 22  1  0
 20 21  1  0
 21 23  1  0
 22 24  1  0
 23 25  2  0
 24 27  1  0
 24 26  2  0
 25 26  1  0
 27 28  1  0
 29 30  1  1
 29 31  1  0
 31 32  1  0
 32 33  2  0
 32 34  1  0
M  END
>  <vina_dock>  (455) 
-8.251

$$$$
O14757_PocketFlow_idx-in-all-generaetd-629
     RDKit          3D

 16 17  0  0  0  0  0  0  0  0999 V2000
    3.2230   -4.0760   44.5950 C   0  0  0  0  0  0  0  0  0  0  0  0
    2.7490   -4.5900   45.8040 C   0  0  0  0  0  0  0  0  0  0  0  0
    1.3790   -4.6560   46.0500 C   0  0  0  0  0  0  0  0  0  0  0  0
    0.4680   -4.2020   45.0920 C   0  0  0  0  0  0  0  0  0  0  0  0
    0.9060   -3.6650   43.8780 C   0  0  0  0  0  0  0  0  0  0  0  0
    2.2920   -3.6140   43.6470 C   0  0  0  0  0  0  0  0  0  0  0  0
    4.7050   -4.0040   44.3080 C   0  0  0  0  0  0  0  0  0  0  0  0
    5.3710   -2.6190   44.3750 C   0  0  1  0  0  0  0  0  0  0  0  0
    5.0880   -1.6950   43.2130 C   0  0  0  0  0  0  0  0  0  0  0  0
    4.7550   -0.4850   43.6670 C   0  0  0  0  0  0  0  0  0  0  0  0
    4.9610   -1.7580   45.6010 C   0  0  0  0  0  0  0  0  0  0  0  0
    4.7890   -0.4130   45.0370 N   0  0  0  0  0  0  0  0  0  0  0  0
    0.0420   -3.2050   42.8670 N   0  0  0  0  0  0  0  0  0  0  0  0
    0.2930   -3.0000   41.5390 C   0  0  0  0  0  0  0  0  0  0  0  0
    0.8470   -1.9280   40.9560 C   0  0  0  0  0  0  0  0  0  0  0  0
    1.3210   -0.6790   41.6230 C   0  0  0  0  0  0  0  0  0  0  0  0
  1  6  1  0
  1  7  1  0
  1  2  2  0
  2  3  1  0
  3  4  2  0
  4  5  1  0
  5 13  1  0
  5  6  2  0
  8  7  1  6
  8  9  1  0
  8 11  1  0
  9 10  1  0
 10 12  1  0
 11 12  1  0
 13 14  1  0
 14 15  2  3
 15 16  1  0
M  END
>  <vina_dock>  (456) 
-7.174

$$$$
O14757_PocketFlow_idx-in-all-generaetd-635
     RDKit          3D

 16 17  0  0  0  0  0  0  0  0999 V2000
    0.6160   -6.0250   45.4600 C   0  0  0  0  0  0  0  0  0  0  0  0
    1.6160   -6.6960   44.7480 C   0  0  0  0  0  0  0  0  0  0  0  0
    2.8850   -6.1240   44.6150 C   0  0  0  0  0  0  0  0  0  0  0  0
    3.1710   -4.8780   45.1920 C   0  0  0  0  0  0  0  0  0  0  0  0
    2.1630   -4.2110   45.9050 C   0  0  0  0  0  0  0  0  0  0  0  0
    0.8950   -4.7810   46.0380 C   0  0  0  0  0  0  0  0  0  0  0  0
   -0.7430   -6.5900   45.6300 C   0  0  0  0  0  0  0  0  0  0  0  0
   -1.2010   -7.5430   45.0260 O   0  0  0  0  0  0  0  0  0  0  0  0
   -1.4720   -5.9380   46.5540 O   0  0  0  0  0  0  0  0  0  0  0  0
    4.5450   -4.2620   45.0480 C   0  0  0  0  0  0  0  0  0  0  0  0
    4.5570   -2.9560   44.2860 C   0  0  0  0  0  0  0  0  0  0  0  0
    5.5980   -2.0330   44.4680 C   0  0  0  0  0  0  0  0  0  0  0  0
    3.5270   -2.6440   43.3880 C   0  0  0  0  0  0  0  0  0  0  0  0
    5.6080   -0.8270   43.7660 C   0  0  0  0  0  0  0  0  0  0  0  0
    3.5380   -1.4380   42.6860 C   0  0  0  0  0  0  0  0  0  0  0  0
    4.5790   -0.5300   42.8750 C   0  0  0  0  0  0  0  0  0  0  0  0
  1  2  2  0
  1  7  1  0
  1  6  1  0
  2  3  1  0
  3  4  2  0
  4 10  1  0
  4  5  1  0
  5  6  2  0
  7  8  2  0
  7  9  1  0
 10 11  1  0
 11 13  1  0
 11 12  2  0
 12 14  1  0
 13 15  2  0
 14 16  2  0
 15 16  1  0
M  END
>  <vina_dock>  (457) 
-7.373

$$$$
O14757_PocketFlow_idx-in-all-generaetd-785
     RDKit          3D

 35 39  0  0  0  0  0  0  0  0999 V2000
    2.8030   -5.7630   45.7560 C   0  0  0  0  0  0  0  0  0  0  0  0
    3.3660   -6.8280   45.9760 O   0  0  0  0  0  0  0  0  0  0  0  0
    1.4310   -5.6150   45.7240 N   0  0  0  0  0  0  0  0  0  0  0  0
    3.5970   -4.5400   45.4670 C   0  0  0  0  0  0  0  0  0  0  0  0
    4.1710   -2.6480   44.0340 C   0  0  0  0  0  0  0  0  0  0  0  0
    3.4210   -3.8130   44.2810 C   0  0  0  0  0  0  0  0  0  0  0  0
    5.1060   -2.2340   44.9970 C   0  0  0  0  0  0  0  0  0  0  0  0
    5.2730   -2.9500   46.1830 C   0  0  0  0  0  0  0  0  0  0  0  0
    4.5150   -4.0970   46.4230 C   0  0  0  0  0  0  0  0  0  0  0  0
    3.9520   -1.8800   42.7310 C   0  0  1  0  0  0  0  0  0  0  0  0
   -0.2260   -1.6450   41.5180 C   0  0  0  0  0  0  0  0  0  0  0  0
    0.3900   -2.8850   41.7260 C   0  0  0  0  0  0  0  0  0  0  0  0
    0.5360   -0.4830   41.7060 C   0  0  0  0  0  0  0  0  0  0  0  0
    1.7340   -2.9610   42.1120 C   0  0  0  0  0  0  0  0  0  0  0  0
    1.8800   -0.5410   42.1140 C   0  0  0  0  0  0  0  0  0  0  0  0
    2.4860   -1.7940   42.3140 C   0  0  0  0  0  0  0  0  0  0  0  0
    2.6680    0.7400   42.2570 C   0  0  0  0  0  0  0  0  0  0  0  0
    3.7840    0.6190   43.1960 N   0  0  0  0  0  0  0  0  0  0  0  0
    4.6420   -0.4890   42.7850 C   0  0  2  0  0  0  0  0  0  0  0  0
    5.1220   -0.2010   41.5390 F   0  0  0  0  0  0  0  0  0  0  0  0
   -1.6250   -1.5200   41.1040 C   0  0  0  0  0  0  0  0  0  0  0  0
   -2.3810   -2.5120   40.5250 N   0  0  0  0  0  0  0  0  0  0  0  0
   -2.4000   -0.4560   41.2420 N   0  0  0  0  0  0  0  0  0  0  0  0
   -3.6210   -1.9930   40.3280 C   0  0  0  0  0  0  0  0  0  0  0  0
   -3.6490   -0.7520   40.7500 N   0  0  0  0  0  0  0  0  0  0  0  0
    0.5430   -6.7450   45.9190 C   0  0  0  0  0  0  0  0  0  0  0  0
   -0.1640   -7.1610   44.6250 C   0  0  0  0  0  0  0  0  0  0  0  0
   -1.3990   -7.9840   44.9000 C   0  0  0  0  0  0  0  0  0  0  0  0
   -2.4900   -7.9400   44.0250 C   0  0  0  0  0  0  0  0  0  0  0  0
   -1.4770   -8.7870   46.0480 C   0  0  0  0  0  0  0  0  0  0  0  0
   -3.6430   -8.6790   44.2950 C   0  0  0  0  0  0  0  0  0  0  0  0
   -2.6330   -9.5340   46.3280 C   0  0  0  0  0  0  0  0  0  0  0  0
   -3.7170   -9.4660   45.4420 C   0  0  0  0  0  0  0  0  0  0  0  0
   -2.7160  -10.3690   47.5720 C   0  0  0  0  0  0  0  0  0  0  0  0
   -1.0350  -10.2510   48.5420 Br  0  0  0  0  0  0  0  0  0  0  0  0
  1  4  1  0
  1  3  1  0
  1  2  2  0
  3 26  1  0
  4  6  2  0
  4  9  1  0
 10  5  1  1
  5  6  1  0
  5  7  2  0
  7  8  1  0
  8  9  2  0
 10 16  1  0
 10 19  1  0
 11 21  1  0
 11 13  1  0
 11 12  2  0
 12 14  1  0
 13 15  2  0
 14 16  2  0
 15 17  1  0
 15 16  1  0
 17 18  1  0
 18 19  1  0
 19 20  1  6
 21 22  1  0
 21 23  2  0
 22 24  1  0
 23 25  1  0
 24 25  2  0
 26 27  1  0
 27 28  1  0
 28 29  2  0
 28 30  1  0
 29 31  1  0
 30 32  2  0
 31 33  2  0
 32 33  1  0
 32 34  1  0
 34 35  1  0
M  END
>  <vina_dock>  (458) 
-10.279

$$$$
O14757_PocketFlow_idx-in-all-generaetd-299
     RDKit          3D

  8  7  0  0  0  0  0  0  0  0999 V2000
    2.3260   -3.5510   44.2370 C   0  0  0  0  0  0  0  0  0  0  0  0
    3.3760   -2.9630   43.6420 C   0  0  0  0  0  0  0  0  0  0  0  0
    0.9890   -3.7340   43.5760 C   0  0  0  0  0  0  0  0  0  0  0  0
    0.7570   -2.7770   42.4020 C   0  0  0  0  0  0  0  0  0  0  0  0
   -0.0520   -3.3910   41.2670 C   0  0  0  0  0  0  0  0  0  0  0  0
    4.6550   -2.8090   44.2950 C   0  0  0  0  0  0  0  0  0  0  0  0
    5.4830   -1.7570   44.1950 C   0  0  0  0  0  0  0  0  0  0  0  0
    5.3050   -0.5030   43.4000 C   0  0  0  0  0  0  0  0  0  0  0  0
  1  3  1  0
  1  2  2  3
  2  6  1  0
  3  4  1  0
  4  5  1  0
  6  7  2  3
  7  8  1  0
M  END
>  <vina_dock>  (459) 
-4.694

$$$$
O14757_PocketFlow_idx-in-all-generaetd-708
     RDKit          3D

 30 33  0  0  0  0  0  0  0  0999 V2000
    6.3390   -2.2250   45.3620 C   0  0  0  0  0  0  0  0  0  0  0  0
    7.4130   -1.3310   45.2620 C   0  0  0  0  0  0  0  0  0  0  0  0
    8.6180   -1.5800   45.9310 C   0  0  0  0  0  0  0  0  0  0  0  0
    8.7620   -2.7280   46.7190 C   0  0  0  0  0  0  0  0  0  0  0  0
    7.6850   -3.6170   46.8330 C   0  0  0  0  0  0  0  0  0  0  0  0
    6.4830   -3.3630   46.1650 C   0  0  0  0  0  0  0  0  0  0  0  0
    5.0510   -1.9810   44.7010 C   0  0  0  0  0  0  0  0  0  0  0  0
    4.3900   -2.9090   43.9890 C   0  0  0  0  0  0  0  0  0  0  0  0
    3.1020   -2.6670   43.3240 C   0  0  0  0  0  0  0  0  0  0  0  0
    0.5690   -2.2100   42.1340 C   0  0  0  0  0  0  0  0  0  0  0  0
    1.6830   -1.4440   41.7660 C   0  0  0  0  0  0  0  0  0  0  0  0
    0.7400   -3.1950   43.1170 C   0  0  0  0  0  0  0  0  0  0  0  0
    2.9340   -1.6680   42.3580 C   0  0  0  0  0  0  0  0  0  0  0  0
    1.9890   -3.4180   43.7090 C   0  0  0  0  0  0  0  0  0  0  0  0
   -0.7610   -2.0160   41.5440 C   0  0  0  0  0  0  0  0  0  0  0  0
   -1.4250   -0.8720   41.4880 N   0  0  0  0  0  0  0  0  0  0  0  0
   -1.5200   -3.0170   40.9700 N   0  0  0  0  0  0  0  0  0  0  0  0
   -2.5990   -1.1560   40.8770 C   0  0  0  0  0  0  0  0  0  0  0  0
   -2.6950   -2.4720   40.5320 C   0  0  0  0  0  0  0  0  0  0  0  0
   -3.5040   -0.2030   40.6630 N   0  0  0  0  0  0  0  0  0  0  0  0
   10.0170   -3.0510   47.4540 C   0  0  0  0  0  0  0  0  0  0  0  0
   10.1260   -2.9470   48.6660 O   0  0  0  0  0  0  0  0  0  0  0  0
   10.9900   -3.4630   46.5590 O   0  0  0  0  0  0  0  0  0  0  0  0
   11.3640   -4.8170   46.5690 C   0  0  0  0  0  0  0  0  0  0  0  0
   12.6880   -5.0980   46.9110 C   0  0  0  0  0  0  0  0  0  0  0  0
   10.4910   -5.8310   46.1740 C   0  0  0  0  0  0  0  0  0  0  0  0
   13.1390   -6.4180   46.8860 C   0  0  0  0  0  0  0  0  0  0  0  0
   10.9540   -7.1420   46.1610 C   0  0  0  0  0  0  0  0  0  0  0  0
   12.2670   -7.4420   46.5110 C   0  0  0  0  0  0  0  0  0  0  0  0
   10.1410   -8.1770   45.8030 O   0  0  0  0  0  0  0  0  0  0  0  0
  1  7  1  0
  1  2  2  0
  1  6  1  0
  2  3  1  0
  3  4  2  0
  4  5  1  0
  4 21  1  0
  5  6  2  0
  7  8  2  3
  8  9  1  0
  9 13  2  0
  9 14  1  0
 10 15  1  0
 10 11  2  0
 10 12  1  0
 11 13  1  0
 12 14  2  0
 15 17  1  0
 15 16  2  0
 16 18  1  0
 17 19  1  0
 18 19  2  0
 18 20  1  0
 21 23  1  0
 21 22  2  0
 23 24  1  0
 24 26  1  0
 24 25  2  0
 25 27  1  0
 26 28  2  0
 27 29  2  0
 28 30  1  0
 28 29  1  0
M  END
>  <vina_dock>  (460) 
-8.567

$$$$
O14757_PocketFlow_idx-in-all-generaetd-444
     RDKit          3D

 22 24  0  0  0  0  0  0  0  0999 V2000
    2.4440   -3.7040   45.0180 C   0  0  0  0  0  0  0  0  0  0  0  0
    2.0400   -3.1560   43.6620 C   0  0  0  0  0  0  0  0  0  0  0  0
    0.3810   -3.1590   41.8580 C   0  0  0  0  0  0  0  0  0  0  0  0
    1.1550   -2.2290   41.1720 C   0  0  0  0  0  0  0  0  0  0  0  0
    0.8580   -3.6530   43.0720 C   0  0  0  0  0  0  0  0  0  0  0  0
    2.3300   -1.7240   41.7380 C   0  0  0  0  0  0  0  0  0  0  0  0
    2.7860   -2.1620   42.9940 C   0  0  0  0  0  0  0  0  0  0  0  0
   -0.7310   -3.7470   41.2420 N   0  0  0  0  0  0  0  0  0  0  0  0
    3.9850   -1.6750   43.5630 N   0  0  0  0  0  0  0  0  0  0  0  0
    4.4120   -0.3700   43.0540 C   0  0  0  0  0  0  0  0  0  0  0  0
    5.0310   -2.7030   43.5220 C   0  0  0  0  0  0  0  0  0  0  0  0
    1.8660   -5.0730   45.3130 C   0  0  0  0  0  0  0  0  0  0  0  0
    2.6080   -6.2110   44.9790 C   0  0  0  0  0  0  0  0  0  0  0  0
    0.6110   -5.2490   45.9180 C   0  0  0  0  0  0  0  0  0  0  0  0
    2.1130   -7.4880   45.2420 C   0  0  0  0  0  0  0  0  0  0  0  0
    0.0960   -6.5360   46.2260 C   0  0  0  0  0  0  0  0  0  0  0  0
    0.8710   -7.6660   45.8660 C   0  0  0  0  0  0  0  0  0  0  0  0
   -1.1330   -6.7660   46.8900 C   0  0  0  0  0  0  0  0  0  0  0  0
    0.3980   -8.9600   46.1430 C   0  0  0  0  0  0  0  0  0  0  0  0
   -1.5890   -8.0580   47.1610 C   0  0  0  0  0  0  0  0  0  0  0  0
   -0.8240   -9.1550   46.7830 C   0  0  0  0  0  0  0  0  0  0  0  0
   -0.1110   -4.1140   46.1970 O   0  0  0  0  0  0  0  0  0  0  0  0
  1  2  1  0
  1 12  1  0
  2  7  1  0
  2  5  2  0
  3  4  2  0
  3  8  1  0
  3  5  1  0
  4  6  1  0
  6  7  2  0
  7  9  1  0
  9 10  1  0
  9 11  1  0
 12 13  2  0
 12 14  1  0
 13 15  1  0
 14 22  1  0
 14 16  2  0
 15 17  2  0
 16 17  1  0
 16 18  1  0
 17 19  1  0
 18 20  2  0
 19 21  2  0
 20 21  1  0
M  END
>  <vina_dock>  (461) 
-7.966

$$$$
O14757_PocketFlow_idx-in-all-generaetd-728
     RDKit          3D

 14 16  0  0  0  0  0  0  0  0999 V2000
    0.0070   -2.9130   41.9500 C   0  0  0  0  0  0  0  0  0  0  0  0
    0.8260   -3.5130   42.9070 C   0  0  0  0  0  0  0  0  0  0  0  0
    2.0980   -2.9880   43.1790 C   0  0  0  0  0  0  0  0  0  0  0  0
    0.4540   -1.7930   41.2550 C   0  0  0  0  0  0  0  0  0  0  0  0
    2.9870   -3.6560   44.2030 C   0  0  0  0  0  0  0  0  0  0  0  0
    4.3130   -2.9780   44.4630 C   0  0  0  0  0  0  0  0  0  0  0  0
    5.1860   -3.4920   45.4350 C   0  0  0  0  0  0  0  0  0  0  0  0
    1.7200   -1.2660   41.5190 C   0  0  0  0  0  0  0  0  0  0  0  0
    2.5400   -1.8450   42.4940 C   0  0  0  0  0  0  0  0  0  0  0  0
    6.4180   -2.8820   45.6680 C   0  0  0  0  0  0  0  0  0  0  0  0
    6.7910   -1.7620   44.9290 C   0  0  0  0  0  0  0  0  0  0  0  0
    5.9280   -1.2460   43.9600 C   0  0  0  0  0  0  0  0  0  0  0  0
    4.6800   -1.8350   43.7340 C   0  0  1  0  0  0  0  0  0  0  0  0
    3.8330   -1.3500   42.7260 N   0  0  0  0  0  0  0  0  0  0  0  0
  1  4  2  0
  1  2  1  0
  2  3  2  0
  3  9  1  0
  3  5  1  0
  4  8  1  0
  5  6  2  0
  6 13  1  0
  6  7  1  0
  7 10  2  0
  8  9  2  0
  9 14  1  0
 10 11  1  0
 11 12  2  0
 12 13  1  0
 13 14  1  6
M  END
>  <vina_dock>  (462) 
-8.031

$$$$
O14757_PocketFlow_idx-in-all-generaetd-669
     RDKit          3D

 25 26  0  0  0  0  0  0  0  0999 V2000
    2.7030   -4.6680   45.7450 C   0  0  0  0  0  0  0  0  0  0  0  0
    2.5720   -5.7760   44.6910 C   0  0  0  0  0  0  0  0  0  0  0  0
    1.1700   -6.3720   44.5180 C   0  0  0  0  0  0  0  0  0  0  0  0
    0.6830   -7.2540   45.6740 C   0  0  0  0  0  0  0  0  0  0  0  0
   -0.6840   -7.8560   45.4510 C   0  0  0  0  0  0  0  0  0  0  0  0
   -2.6800   -8.1130   44.1070 C   0  0  0  0  0  0  0  0  0  0  0  0
   -1.4210   -7.5470   44.2980 C   0  0  0  0  0  0  0  0  0  0  0  0
   -3.2210   -8.9830   45.0440 C   0  0  0  0  0  0  0  0  0  0  0  0
   -2.4980   -9.2940   46.1930 C   0  0  0  0  0  0  0  0  0  0  0  0
   -1.2350   -8.7330   46.3970 C   0  0  0  0  0  0  0  0  0  0  0  0
   -3.4210   -7.8350   42.9960 O   0  0  0  0  0  0  0  0  0  0  0  0
    4.0920   -4.5270   46.3800 C   0  0  0  0  0  0  0  0  0  0  0  0
    4.9500   -3.4590   45.7480 C   0  0  0  0  0  0  0  0  0  0  0  0
    6.2510   -3.2230   46.2090 C   0  0  0  0  0  0  0  0  0  0  0  0
    4.4560   -2.6860   44.6870 C   0  0  0  0  0  0  0  0  0  0  0  0
    7.0460   -2.2440   45.6130 C   0  0  0  0  0  0  0  0  0  0  0  0
    5.2470   -1.6960   44.0820 C   0  0  0  0  0  0  0  0  0  0  0  0
    6.5490   -1.4870   44.5530 C   0  0  0  0  0  0  0  0  0  0  0  0
    4.7040   -0.8850   42.9290 C   0  0  0  0  0  0  0  0  0  0  0  0
    3.4030   -1.4330   42.4100 C   0  0  0  0  0  0  0  0  0  0  0  0
    2.4230   -0.6730   41.8980 C   0  0  0  0  0  0  0  0  0  0  0  0
    1.1790   -1.2220   41.4090 C   0  0  0  0  0  0  0  0  0  0  0  0
    0.8430   -2.5120   41.5590 C   0  0  0  0  0  0  0  0  0  0  0  0
   -0.3990   -3.0610   41.0670 C   0  0  0  0  0  0  0  0  0  0  0  0
   -1.5640   -2.4060   41.1380 C   0  0  0  0  0  0  0  0  0  0  0  0
  1  2  1  0
  1 12  1  0
  2  3  1  0
  3  4  1  0
  4  5  1  0
  5  7  1  0
  5 10  2  0
  6 11  1  0
  6  7  2  0
  6  8  1  0
  8  9  2  0
  9 10  1  0
 12 13  1  0
 13 15  1  0
 13 14  2  0
 14 16  1  0
 15 17  2  0
 16 18  2  0
 17 19  1  0
 17 18  1  0
 19 20  1  0
 20 21  2  3
 21 22  1  0
 22 23  2  3
 23 24  1  0
 24 25  2  0
M  END
>  <vina_dock>  (463) 
-8.411

$$$$
O14757_PocketFlow_idx-in-all-generaetd-212
     RDKit          3D

 35 38  0  0  0  0  0  0  0  0999 V2000
    6.0740   -2.0630   44.9210 C   0  0  0  0  0  0  0  0  0  0  0  0
    6.7080   -1.1390   44.4360 O   0  0  0  0  0  0  0  0  0  0  0  0
    4.7240   -2.4710   44.4440 C   0  0  0  0  0  0  0  0  0  0  0  0
    2.3930   -1.3980   41.7700 C   0  0  0  0  0  0  0  0  0  0  0  0
    2.9070   -2.1180   42.8640 C   0  0  0  0  0  0  0  0  0  0  0  0
    1.1230   -1.6660   41.2700 C   0  0  0  0  0  0  0  0  0  0  0  0
    2.1420   -3.1470   43.4810 C   0  0  0  0  0  0  0  0  0  0  0  0
    4.1820   -1.8000   43.3480 C   0  0  0  0  0  0  0  0  0  0  0  0
    0.3610   -2.6530   41.8700 C   0  0  0  0  0  0  0  0  0  0  0  0
    0.8500   -3.3800   42.9530 C   0  0  0  0  0  0  0  0  0  0  0  0
    2.7090   -3.8600   44.5810 C   0  0  0  0  0  0  0  0  0  0  0  0
   -0.8660   -2.9140   41.4030 F   0  0  0  0  0  0  0  0  0  0  0  0
    3.9840   -3.4860   45.0570 C   0  0  0  0  0  0  0  0  0  0  0  0
    1.9780   -4.9770   45.3150 C   0  0  0  0  0  0  0  0  0  0  0  0
    2.4600   -6.4240   45.0310 C   0  0  1  0  0  0  0  0  0  0  0  0
    3.5260   -6.8210   46.0530 C   0  0  0  0  0  0  0  0  0  0  0  0
    1.3350   -7.4760   44.8540 C   0  0  0  0  0  0  0  0  0  0  0  0
    0.4150   -7.8990   46.0310 C   0  0  2  0  0  0  0  0  0  0  0  0
    1.0170   -9.0110   46.8930 C   0  0  0  0  0  0  0  0  0  0  0  0
   -1.0460   -8.1000   45.6390 C   0  0  0  0  0  0  0  0  0  0  0  0
   -1.9380   -8.6390   46.5850 C   0  0  0  0  0  0  0  0  0  0  0  0
   -1.5480   -7.8010   44.3630 C   0  0  0  0  0  0  0  0  0  0  0  0
   -3.2820   -8.8520   46.2740 C   0  0  0  0  0  0  0  0  0  0  0  0
   -2.8940   -8.0150   44.0510 C   0  0  0  0  0  0  0  0  0  0  0  0
   -3.7610   -8.5380   45.0060 C   0  0  0  0  0  0  0  0  0  0  0  0
    6.4900   -2.8610   45.9360 O   0  0  0  0  0  0  0  0  0  0  0  0
    7.8310   -2.6200   46.3900 C   0  0  0  0  0  0  0  0  0  0  0  0
    8.6360   -3.9190   46.4640 C   0  0  0  0  0  0  0  0  0  0  0  0
    9.1850   -4.1350   47.7620 O   0  0  0  0  0  0  0  0  0  0  0  0
    8.5640   -3.3230   48.7700 C   0  0  0  0  0  0  0  0  0  0  0  0
    7.6450   -4.1590   49.6780 C   0  0  1  0  0  0  0  0  0  0  0  0
    6.2870   -4.1290   49.1820 O   0  0  0  0  0  0  0  0  0  0  0  0
    7.9980   -5.6040   49.7620 C   0  0  0  0  0  0  0  0  0  0  0  0
    5.9360   -5.4550   48.7480 C   0  0  0  0  0  0  0  0  0  0  0  0
    7.0180   -6.3390   49.2390 C   0  0  0  0  0  0  0  0  0  0  0  0
  1  2  2  0
  1  3  1  0
  1 26  1  0
  3  8  1  0
  3 13  2  0
  4  6  2  0
  4  5  1  0
  5  8  2  0
  5  7  1  0
  6  9  1  0
  7 10  1  0
  7 11  2  0
  9 12  1  0
  9 10  2  0
 11 13  1  0
 11 14  1  0
 14 15  1  0
 15 17  1  0
 15 16  1  1
 17 18  1  0
 18 20  1  0
 18 19  1  6
 20 22  1  0
 20 21  2  0
 21 23  1  0
 22 24  2  0
 23 25  2  0
 24 25  1  0
 26 27  1  0
 27 28  1  0
 28 29  1  0
 29 30  1  0
 31 30  1  6
 31 32  1  0
 31 33  1  0
 32 34  1  0
 33 35  2  0
 34 35  1  0
M  END
>  <vina_dock>  (464) 
-8.81

$$$$
O14757_PocketFlow_idx-in-all-generaetd-226
     RDKit          3D

 18 19  0  0  0  0  0  0  0  0999 V2000
    0.8010   -5.1900   44.2410 C   0  0  0  0  0  0  0  0  0  0  0  0
    0.5790   -6.5060   44.3850 C   0  0  0  0  0  0  0  0  0  0  0  0
    2.0760   -4.5360   44.5670 C   0  0  0  0  0  0  0  0  0  0  0  0
    6.2040   -1.6110   44.8630 C   0  0  0  0  0  0  0  0  0  0  0  0
    5.5200   -1.1740   43.7350 C   0  0  0  0  0  0  0  0  0  0  0  0
    5.7080   -2.6520   45.6410 C   0  0  0  0  0  0  0  0  0  0  0  0
    4.3190   -1.7920   43.3800 C   0  0  0  0  0  0  0  0  0  0  0  0
    4.5010   -3.2810   45.2940 C   0  0  0  0  0  0  0  0  0  0  0  0
    3.7970   -2.8470   44.1480 C   0  0  0  0  0  0  0  0  0  0  0  0
    3.9760   -4.3280   46.0650 C   0  0  0  0  0  0  0  0  0  0  0  0
    2.5890   -3.4790   43.8030 C   0  0  0  0  0  0  0  0  0  0  0  0
    2.7740   -4.9450   45.7080 C   0  0  0  0  0  0  0  0  0  0  0  0
    7.3800   -1.0370   45.2470 O   0  0  0  0  0  0  0  0  0  0  0  0
   -0.6870   -7.1250   44.0630 C   0  0  0  0  0  0  0  0  0  0  0  0
   -1.5130   -7.6180   44.9990 C   0  0  0  0  0  0  0  0  0  0  0  0
   -2.8520   -8.2760   44.7850 C   0  0  0  0  0  0  0  0  0  0  0  0
   -3.2050   -9.5080   45.6260 C   0  0  0  0  0  0  0  0  0  0  0  0
   -2.0430  -10.0070   46.4760 C   0  0  0  0  0  0  0  0  0  0  0  0
  1  2  2  3
  1  3  1  0
  2 14  1  0
  3 11  2  0
  3 12  1  0
  4  5  2  0
  4 13  1  0
  4  6  1  0
  5  7  1  0
  6  8  2  0
  7  9  2  0
  8  9  1  0
  8 10  1  0
  9 11  1  0
 10 12  2  0
 14 15  2  3
 15 16  1  0
 16 17  1  0
 17 18  1  0
M  END
>  <vina_dock>  (465) 
-7.904

$$$$
O14757_PocketFlow_idx-in-all-generaetd-626
     RDKit          3D

 27 29  0  0  0  0  0  0  0  0999 V2000
    3.3690   -0.9470   42.4110 C   0  0  0  0  0  0  0  0  0  0  0  0
    4.0900    0.0050   43.1220 C   0  0  0  0  0  0  0  0  0  0  0  0
    3.5170   -2.2790   42.8020 C   0  0  0  0  0  0  0  0  0  0  0  0
    4.3770   -2.6070   43.8550 C   0  0  0  0  0  0  0  0  0  0  0  0
    5.0750   -1.5680   44.4930 C   0  0  0  0  0  0  0  0  0  0  0  0
    4.9290   -0.2760   44.1420 N   0  0  0  0  0  0  0  0  0  0  0  0
    2.4790   -0.5530   41.2630 C   0  0  0  0  0  0  0  0  0  0  0  0
    1.1380   -1.2510   41.2660 C   0  0  0  0  0  0  0  0  0  0  0  0
   -1.2950   -1.1550   41.2660 C   0  0  0  0  0  0  0  0  0  0  0  0
   -1.3510   -2.5520   41.2540 C   0  0  0  0  0  0  0  0  0  0  0  0
   -0.0540   -0.5080   41.2700 C   0  0  0  0  0  0  0  0  0  0  0  0
   -0.1720   -3.2980   41.2510 C   0  0  0  0  0  0  0  0  0  0  0  0
    1.0650   -2.6520   41.2560 C   0  0  0  0  0  0  0  0  0  0  0  0
   -2.5060   -0.3870   41.2790 C   0  0  0  0  0  0  0  0  0  0  0  0
   -3.4900    0.2260   41.2900 N   0  0  0  0  0  0  0  0  0  0  0  0
    4.5280   -4.0130   44.2510 C   0  0  0  0  0  0  0  0  0  0  0  0
    3.6020   -4.7290   44.9090 C   0  0  0  0  0  0  0  0  0  0  0  0
    2.2620   -4.2540   45.4010 C   0  0  0  0  0  0  0  0  0  0  0  0
    1.1870   -4.5200   44.3850 C   0  0  0  0  0  0  0  0  0  0  0  0
    0.2790   -5.5080   44.4080 C   0  0  0  0  0  0  0  0  0  0  0  0
    0.1940   -6.5520   45.4310 C   0  0  0  0  0  0  0  0  0  0  0  0
   -0.7800   -6.4720   46.4290 C   0  0  0  0  0  0  0  0  0  0  0  0
    1.0740   -7.6410   45.4160 C   0  0  0  0  0  0  0  0  0  0  0  0
   -0.8690   -7.4640   47.4090 C   0  0  0  0  0  0  0  0  0  0  0  0
    0.9830   -8.6350   46.3930 C   0  0  0  0  0  0  0  0  0  0  0  0
    0.0120   -8.5450   47.3910 C   0  0  0  0  0  0  0  0  0  0  0  0
    5.9950   -1.8380   45.5220 N   0  0  0  0  0  0  0  0  0  0  0  0
  1  7  1  0
  1  3  1  0
  1  2  2  0
  2  6  1  0
  3  4  2  0
  4 16  1  0
  4  5  1  0
  5  6  2  0
  5 27  1  0
  7  8  1  0
  8 13  1  0
  8 11  2  0
  9 10  2  0
  9 11  1  0
  9 14  1  0
 10 12  1  0
 12 13  2  0
 14 15  3  0
 16 17  2  3
 17 18  1  0
 18 19  1  0
 19 20  2  3
 20 21  1  0
 21 23  1  0
 21 22  2  0
 22 24  1  0
 23 25  2  0
 24 26  2  0
 25 26  1  0
M  END
>  <vina_dock>  (466) 
-8.433

$$$$
O14757_PocketFlow_idx-in-all-generaetd-861
     RDKit          3D

 31 35  0  0  0  0  0  0  0  0999 V2000
    4.7640   -2.0360   43.6940 C   0  0  0  0  0  0  0  0  0  0  0  0
    5.0390   -1.6240   42.5720 O   0  0  0  0  0  0  0  0  0  0  0  0
    5.6510   -2.0130   44.7450 N   0  0  0  0  0  0  0  0  0  0  0  0
    3.4090   -2.6320   44.0420 C   0  0  2  0  0  0  0  0  0  0  0  0
    0.0040   -8.7640   46.2840 C   0  0  0  0  0  0  0  0  0  0  0  0
    0.0200  -10.0920   47.0010 C   0  0  0  0  0  0  0  0  0  0  0  0
    1.1890   -8.0290   46.1540 C   0  0  0  0  0  0  0  0  0  0  0  0
   -1.1920   -8.2780   45.7230 C   0  0  0  0  0  0  0  0  0  0  0  0
   -1.3860  -10.4950   47.4490 C   0  0  2  0  0  0  0  0  0  0  0  0
    1.1840   -6.8060   45.4760 C   0  0  0  0  0  0  0  0  0  0  0  0
   -2.4970   -9.0410   45.9190 C   0  0  2  0  0  0  0  0  0  0  0  0
   -1.1690   -7.0380   45.0550 C   0  0  0  0  0  0  0  0  0  0  0  0
   -2.3000  -10.3870   46.3690 O   0  0  0  0  0  0  0  0  0  0  0  0
    2.4080   -5.9830   45.4050 C   0  0  0  0  0  0  0  0  0  0  0  0
    0.0210   -6.3180   44.8820 C   0  0  0  0  0  0  0  0  0  0  0  0
   -3.3360   -9.1480   44.6470 C   0  0  0  0  0  0  0  0  0  0  0  0
    3.4360   -6.3720   45.9570 O   0  0  0  0  0  0  0  0  0  0  0  0
    2.3150   -4.7740   44.7100 N   0  0  0  0  0  0  0  0  0  0  0  0
   -0.0020   -5.0640   44.2540 N   0  0  0  0  0  0  0  0  0  0  0  0
    3.5830   -4.0910   44.4550 C   0  0  0  0  0  0  0  0  0  0  0  0
    1.2760   -4.6340   43.7070 C   0  0  1  0  0  0  0  0  0  0  0  0
    1.1060   -3.1800   43.2410 C   0  0  0  0  0  0  0  0  0  0  0  0
    2.4380   -2.5440   42.8620 C   0  0  0  0  0  0  0  0  0  0  0  0
   -1.8270   -9.7840   48.5980 O   0  0  0  0  0  0  0  0  0  0  0  0
    6.9920   -1.4870   44.6140 C   0  0  0  0  0  0  0  0  0  0  0  0
    7.8670   -1.9720   45.7400 C   0  0  0  0  0  0  0  0  0  0  0  0
    7.8040   -3.3140   46.1510 C   0  0  0  0  0  0  0  0  0  0  0  0
    8.7470   -1.1010   46.3990 C   0  0  0  0  0  0  0  0  0  0  0  0
    8.6020   -3.7730   47.2000 C   0  0  0  0  0  0  0  0  0  0  0  0
    9.5440   -1.5640   47.4480 C   0  0  0  0  0  0  0  0  0  0  0  0
    9.4710   -2.8960   47.8490 C   0  0  0  0  0  0  0  0  0  0  0  0
  1  2  2  0
  4  1  1  6
  1  3  1  0
  3 25  1  0
  4 23  1  0
  4 20  1  0
  5  8  2  0
  5  7  1  0
  5  6  1  0
  6  9  1  0
  7 10  2  0
  8 12  1  0
  8 11  1  0
  9 13  1  0
  9 24  1  1
 10 15  1  0
 10 14  1  0
 11 16  1  6
 11 13  1  0
 12 15  2  0
 14 18  1  0
 14 17  2  0
 15 19  1  0
 18 21  1  0
 18 20  1  0
 19 21  1  0
 21 22  1  1
 22 23  1  0
 25 26  1  0
 26 27  2  0
 26 28  1  0
 27 29  1  0
 28 30  2  0
 29 31  2  0
 30 31  1  0
M  END
>  <vina_dock>  (467) 
-9.636

$$$$
O14757_PocketFlow_idx-in-all-generaetd-921
     RDKit          3D

 23 25  0  0  0  0  0  0  0  0999 V2000
    2.3740   -1.8910   43.1660 C   0  0  2  0  0  0  0  0  0  0  0  0
    3.7770   -1.3680   42.7450 C   0  0  0  0  0  0  0  0  0  0  0  0
    4.8780   -1.7270   43.6490 N   0  0  0  0  0  0  0  0  0  0  0  0
    4.9800   -3.1890   43.7300 C   0  0  0  0  0  0  0  0  0  0  0  0
    3.6790   -3.8970   44.0390 C   0  0  0  0  0  0  0  0  0  0  0  0
    2.4360   -3.3040   43.7500 C   0  0  0  0  0  0  0  0  0  0  0  0
    3.7240   -5.1910   44.5850 C   0  0  0  0  0  0  0  0  0  0  0  0
    2.5530   -5.8960   44.8960 C   0  0  0  0  0  0  0  0  0  0  0  0
    2.6000   -7.1870   45.4490 C   0  0  0  0  0  0  0  0  0  0  0  0
    1.4200   -7.8730   45.7630 C   0  0  0  0  0  0  0  0  0  0  0  0
    0.1840   -7.2670   45.5240 C   0  0  0  0  0  0  0  0  0  0  0  0
    0.1270   -5.9850   44.9740 C   0  0  0  0  0  0  0  0  0  0  0  0
    1.3040   -5.2890   44.6520 C   0  0  0  0  0  0  0  0  0  0  0  0
    1.2620   -4.0010   44.0930 C   0  0  0  0  0  0  0  0  0  0  0  0
    4.7600   -1.1070   44.9660 C   0  0  0  0  0  0  0  0  0  0  0  0
    1.3120   -1.7050   42.0270 C   0  0  1  0  0  0  0  0  0  0  0  0
    1.4970   -0.3520   41.3260 C   0  0  0  0  0  0  0  0  0  0  0  0
    1.2910   -2.8820   41.0190 C   0  0  0  0  0  0  0  0  0  0  0  0
   -0.0810   -3.5520   40.8540 C   0  0  0  0  0  0  0  0  0  0  0  0
   -1.2430   -2.6440   41.2280 C   0  0  0  0  0  0  0  0  0  0  0  0
    1.4330   -9.2350   46.3490 C   0  0  0  0  0  0  0  0  0  0  0  0
    0.7150   -9.6310   47.2490 O   0  0  0  0  0  0  0  0  0  0  0  0
    2.3460  -10.0420   45.7800 O   0  0  0  0  0  0  0  0  0  0  0  0
  1 16  1  0
  1  2  1  6
  1  6  1  0
  2  3  1  0
  3  4  1  0
  3 15  1  0
  4  5  1  0
  5  6  2  0
  5  7  1  0
  6 14  1  0
  7  8  2  0
  8 13  1  0
  8  9  1  0
  9 10  2  0
 10 11  1  0
 10 21  1  0
 11 12  2  0
 12 13  1  0
 13 14  2  0
 16 18  1  0
 16 17  1  6
 18 19  1  0
 19 20  1  0
 21 23  1  0
 21 22  2  0
M  END
>  <vina_dock>  (468) 
-8.195

$$$$
O14757_PocketFlow_idx-in-all-generaetd-525
     RDKit          3D

 35 40  0  0  0  0  0  0  0  0999 V2000
   10.4370   -3.3780   48.5550 C   0  0  0  0  0  0  0  0  0  0  0  0
    9.5080   -4.3550   48.8750 C   0  0  0  0  0  0  0  0  0  0  0  0
   10.0770   -2.4810   47.5540 C   0  0  0  0  0  0  0  0  0  0  0  0
    8.8230   -2.5950   46.9290 C   0  0  0  0  0  0  0  0  0  0  0  0
    8.4130   -1.7160   45.9200 C   0  0  0  0  0  0  0  0  0  0  0  0
    7.1770   -1.8490   45.3210 C   0  0  0  0  0  0  0  0  0  0  0  0
    6.3570   -2.8990   45.7670 C   0  0  0  0  0  0  0  0  0  0  0  0
    5.0960   -3.0230   45.1480 C   0  0  0  0  0  0  0  0  0  0  0  0
    8.2940   -4.4790   48.2780 N   0  0  0  0  0  0  0  0  0  0  0  0
    7.9500   -3.6170   47.3230 C   0  0  0  0  0  0  0  0  0  0  0  0
    6.7570   -3.7500   46.7470 N   0  0  0  0  0  0  0  0  0  0  0  0
    4.6940   -2.1400   44.1230 C   0  0  0  0  0  0  0  0  0  0  0  0
    3.4160   -2.3010   43.5020 C   0  0  0  0  0  0  0  0  0  0  0  0
    2.5080   -3.3010   43.9400 C   0  0  0  0  0  0  0  0  0  0  0  0
    1.2000   -3.4530   43.3940 C   0  0  0  0  0  0  0  0  0  0  0  0
    0.3550   -4.4560   43.9030 C   0  0  0  0  0  0  0  0  0  0  0  0
    0.7850   -5.3240   44.9100 C   0  0  0  0  0  0  0  0  0  0  0  0
    2.0690   -5.1810   45.4370 C   0  0  0  0  0  0  0  0  0  0  0  0
    2.9260   -4.1740   44.9700 C   0  0  0  0  0  0  0  0  0  0  0  0
    4.1980   -4.0320   45.5390 C   0  0  0  0  0  0  0  0  0  0  0  0
    6.8320   -0.9790   44.3630 N   0  0  0  0  0  0  0  0  0  0  0  0
    5.6160   -1.1390   43.7950 C   0  0  0  0  0  0  0  0  0  0  0  0
    2.9850   -1.3770   42.3820 C   0  0  0  0  0  0  0  0  0  0  0  0
    0.7130   -2.4800   42.3160 C   0  0  1  0  0  0  0  0  0  0  0  0
    1.9230   -2.0110   41.4920 C   0  0  0  0  0  0  0  0  0  0  0  0
   11.7060   -3.2370   49.1500 N   0  0  0  0  0  0  0  0  0  0  0  0
   12.9020   -3.1160   48.5000 C   0  0  0  0  0  0  0  0  0  0  0  0
   13.6360   -2.1400   48.4520 O   0  0  0  0  0  0  0  0  0  0  0  0
   13.2430   -4.2590   47.8400 N   0  0  0  0  0  0  0  0  0  0  0  0
   -0.1490   -6.3720   45.3900 C   0  0  0  0  0  0  0  0  0  0  0  0
   -0.2020   -7.5220   44.9980 O   0  0  0  0  0  0  0  0  0  0  0  0
   -0.9810   -5.9280   46.3500 O   0  0  0  0  0  0  0  0  0  0  0  0
   -0.3510   -3.0200   41.3180 C   0  0  0  0  0  0  0  0  0  0  0  0
   -1.7310   -2.5610   41.5400 N   0  0  0  0  0  0  0  0  0  0  0  0
   -1.9080   -1.1430   41.2600 C   0  0  0  0  0  0  0  0  0  0  0  0
  1  3  1  0
  1  2  2  0
  1 26  1  0
  2  9  1  0
  3  4  1  0
  4  5  2  0
  4 10  1  0
  5  6  1  0
  6 21  2  0
  6  7  1  0
  7  8  2  0
  7 11  1  0
  8 12  1  0
  8 20  1  0
  9 10  2  0
 10 11  1  0
 12 13  1  0
 12 22  2  0
 13 23  1  0
 13 14  2  0
 14 15  1  0
 14 19  1  0
 15 24  1  0
 15 16  2  0
 16 17  1  0
 17 30  1  0
 17 18  2  0
 18 19  1  0
 19 20  2  0
 21 22  1  0
 23 25  1  0
 24 33  1  6
 24 25  1  0
 26 27  1  0
 27 29  1  0
 27 28  2  0
 30 31  2  0
 30 32  1  0
 33 34  1  0
 34 35  1  0
M  END
>  <vina_dock>  (469) 
-9.987

$$$$
O14757_PocketFlow_idx-in-all-generaetd-78
     RDKit          3D

 35 40  0  0  0  0  0  0  0  0999 V2000
    8.8070   -6.1920   47.9080 C   0  0  0  0  0  0  0  0  0  0  0  0
    8.7170   -5.1220   46.9160 N   0  0  0  0  0  0  0  0  0  0  0  0
    9.3200   -3.8820   47.3760 C   0  0  1  0  0  0  0  0  0  0  0  0
   10.4430   -3.5240   46.4810 N   0  0  0  0  0  0  0  0  0  0  0  0
   10.4990   -2.2260   46.5260 C   0  0  0  0  0  0  0  0  0  0  0  0
    8.4070   -2.6290   47.4570 C   0  0  1  0  0  0  0  0  0  0  0  0
    9.4440   -1.5080   47.3600 C   0  0  1  0  0  0  0  0  0  0  0  0
   11.4630   -1.5250   45.8570 N   0  0  0  0  0  0  0  0  0  0  0  0
    7.3210   -2.4180   46.4050 C   0  0  0  0  0  0  0  0  0  0  0  0
    7.5740   -1.5360   45.3430 C   0  0  0  0  0  0  0  0  0  0  0  0
    6.0950   -3.1000   46.4220 C   0  0  0  0  0  0  0  0  0  0  0  0
    6.6260   -1.3340   44.3370 C   0  0  0  0  0  0  0  0  0  0  0  0
    5.1280   -2.9040   45.4190 C   0  0  0  0  0  0  0  0  0  0  0  0
    5.3980   -2.0120   44.3610 C   0  0  0  0  0  0  0  0  0  0  0  0
    3.8960   -3.5780   45.4500 C   0  0  0  0  0  0  0  0  0  0  0  0
    4.4340   -1.8210   43.3580 C   0  0  0  0  0  0  0  0  0  0  0  0
    2.9290   -3.3850   44.4500 C   0  0  0  0  0  0  0  0  0  0  0  0
    3.2020   -2.4960   43.3880 C   0  0  0  0  0  0  0  0  0  0  0  0
    1.6950   -4.0560   44.4840 C   0  0  0  0  0  0  0  0  0  0  0  0
    2.2350   -2.3040   42.3880 C   0  0  0  0  0  0  0  0  0  0  0  0
    0.7450   -3.8540   43.4830 C   0  0  0  0  0  0  0  0  0  0  0  0
    1.0140   -2.9780   42.4360 C   0  0  0  0  0  0  0  0  0  0  0  0
   10.0420   -1.1310   48.6500 N   0  0  0  0  0  0  0  0  0  0  0  0
    7.6620   -6.0950   48.9450 C   0  0  2  0  0  0  0  0  0  0  0  0
    7.8810   -7.0920   50.0930 C   0  0  0  0  0  0  0  0  0  0  0  0
    6.2610   -6.2800   48.3170 C   0  0  0  0  0  0  0  0  0  0  0  0
    7.7520   -8.5510   49.6580 C   0  0  0  0  0  0  0  0  0  0  0  0
    5.6300   -7.6670   48.5700 C   0  0  2  0  0  0  0  0  0  0  0  0
    6.6880   -8.7790   48.5820 C   0  0  0  0  0  0  0  0  0  0  0  0
    4.5040   -7.9480   47.5870 C   0  0  0  0  0  0  0  0  0  0  0  0
    3.8210   -9.1740   47.5810 C   0  0  0  0  0  0  0  0  0  0  0  0
    4.1390   -6.9730   46.6470 C   0  0  0  0  0  0  0  0  0  0  0  0
    2.7950   -9.4150   46.6640 C   0  0  0  0  0  0  0  0  0  0  0  0
    3.1120   -7.2150   45.7300 C   0  0  0  0  0  0  0  0  0  0  0  0
    2.4400   -8.4350   45.7390 C   0  0  0  0  0  0  0  0  0  0  0  0
  1  2  1  0
 24  1  1  6
  3  2  1  6
  3  4  1  0
  3  6  1  0
  4  5  1  0
  5  8  1  0
  5  7  1  0
  6  9  1  6
  6  7  1  0
  7 23  1  1
  9 10  2  0
  9 11  1  0
 10 12  1  0
 11 13  2  0
 12 14  2  0
 13 14  1  0
 13 15  1  0
 14 16  1  0
 15 17  2  0
 16 18  2  0
 17 18  1  0
 17 19  1  0
 18 20  1  0
 19 21  2  0
 20 22  2  0
 21 22  1  0
 24 26  1  0
 24 25  1  0
 25 27  1  0
 26 28  1  0
 27 29  1  0
 28 30  1  6
 28 29  1  0
 30 32  1  0
 30 31  2  0
 31 33  1  0
 32 34  2  0
 33 35  2  0
 34 35  1  0
M  END
>  <vina_dock>  (470) 
-9.239

$$$$
O14757_PocketFlow_idx-in-all-generaetd-267
     RDKit          3D

 35 38  0  0  0  0  0  0  0  0999 V2000
    0.2770   -5.6640   44.7310 C   0  0  0  0  0  0  0  0  0  0  0  0
   -0.3160   -6.6160   43.8870 C   0  0  0  0  0  0  0  0  0  0  0  0
   -1.1650   -7.6050   44.3950 C   0  0  0  0  0  0  0  0  0  0  0  0
   -1.4450   -7.6620   45.7640 C   0  0  0  0  0  0  0  0  0  0  0  0
   -0.8550   -6.7230   46.6160 C   0  0  0  0  0  0  0  0  0  0  0  0
   -0.0070   -5.7360   46.1030 C   0  0  0  0  0  0  0  0  0  0  0  0
    1.1700   -4.6220   44.1970 C   0  0  0  0  0  0  0  0  0  0  0  0
    3.3410   -3.4690   44.2140 C   0  0  0  0  0  0  0  0  0  0  0  0
    2.4800   -4.4740   44.6880 C   0  0  0  0  0  0  0  0  0  0  0  0
    2.8750   -2.6050   43.2140 C   0  0  0  0  0  0  0  0  0  0  0  0
    1.5820   -2.7400   42.7090 C   0  0  0  0  0  0  0  0  0  0  0  0
    0.7390   -3.7390   43.1970 C   0  0  0  0  0  0  0  0  0  0  0  0
    4.7610   -3.3250   44.7370 C   0  0  2  0  0  0  0  0  0  0  0  0
    7.8800   -4.1430   48.4400 C   0  0  0  0  0  0  0  0  0  0  0  0
    6.5880   -4.2390   47.9130 C   0  0  0  0  0  0  0  0  0  0  0  0
    8.8460   -3.3290   47.8460 C   0  0  0  0  0  0  0  0  0  0  0  0
    6.2220   -3.5060   46.7800 C   0  0  0  0  0  0  0  0  0  0  0  0
    8.4490   -2.5540   46.7460 C   0  0  0  0  0  0  0  0  0  0  0  0
    4.8160   -3.6010   46.2440 C   0  0  0  0  0  0  0  0  0  0  0  0
    7.1550   -2.6380   46.2000 C   0  0  0  0  0  0  0  0  0  0  0  0
    6.8110   -1.7760   45.0110 C   0  0  0  0  0  0  0  0  0  0  0  0
    5.4080   -1.9690   44.4720 C   0  0  0  0  0  0  0  0  0  0  0  0
    4.8940   -1.0920   43.7740 O   0  0  0  0  0  0  0  0  0  0  0  0
   10.1300   -3.1380   48.3660 N   0  0  0  0  0  0  0  0  0  0  0  0
   10.6670   -1.7870   48.4830 C   0  0  0  0  0  0  0  0  0  0  0  0
   10.0890   -1.1160   49.7190 C   0  0  0  0  0  0  0  0  0  0  0  0
   -2.3490   -8.7360   46.3200 C   0  0  0  0  0  0  0  0  0  0  0  0
   -1.5540   -9.9500   46.8100 C   0  0  0  0  0  0  0  0  0  0  0  0
   -1.5940  -10.0560   48.3100 C   0  0  0  0  0  0  0  0  0  0  0  0
   -0.6100   -9.8010   49.1870 C   0  0  0  0  0  0  0  0  0  0  0  0
    0.7230   -9.3370   48.8730 C   0  0  0  0  0  0  0  0  0  0  0  0
    1.6670  -10.1410   48.3590 C   0  0  0  0  0  0  0  0  0  0  0  0
    2.9990   -9.6770   48.0400 C   0  0  0  0  0  0  0  0  0  0  0  0
    3.3510   -8.9220   46.9880 C   0  0  0  0  0  0  0  0  0  0  0  0
    2.4860   -8.4000   45.8860 C   0  0  0  0  0  0  0  0  0  0  0  0
  1  2  2  0
  1  7  1  0
  1  6  1  0
  2  3  1  0
  3  4  2  0
  4 27  1  0
  4  5  1  0
  5  6  2  0
  7 12  1  0
  7  9  2  0
  8 10  2  0
  8  9  1  0
 13  8  1  1
 10 11  1  0
 11 12  2  0
 13 22  1  0
 13 19  1  0
 14 16  2  0
 14 15  1  0
 15 17  2  0
 16 18  1  0
 16 24  1  0
 17 20  1  0
 17 19  1  0
 18 20  2  0
 20 21  1  0
 21 22  1  0
 22 23  2  0
 24 25  1  0
 25 26  1  0
 27 28  1  0
 28 29  1  0
 29 30  2  3
 30 31  1  0
 31 32  2  3
 32 33  1  0
 33 34  2  3
 34 35  1  0
M  END
>  <vina_dock>  (471) 
-9.283

$$$$
O14757_PocketFlow_idx-in-all-generaetd-878
     RDKit          3D

 26 29  0  0  0  0  0  0  0  0999 V2000
    8.4960   -3.8140   48.1060 C   0  0  1  0  0  0  0  0  0  0  0  0
    9.4130   -4.9520   47.6370 C   0  0  0  0  0  0  0  0  0  0  0  0
   10.1840   -4.5920   46.3740 C   0  0  0  0  0  0  0  0  0  0  0  0
   10.9550   -3.3150   46.5610 C   0  0  0  0  0  0  0  0  0  0  0  0
   12.1150   -3.0920   45.8070 C   0  0  0  0  0  0  0  0  0  0  0  0
   12.8380   -1.9050   45.9500 C   0  0  0  0  0  0  0  0  0  0  0  0
   12.4040   -0.9190   46.8420 C   0  0  0  0  0  0  0  0  0  0  0  0
   11.2390   -1.1260   47.5880 C   0  0  0  0  0  0  0  0  0  0  0  0
   10.5150   -2.3180   47.4460 C   0  0  0  0  0  0  0  0  0  0  0  0
    9.2570   -2.4960   48.2270 C   0  0  0  0  0  0  0  0  0  0  0  0
    8.8380   -1.5670   48.9150 O   0  0  0  0  0  0  0  0  0  0  0  0
    7.2140   -3.7190   47.2800 C   0  0  0  0  0  0  0  0  0  0  0  0
    3.6810   -2.5750   43.8060 C   0  0  0  0  0  0  0  0  0  0  0  0
    2.5750   -2.4940   43.0530 F   0  0  0  0  0  0  0  0  0  0  0  0
    3.7110   -3.4500   44.8850 C   0  0  0  0  0  0  0  0  0  0  0  0
    4.7770   -1.7850   43.4940 C   0  0  0  0  0  0  0  0  0  0  0  0
    4.8630   -3.5450   45.6810 C   0  0  0  0  0  0  0  0  0  0  0  0
    5.9280   -1.8700   44.2760 C   0  0  0  0  0  0  0  0  0  0  0  0
    4.9240   -4.4150   46.7760 C   0  0  0  0  0  0  0  0  0  0  0  0
    5.9860   -2.7480   45.3730 C   0  0  0  0  0  0  0  0  0  0  0  0
    6.0810   -4.5040   47.5640 C   0  0  0  0  0  0  0  0  0  0  0  0
    7.1390   -2.8480   46.1720 C   0  0  0  0  0  0  0  0  0  0  0  0
    6.0170   -5.7390   49.0110 Br  0  0  0  0  0  0  0  0  0  0  0  0
   13.1400    0.3550   47.0230 C   0  0  0  0  0  0  0  0  0  0  0  0
   14.2240    0.4830   47.5600 O   0  0  0  0  0  0  0  0  0  0  0  0
   12.4800    1.4130   46.5210 O   0  0  0  0  0  0  0  0  0  0  0  0
  1 12  1  6
  1  2  1  0
  1 10  1  0
  2  3  1  0
  3  4  1  0
  4  5  2  0
  4  9  1  0
  5  6  1  0
  6  7  2  0
  7 24  1  0
  7  8  1  0
  8  9  2  0
  9 10  1  0
 10 11  2  0
 12 22  2  0
 12 21  1  0
 13 14  1  0
 13 16  2  0
 13 15  1  0
 15 17  2  0
 16 18  1  0
 17 20  1  0
 17 19  1  0
 18 20  2  0
 19 21  2  0
 20 22  1  0
 21 23  1  0
 24 26  1  0
 24 25  2  0
M  END
>  <vina_dock>  (472) 
-7.588

$$$$
O14757_PocketFlow_idx-in-all-generaetd-737
     RDKit          3D

  9  9  0  0  0  0  0  0  0  0999 V2000
    2.0460   -2.6240   42.6390 C   0  0  0  0  0  0  0  0  0  0  0  0
    3.3880   -2.2700   43.2340 C   0  0  0  0  0  0  0  0  0  0  0  0
    5.3020   -0.7820   43.3910 C   0  0  0  0  0  0  0  0  0  0  0  0
    5.8680   -1.6030   44.3640 C   0  0  0  0  0  0  0  0  0  0  0  0
    4.0660   -1.1120   42.8290 C   0  0  0  0  0  0  0  0  0  0  0  0
    5.1980   -2.7530   44.7810 C   0  0  0  0  0  0  0  0  0  0  0  0
    3.9640   -3.0840   44.2200 C   0  0  0  0  0  0  0  0  0  0  0  0
    1.6650   -1.7120   41.5070 C   0  0  0  0  0  0  0  0  0  0  0  0
    0.6660   -0.8210   41.5560 C   0  0  0  0  0  0  0  0  0  0  0  0
  1  8  1  0
  1  2  1  0
  2  5  2  0
  2  7  1  0
  3  5  1  0
  3  4  2  0
  4  6  1  0
  6  7  2  0
  8  9  2  0
M  END
>  <vina_dock>  (473) 
-5.385

$$$$
O14757_PocketFlow_idx-in-all-generaetd-893
     RDKit          3D

 18 19  0  0  0  0  0  0  0  0999 V2000
    6.2640   -3.2640   46.4690 C   0  0  0  0  0  0  0  0  0  0  0  0
    7.2660   -2.3890   46.0400 C   0  0  0  0  0  0  0  0  0  0  0  0
    7.0590   -1.5890   44.9190 C   0  0  0  0  0  0  0  0  0  0  0  0
    5.8480   -1.6590   44.2250 C   0  0  0  0  0  0  0  0  0  0  0  0
    4.8240   -2.5300   44.6370 C   0  0  0  0  0  0  0  0  0  0  0  0
    5.0500   -3.3310   45.7700 C   0  0  0  0  0  0  0  0  0  0  0  0
    6.5270   -4.0970   47.6680 C   0  0  0  0  0  0  0  0  0  0  0  0
    5.9330   -4.0270   48.7280 O   0  0  0  0  0  0  0  0  0  0  0  0
    7.5260   -4.9780   47.4850 O   0  0  0  0  0  0  0  0  0  0  0  0
    3.5500   -2.5990   43.9020 C   0  0  0  0  0  0  0  0  0  0  0  0
    3.3180   -1.7880   42.7780 C   0  0  0  0  0  0  0  0  0  0  0  0
    2.5290   -3.4780   44.3020 C   0  0  0  0  0  0  0  0  0  0  0  0
    2.1080   -1.8500   42.0760 C   0  0  0  0  0  0  0  0  0  0  0  0
    1.3190   -3.5450   43.6050 C   0  0  0  0  0  0  0  0  0  0  0  0
    1.1030   -2.7310   42.4890 C   0  0  0  0  0  0  0  0  0  0  0  0
   -0.1960   -2.8340   41.7810 C   0  0  0  0  0  0  0  0  0  0  0  0
   -1.0000   -1.9340   41.6320 O   0  0  0  0  0  0  0  0  0  0  0  0
   -0.4270   -4.0660   41.2910 O   0  0  0  0  0  0  0  0  0  0  0  0
  1  6  2  0
  1  2  1  0
  1  7  1  0
  2  3  2  0
  3  4  1  0
  4  5  2  0
  5 10  1  0
  5  6  1  0
  7  9  1  0
  7  8  2  0
 10 11  2  0
 10 12  1  0
 11 13  1  0
 12 14  2  0
 13 15  2  0
 14 15  1  0
 15 16  1  0
 16 18  1  0
 16 17  2  0
M  END
>  <vina_dock>  (474) 
-8.137

$$$$
O14757_PocketFlow_idx-in-all-generaetd-754
     RDKit          3D

 35 38  0  0  0  0  0  0  0  0999 V2000
    6.1990   -1.1440   44.4090 C   0  0  0  0  0  0  0  0  0  0  0  0
    7.1130   -1.8750   45.0690 C   0  0  0  0  0  0  0  0  0  0  0  0
    5.0600   -1.7400   43.6240 C   0  0  0  0  0  0  0  0  0  0  0  0
    4.2630   -0.6950   42.8330 C   0  0  0  0  0  0  0  0  0  0  0  0
    2.8940   -1.1830   42.4200 C   0  0  0  0  0  0  0  0  0  0  0  0
    1.1480   -2.8910   42.4730 C   0  0  0  0  0  0  0  0  0  0  0  0
    0.3050   -2.0640   41.7060 C   0  0  0  0  0  0  0  0  0  0  0  0
    2.4300   -2.4400   42.8270 C   0  0  0  0  0  0  0  0  0  0  0  0
   -1.0780   -2.4920   41.2990 C   0  0  0  0  0  0  0  0  0  0  0  0
    0.7790   -0.8100   41.2920 C   0  0  0  0  0  0  0  0  0  0  0  0
    2.0550   -0.3720   41.6490 C   0  0  0  0  0  0  0  0  0  0  0  0
    0.7420   -4.2220   42.9430 C   0  0  0  0  0  0  0  0  0  0  0  0
    1.0160   -4.6450   44.1860 C   0  0  0  0  0  0  0  0  0  0  0  0
    0.6630   -5.9860   44.7700 C   0  0  0  0  0  0  0  0  0  0  0  0
   -0.3790   -6.8400   44.0700 C   0  0  0  0  0  0  0  0  0  0  0  0
    0.0090   -5.9030   46.1390 C   0  0  0  0  0  0  0  0  0  0  0  0
   -0.8930   -7.7090   45.1430 N   0  0  0  0  0  0  0  0  0  0  0  0
   -0.6860   -7.1950   46.2730 N   0  0  0  0  0  0  0  0  0  0  0  0
    8.2550   -1.2820   45.8480 C   0  0  0  0  0  0  0  0  0  0  0  0
    9.2220   -2.3420   46.4120 C   0  0  2  0  0  0  0  0  0  0  0  0
    8.9630   -2.5580   47.9130 C   0  0  0  0  0  0  0  0  0  0  0  0
   10.6970   -1.9940   46.1270 C   0  0  0  0  0  0  0  0  0  0  0  0
    9.8660   -3.6510   48.4460 C   0  0  0  0  0  0  0  0  0  0  0  0
   11.7010   -2.4760   47.1790 C   0  0  0  0  0  0  0  0  0  0  0  0
    9.4240   -4.6500   49.3460 C   0  0  0  0  0  0  0  0  0  0  0  0
   11.2140   -3.6190   48.0290 C   0  0  0  0  0  0  0  0  0  0  0  0
   10.3490   -5.6250   49.7600 C   0  0  0  0  0  0  0  0  0  0  0  0
   12.1120   -4.5890   48.4800 C   0  0  0  0  0  0  0  0  0  0  0  0
   11.6770   -5.5960   49.3320 C   0  0  0  0  0  0  0  0  0  0  0  0
    7.9820   -4.6730   49.8260 C   0  0  0  0  0  0  0  0  0  0  0  0
    7.0460   -5.6190   49.1210 C   0  0  0  0  0  0  0  0  0  0  0  0
    6.0650   -5.3220   48.2500 C   0  0  0  0  0  0  0  0  0  0  0  0
    5.6600   -3.9920   47.8590 C   0  0  0  0  0  0  0  0  0  0  0  0
    4.8140   -3.6750   46.8660 C   0  0  0  0  0  0  0  0  0  0  0  0
    4.0990   -4.5840   45.9180 C   0  0  0  0  0  0  0  0  0  0  0  0
  1  3  1  0
  1  2  2  3
  2 19  1  0
  3  4  1  0
  4  5  1  0
  5 11  1  0
  5  8  2  0
  6  7  2  0
  6  8  1  0
  6 12  1  0
  7 10  1  0
  7  9  1  0
 10 11  2  0
 12 13  2  3
 13 14  1  0
 14 15  1  0
 14 16  1  0
 15 17  1  0
 16 18  1  0
 17 18  1  0
 20 19  1  1
 20 22  1  0
 20 21  1  0
 21 23  1  0
 22 24  1  0
 23 26  2  0
 23 25  1  0
 24 26  1  0
 25 27  2  0
 25 30  1  0
 26 28  1  0
 27 29  1  0
 28 29  2  0
 30 31  1  0
 31 32  2  3
 32 33  1  0
 33 34  2  3
 34 35  1  0
M  END
>  <vina_dock>  (475) 
-8.739

$$$$
O14757_PocketFlow_idx-in-all-generaetd-703
     RDKit          3D

 29 32  0  0  0  0  0  0  0  0999 V2000
   -0.6800   -7.4920   45.1810 C   0  0  0  0  0  0  0  0  0  0  0  0
   -1.5590   -7.4750   44.0870 C   0  0  0  0  0  0  0  0  0  0  0  0
   -2.7000   -8.2810   44.0780 C   0  0  0  0  0  0  0  0  0  0  0  0
   -2.9900   -9.1170   45.1520 C   0  0  0  0  0  0  0  0  0  0  0  0
   -2.1260   -9.1470   46.2510 C   0  0  0  0  0  0  0  0  0  0  0  0
   -0.9790   -8.3380   46.2610 C   0  0  0  0  0  0  0  0  0  0  0  0
   -3.7610   -8.2360   42.7230 Cl  0  0  0  0  0  0  0  0  0  0  0  0
    0.5530   -6.6050   45.1730 C   0  0  1  0  0  0  0  0  0  0  0  0
    6.2650   -2.5640   45.3660 C   0  0  0  0  0  0  0  0  0  0  0  0
    5.2590   -2.7610   44.4070 C   0  0  0  0  0  0  0  0  0  0  0  0
    6.1180   -3.1410   46.6350 C   0  0  0  0  0  0  0  0  0  0  0  0
    4.1150   -3.5030   44.7210 C   0  0  0  0  0  0  0  0  0  0  0  0
    4.9860   -3.8940   46.9480 C   0  0  0  0  0  0  0  0  0  0  0  0
    3.0200   -3.7320   43.7130 C   0  0  0  0  0  0  0  0  0  0  0  0
    3.9790   -4.0770   45.9940 C   0  0  0  0  0  0  0  0  0  0  0  0
    1.6520   -3.4910   44.3760 C   0  0  2  0  0  0  0  0  0  0  0  0
    2.7620   -4.9340   46.2790 C   0  0  1  0  0  0  0  0  0  0  0  0
    1.4640   -4.2700   45.7280 C   0  0  2  0  0  0  0  0  0  0  0  0
    0.5330   -3.6240   43.3430 C   0  0  0  0  0  0  0  0  0  0  0  0
    2.9400   -6.3700   45.7640 C   0  0  0  0  0  0  0  0  0  0  0  0
    0.2660   -5.2380   45.8120 C   0  0  0  0  0  0  0  0  0  0  0  0
    1.7350   -7.2720   45.8700 C   0  0  0  0  0  0  0  0  0  0  0  0
    4.0110   -6.8250   45.3640 O   0  0  0  0  0  0  0  0  0  0  0  0
    7.5130   -1.7980   45.0160 C   0  0  0  0  0  0  0  0  0  0  0  0
    8.2000   -1.3640   46.1110 F   0  0  0  0  0  0  0  0  0  0  0  0
    7.2650   -0.6810   44.2730 F   0  0  0  0  0  0  0  0  0  0  0  0
   -2.3800  -10.0150   47.4250 C   0  0  0  0  0  0  0  0  0  0  0  0
   -1.5530  -10.3470   48.2530 O   0  0  0  0  0  0  0  0  0  0  0  0
   -3.6580  -10.4250   47.5040 O   0  0  0  0  0  0  0  0  0  0  0  0
  1  2  2  0
  8  1  1  1
  1  6  1  0
  2  3  1  0
  3  7  1  0
  3  4  2  0
  4  5  1  0
  5  6  2  0
  5 27  1  0
  8 21  1  0
  8 22  1  0
  9 10  2  0
  9 24  1  0
  9 11  1  0
 10 12  1  0
 11 13  2  0
 12 14  1  0
 12 15  2  0
 13 15  1  0
 14 16  1  0
 15 17  1  0
 16 19  1  6
 16 18  1  0
 17 18  1  0
 17 20  1  6
 18 21  1  6
 20 23  2  0
 20 22  1  0
 24 26  1  0
 24 25  1  0
 27 29  1  0
 27 28  2  0
M  END
>  <vina_dock>  (476) 
-8.707

$$$$
O14757_PocketFlow_idx-in-all-generaetd-374
     RDKit          3D

 35 37  0  0  0  0  0  0  0  0999 V2000
    8.2130   -2.8260   46.2740 C   0  0  2  0  0  0  0  0  0  0  0  0
    7.1300   -1.7280   46.0710 C   0  0  0  0  0  0  0  0  0  0  0  0
    6.7770   -1.5470   44.6930 O   0  0  0  0  0  0  0  0  0  0  0  0
    5.5410   -1.9310   44.2640 C   0  0  0  0  0  0  0  0  0  0  0  0
    0.6500   -5.7970   44.3540 C   0  0  0  0  0  0  0  0  0  0  0  0
    1.3240   -4.6290   44.3050 C   0  0  0  0  0  0  0  0  0  0  0  0
    0.7020   -3.4130   43.6660 C   0  0  0  0  0  0  0  0  0  0  0  0
    2.7100   -4.4090   44.8620 C   0  0  1  0  0  0  0  0  0  0  0  0
    1.6200   -2.8190   42.5850 C   0  0  2  0  0  0  0  0  0  0  0  0
    3.4800   -3.2450   44.2600 C   0  0  0  0  0  0  0  0  0  0  0  0
    2.9860   -2.4910   43.1740 C   0  0  0  0  0  0  0  0  0  0  0  0
    0.9010   -1.6290   41.9340 C   0  0  0  0  0  0  0  0  0  0  0  0
    4.7560   -2.9490   44.7930 C   0  0  0  0  0  0  0  0  0  0  0  0
    3.8010   -1.4850   42.6320 C   0  0  0  0  0  0  0  0  0  0  0  0
    5.0570   -1.2080   43.1770 C   0  0  0  0  0  0  0  0  0  0  0  0
    1.1380   -7.0160   45.0640 C   0  0  0  0  0  0  0  0  0  0  0  0
    2.1880   -7.5740   44.7320 O   0  0  0  0  0  0  0  0  0  0  0  0
    0.2780   -7.5520   46.2130 C   0  0  2  0  0  0  0  0  0  0  0  0
   -0.2960   -6.5550   46.9380 F   0  0  0  0  0  0  0  0  0  0  0  0
    1.0370   -8.3280   47.1210 O   0  0  0  0  0  0  0  0  0  0  0  0
    2.5760   -4.1960   46.2620 O   0  0  0  0  0  0  0  0  0  0  0  0
    7.8120   -3.9910   47.1750 C   0  0  0  0  0  0  0  0  0  0  0  0
    6.5030   -4.0360   47.6860 C   0  0  0  0  0  0  0  0  0  0  0  0
    8.6920   -5.0250   47.5220 C   0  0  0  0  0  0  0  0  0  0  0  0
    6.0990   -5.0600   48.5460 C   0  0  0  0  0  0  0  0  0  0  0  0
    8.2890   -6.0470   48.3850 C   0  0  0  0  0  0  0  0  0  0  0  0
    6.9970   -6.0650   48.9200 C   0  0  0  0  0  0  0  0  0  0  0  0
    6.5980   -7.1240   49.9160 C   0  0  0  0  0  0  0  0  0  0  0  0
    5.3200   -7.8860   49.5340 C   0  0  0  0  0  0  0  0  0  0  0  0
    5.4720   -8.8020   48.3170 C   0  0  0  0  0  0  0  0  0  0  0  0
    4.3540   -8.7190   47.3150 C   0  0  0  0  0  0  0  0  0  0  0  0
    3.7210   -9.6680   46.8830 O   0  0  0  0  0  0  0  0  0  0  0  0
    4.0470   -7.4610   46.9520 O   0  0  0  0  0  0  0  0  0  0  0  0
    9.5360   -2.2690   46.6420 N   0  0  0  0  0  0  0  0  0  0  0  0
    9.5450   -1.4730   47.8610 C   0  0  0  0  0  0  0  0  0  0  0  0
  1  2  1  1
  1 34  1  0
  1 22  1  0
  2  3  1  0
  3  4  1  0
  4 15  1  0
  4 13  2  0
  5  6  2  3
  5 16  1  0
  6  7  1  0
  6  8  1  0
  7  9  1  0
  8 10  1  0
  8 21  1  1
  9 12  1  1
  9 11  1  0
 10 11  2  0
 10 13  1  0
 11 14  1  0
 14 15  2  0
 16 17  2  0
 16 18  1  0
 18 19  1  0
 18 20  1  1
 22 24  1  0
 22 23  2  0
 23 25  1  0
 24 26  2  0
 25 27  2  0
 26 27  1  0
 27 28  1  0
 28 29  1  0
 29 30  1  0
 30 31  1  0
 31 32  2  0
 31 33  1  0
 34 35  1  0
M  END
>  <vina_dock>  (477) 
-7.961

$$$$
O14757_PocketFlow_idx-in-all-generaetd-716
     RDKit          3D

 20 20  0  0  0  0  0  0  0  0999 V2000
    5.2230   -0.7240   43.9980 C   0  0  0  0  0  0  0  0  0  0  0  0
    6.5350   -1.4750   44.2640 C   0  0  0  0  0  0  0  0  0  0  0  0
    6.8260   -1.8330   45.7250 C   0  0  0  0  0  0  0  0  0  0  0  0
    6.9920   -3.3350   45.9640 C   0  0  0  0  0  0  0  0  0  0  0  0
    5.9390   -3.9130   46.9140 C   0  0  0  0  0  0  0  0  0  0  0  0
    4.6420   -3.1190   46.9460 C   0  0  0  0  0  0  0  0  0  0  0  0
    4.5530   -1.0150   42.6490 C   0  0  0  0  0  0  0  0  0  0  0  0
    3.3050   -1.8570   42.7580 C   0  0  0  0  0  0  0  0  0  0  0  0
    2.1820   -1.5790   41.9730 C   0  0  0  0  0  0  0  0  0  0  0  0
    3.2440   -2.9170   43.6730 C   0  0  0  0  0  0  0  0  0  0  0  0
    1.0200   -2.3370   42.1150 C   0  0  0  0  0  0  0  0  0  0  0  0
    2.0780   -3.6880   43.8360 C   0  0  0  0  0  0  0  0  0  0  0  0
    0.9650   -3.3780   43.0460 C   0  0  0  0  0  0  0  0  0  0  0  0
    2.0780   -4.7800   44.8990 C   0  0  2  0  0  0  0  0  0  0  0  0
    3.1660   -5.8480   44.7300 C   0  0  0  0  0  0  0  0  0  0  0  0
    0.7190   -5.4450   44.9700 C   0  0  0  0  0  0  0  0  0  0  0  0
    0.4470   -6.6490   44.4400 C   0  0  0  0  0  0  0  0  0  0  0  0
   -0.8490   -7.2750   44.5510 C   0  0  0  0  0  0  0  0  0  0  0  0
   -1.2260   -8.1730   45.4750 C   0  0  0  0  0  0  0  0  0  0  0  0
   -0.4270   -8.7400   46.6060 C   0  0  0  0  0  0  0  0  0  0  0  0
  1  7  1  0
  1  2  1  0
  2  3  1  0
  3  4  1  0
  4  5  1  0
  5  6  1  0
  7  8  1  0
  8  9  2  0
  8 10  1  0
  9 11  1  0
 10 12  2  0
 11 13  2  0
 12 13  1  0
 12 14  1  0
 14 15  1  6
 14 16  1  0
 16 17  2  3
 17 18  1  0
 18 19  2  3
 19 20  1  0
M  END
>  <vina_dock>  (478) 
-7.329

$$$$
O14757_PocketFlow_idx-in-all-generaetd-794
     RDKit          3D

 19 19  0  0  0  0  0  0  0  0999 V2000
    1.6310   -4.4770   45.0650 C   0  0  0  0  0  0  0  0  0  0  0  0
    1.5400   -3.4070   44.2590 C   0  0  0  0  0  0  0  0  0  0  0  0
    0.5830   -4.8420   45.9900 C   0  0  0  0  0  0  0  0  0  0  0  0
   -0.0510   -6.0230   46.0600 C   0  0  0  0  0  0  0  0  0  0  0  0
    0.1480   -7.2610   45.2050 C   0  0  2  0  0  0  0  0  0  0  0  0
   -1.1060   -7.4760   44.3730 C   0  0  0  0  0  0  0  0  0  0  0  0
   -2.2650   -8.0390   44.7520 C   0  0  0  0  0  0  0  0  0  0  0  0
   -3.4410   -8.2060   43.8440 C   0  0  0  0  0  0  0  0  0  0  0  0
    0.5990   -8.4220   46.1130 C   0  0  0  0  0  0  0  0  0  0  0  0
   -0.2420   -8.4120   47.6900 Cl  0  0  0  0  0  0  0  0  0  0  0  0
    2.6100   -2.9950   43.2890 C   0  0  0  0  0  0  0  0  0  0  0  0
    3.9760   -3.1570   43.8910 C   0  0  0  0  0  0  0  0  0  0  0  0
    4.5720   -2.2270   44.6550 C   0  0  0  0  0  0  0  0  0  0  0  0
    5.9020   -2.3820   45.2560 C   0  0  0  0  0  0  0  0  0  0  0  0
    6.9510   -1.4890   44.9960 C   0  0  0  0  0  0  0  0  0  0  0  0
    6.1170   -3.4240   46.1670 C   0  0  0  0  0  0  0  0  0  0  0  0
    8.1940   -1.6510   45.6130 C   0  0  0  0  0  0  0  0  0  0  0  0
    7.3610   -3.5880   46.7830 C   0  0  0  0  0  0  0  0  0  0  0  0
    8.4000   -2.7030   46.5030 C   0  0  0  0  0  0  0  0  0  0  0  0
  1  2  2  3
  1  3  1  0
  2 11  1  0
  3  4  2  3
  4  5  1  0
  5  6  1  0
  5  9  1  1
  6  7  2  3
  7  8  1  0
  9 10  1  0
 11 12  1  0
 12 13  2  3
 13 14  1  0
 14 15  2  0
 14 16  1  0
 15 17  1  0
 16 18  2  0
 17 19  2  0
 18 19  1  0
M  END
>  <vina_dock>  (479) 
-7.141

$$$$
O14757_PocketFlow_idx-in-all-generaetd-802
     RDKit          3D

 17 18  0  0  0  0  0  0  0  0999 V2000
    1.8930   -2.3190   42.5000 C   0  0  0  0  0  0  0  0  0  0  0  0
    1.9940   -3.3710   43.4170 C   0  0  0  0  0  0  0  0  0  0  0  0
    2.9450   -1.4130   42.3770 C   0  0  0  0  0  0  0  0  0  0  0  0
    3.1420   -3.5320   44.2120 C   0  0  0  0  0  0  0  0  0  0  0  0
    3.2250   -4.5940   45.1270 C   0  0  0  0  0  0  0  0  0  0  0  0
    4.3640   -4.8060   45.9030 C   0  0  0  0  0  0  0  0  0  0  0  0
    5.3990   -3.8760   45.8340 C   0  0  0  0  0  0  0  0  0  0  0  0
    5.3520   -2.7970   44.9320 C   0  0  0  0  0  0  0  0  0  0  0  0
    4.2190   -2.6170   44.0970 C   0  0  0  0  0  0  0  0  0  0  0  0
    4.0890   -1.5600   43.1660 C   0  0  0  0  0  0  0  0  0  0  0  0
    0.6950   -2.1270   41.6470 C   0  0  0  0  0  0  0  0  0  0  0  0
   -0.0070   -1.1330   41.6170 O   0  0  0  0  0  0  0  0  0  0  0  0
    0.4320   -3.1910   40.8670 O   0  0  0  0  0  0  0  0  0  0  0  0
    4.3750   -5.8030   46.8860 N   0  0  0  0  0  0  0  0  0  0  0  0
    6.5110   -1.8910   44.8750 C   0  0  0  0  0  0  0  0  0  0  0  0
    7.4880   -1.9080   45.7950 C   0  0  0  0  0  0  0  0  0  0  0  0
    8.6710   -0.9950   45.7670 C   0  0  0  0  0  0  0  0  0  0  0  0
  1 11  1  0
  1  3  2  0
  1  2  1  0
  2  4  2  0
  3 10  1  0
  4  9  1  0
  4  5  1  0
  5  6  2  0
  6  7  1  0
  6 14  1  0
  7  8  2  0
  8  9  1  0
  8 15  1  0
  9 10  2  0
 11 13  1  0
 11 12  2  0
 15 16  2  3
 16 17  1  0
M  END
>  <vina_dock>  (480) 
-8.05

$$$$
O14757_PocketFlow_idx-in-all-generaetd-792
     RDKit          3D

 31 36  0  0  0  0  0  0  0  0999 V2000
    1.8430   -6.1380   44.2490 C   0  0  0  0  0  0  0  0  0  0  0  0
    2.9030   -5.1890   44.7700 C   0  0  0  0  0  0  0  0  0  0  0  0
    0.8510   -3.3340   43.3120 C   0  0  0  0  0  0  0  0  0  0  0  0
    0.0140   -2.6280   42.4410 C   0  0  0  0  0  0  0  0  0  0  0  0
    2.2460   -3.1560   43.3230 C   0  0  0  0  0  0  0  0  0  0  0  0
    0.5500   -1.6860   41.5750 C   0  0  0  0  0  0  0  0  0  0  0  0
    3.1730   -3.9040   44.2320 C   0  0  0  0  0  0  0  0  0  0  0  0
    2.7490   -2.1190   42.5100 C   0  0  0  0  0  0  0  0  0  0  0  0
    1.9130   -1.4200   41.6180 C   0  0  0  0  0  0  0  0  0  0  0  0
    4.3990   -3.2660   44.6020 C   0  0  0  0  0  0  0  0  0  0  0  0
    4.1980   -1.7220   42.6010 C   0  0  0  0  0  0  0  0  0  0  0  0
    4.8680   -2.1390   43.8910 C   0  0  0  0  0  0  0  0  0  0  0  0
    5.1920   -3.7610   45.6750 C   0  0  0  0  0  0  0  0  0  0  0  0
    3.6970   -5.6760   45.8200 C   0  0  0  0  0  0  0  0  0  0  0  0
    6.0350   -1.4700   44.2810 C   0  0  0  0  0  0  0  0  0  0  0  0
    6.3640   -3.0590   46.0820 C   0  0  0  0  0  0  0  0  0  0  0  0
    4.7920   -4.9590   46.2870 C   0  0  0  0  0  0  0  0  0  0  0  0
    6.7600   -1.9110   45.3800 C   0  0  0  0  0  0  0  0  0  0  0  0
    7.1980   -3.4910   47.2160 C   0  0  0  0  0  0  0  0  0  0  0  0
    6.6210   -3.7790   48.4630 C   0  0  0  0  0  0  0  0  0  0  0  0
    8.5870   -3.6340   47.0700 C   0  0  0  0  0  0  0  0  0  0  0  0
    7.4120   -4.1930   49.5360 C   0  0  0  0  0  0  0  0  0  0  0  0
    9.3780   -4.0490   48.1430 C   0  0  0  0  0  0  0  0  0  0  0  0
    8.7900   -4.3270   49.3760 C   0  0  0  0  0  0  0  0  0  0  0  0
    1.7150   -7.2300   45.1570 O   0  0  0  0  0  0  0  0  0  0  0  0
    0.4580   -7.7250   45.3650 C   0  0  0  0  0  0  0  0  0  0  0  0
    0.0850   -8.6460   46.3450 C   0  0  0  0  0  0  0  0  0  0  0  0
   -0.5130   -7.2350   44.4860 C   0  0  0  0  0  0  0  0  0  0  0  0
   -1.2440   -9.0700   46.4420 C   0  0  0  0  0  0  0  0  0  0  0  0
   -1.8390   -7.6570   44.5810 C   0  0  0  0  0  0  0  0  0  0  0  0
   -2.2040   -8.5770   45.5620 C   0  0  0  0  0  0  0  0  0  0  0  0
  1  2  1  0
  1 25  1  0
  2  7  2  0
  2 14  1  0
  3  4  2  0
  3  5  1  0
  4  6  1  0
  5  8  2  0
  5  7  1  0
  6  9  2  0
  7 10  1  0
  8  9  1  0
  8 11  1  0
 10 12  2  0
 10 13  1  0
 11 12  1  0
 12 15  1  0
 13 16  2  0
 13 17  1  0
 14 17  2  0
 15 18  2  0
 16 18  1  0
 16 19  1  0
 19 21  1  0
 19 20  2  0
 20 22  1  0
 21 23  2  0
 22 24  2  0
 23 24  1  0
 25 26  1  0
 26 28  1  0
 26 27  2  0
 27 29  1  0
 28 30  2  0
 29 31  2  0
 30 31  1  0
M  END
>  <vina_dock>  (481) 
-11.248

$$$$
O14757_PocketFlow_idx-in-all-generaetd-468
     RDKit          3D

 33 35  0  0  0  0  0  0  0  0999 V2000
    7.1870   -2.0220   45.3690 C   0  0  0  0  0  0  0  0  0  0  0  0
    8.0530   -0.9420   45.6030 C   0  0  0  0  0  0  0  0  0  0  0  0
    9.1900   -1.0990   46.3970 C   0  0  0  0  0  0  0  0  0  0  0  0
    9.4750   -2.3380   46.9700 C   0  0  0  0  0  0  0  0  0  0  0  0
    7.4880   -3.2640   45.9550 C   0  0  0  0  0  0  0  0  0  0  0  0
    8.6240   -3.4330   46.7650 C   0  0  0  0  0  0  0  0  0  0  0  0
    5.9960   -1.8570   44.5290 C   0  0  0  0  0  0  0  0  0  0  0  0
    3.7070   -1.5480   42.8960 C   0  0  0  0  0  0  0  0  0  0  0  0
    4.6230   -0.5000   43.0430 C   0  0  0  0  0  0  0  0  0  0  0  0
    3.9420   -2.7500   43.5720 C   0  0  0  0  0  0  0  0  0  0  0  0
    5.7570   -0.6550   43.8490 C   0  0  0  0  0  0  0  0  0  0  0  0
    5.0720   -2.9020   44.3830 C   0  0  0  0  0  0  0  0  0  0  0  0
    2.5210   -1.4000   42.0260 C   0  0  0  0  0  0  0  0  0  0  0  0
    1.9760   -2.5030   41.4770 C   0  0  0  0  0  0  0  0  0  0  0  0
    2.0380    0.0110   41.8270 C   0  0  0  0  0  0  0  0  0  0  0  0
    0.8070   -2.5660   40.5340 C   0  0  0  0  0  0  0  0  0  0  0  0
   -0.4550   -3.0090   41.2390 C   0  0  0  0  0  0  0  0  0  0  0  0
   -1.3600   -2.2820   41.6200 O   0  0  0  0  0  0  0  0  0  0  0  0
   -0.5450   -4.3470   41.3990 O   0  0  0  0  0  0  0  0  0  0  0  0
    8.9320   -4.7830   47.3810 C   0  0  0  0  0  0  0  0  0  0  0  0
    8.6540   -4.8020   48.8310 N   0  0  0  0  0  0  0  0  0  0  0  0
    9.7650   -5.2650   49.6590 C   0  0  0  0  0  0  0  0  0  0  0  0
    7.4310   -4.3720   49.3330 C   0  0  0  0  0  0  0  0  0  0  0  0
    6.1470   -4.6970   49.1200 C   0  0  0  0  0  0  0  0  0  0  0  0
    5.5950   -5.6700   48.2090 C   0  0  0  0  0  0  0  0  0  0  0  0
    4.8500   -5.3330   47.1430 C   0  0  0  0  0  0  0  0  0  0  0  0
    4.2460   -6.3310   46.1960 C   0  0  0  0  0  0  0  0  0  0  0  0
    2.9280   -5.8650   45.6240 C   0  0  0  0  0  0  0  0  0  0  0  0
    2.3910   -4.6250   45.9960 C   0  0  0  0  0  0  0  0  0  0  0  0
    2.2160   -6.6700   44.7230 C   0  0  0  0  0  0  0  0  0  0  0  0
    1.1730   -4.1920   45.4650 C   0  0  0  0  0  0  0  0  0  0  0  0
    1.0000   -6.2350   44.1930 C   0  0  0  0  0  0  0  0  0  0  0  0
    0.4800   -4.9960   44.5620 C   0  0  0  0  0  0  0  0  0  0  0  0
  1  7  1  0
  1  2  2  0
  1  5  1  0
  2  3  1  0
  3  4  2  0
  4  6  1  0
  5  6  2  0
  6 20  1  0
  7 11  2  0
  7 12  1  0
  8 13  1  0
  8  9  2  0
  8 10  1  0
  9 11  1  0
 10 12  2  0
 13 14  2  3
 13 15  1  0
 14 16  1  0
 16 17  1  0
 17 19  1  0
 17 18  2  0
 20 21  1  0
 21 23  1  0
 21 22  1  0
 23 24  2  3
 24 25  1  0
 25 26  2  3
 26 27  1  0
 27 28  1  0
 28 30  1  0
 28 29  2  0
 29 31  1  0
 30 32  2  0
 31 33  2  0
 32 33  1  0
M  END
>  <vina_dock>  (482) 
-8.561

$$$$
O14757_PocketFlow_idx-in-all-generaetd-345
     RDKit          3D

 35 38  0  0  0  0  0  0  0  0999 V2000
   -0.3700   -2.2380   41.3670 C   0  0  0  0  0  0  0  0  0  0  0  0
    0.1340   -3.0800   42.3720 C   0  0  0  0  0  0  0  0  0  0  0  0
    1.4230   -2.8980   42.9060 C   0  0  0  0  0  0  0  0  0  0  0  0
    2.2020   -1.8450   42.4010 C   0  0  0  0  0  0  0  0  0  0  0  0
    1.7160   -1.0060   41.3970 C   0  0  0  0  0  0  0  0  0  0  0  0
    0.4370   -1.2020   40.8810 C   0  0  0  0  0  0  0  0  0  0  0  0
   -1.7500   -2.4660   40.7990 C   0  0  0  0  0  0  0  0  0  0  0  0
   -2.6590   -1.2660   40.8920 C   0  0  0  0  0  0  0  0  0  0  0  0
   -2.5600   -0.2930   41.6210 O   0  0  0  0  0  0  0  0  0  0  0  0
   -3.6990   -1.3590   40.0350 O   0  0  0  0  0  0  0  0  0  0  0  0
    1.9370   -3.7860   43.9620 C   0  0  0  0  0  0  0  0  0  0  0  0
    3.1450   -3.5050   44.6160 C   0  0  0  0  0  0  0  0  0  0  0  0
    1.2280   -4.9380   44.3500 C   0  0  0  0  0  0  0  0  0  0  0  0
    3.6350   -4.3520   45.6170 C   0  0  0  0  0  0  0  0  0  0  0  0
    1.6900   -5.7950   45.3660 C   0  0  0  0  0  0  0  0  0  0  0  0
    2.9020   -5.4820   45.9990 C   0  0  0  0  0  0  0  0  0  0  0  0
    4.9270   -4.0040   46.2710 C   0  0  0  0  0  0  0  0  0  0  0  0
    5.0820   -4.3130   47.4460 O   0  0  0  0  0  0  0  0  0  0  0  0
    5.8200   -3.3220   45.4640 N   0  0  0  0  0  0  0  0  0  0  0  0
    7.1210   -2.8940   45.7990 C   0  0  0  0  0  0  0  0  0  0  0  0
    8.0810   -3.7090   46.4000 C   0  0  0  0  0  0  0  0  0  0  0  0
    7.4540   -1.5670   45.4980 C   0  0  0  0  0  0  0  0  0  0  0  0
    9.3570   -3.2120   46.6970 C   0  0  0  0  0  0  0  0  0  0  0  0
    8.7270   -1.0670   45.7920 C   0  0  0  0  0  0  0  0  0  0  0  0
    9.6900   -1.8910   46.3850 C   0  0  0  0  0  0  0  0  0  0  0  0
   11.0290   -1.3130   46.6780 C   0  0  0  0  0  0  0  0  0  0  0  0
   11.2090   -0.7100   47.8920 N   0  0  0  0  0  0  0  0  0  0  0  0
   11.9550   -1.4010   45.8810 O   0  0  0  0  0  0  0  0  0  0  0  0
    0.9170   -6.9840   45.7600 C   0  0  0  0  0  0  0  0  0  0  0  0
    1.5610   -8.1720   46.1400 C   0  0  0  0  0  0  0  0  0  0  0  0
   -0.4860   -6.9670   45.7580 C   0  0  0  0  0  0  0  0  0  0  0  0
    0.8270   -9.3040   46.5090 C   0  0  0  0  0  0  0  0  0  0  0  0
   -1.2210   -8.0990   46.1260 C   0  0  0  0  0  0  0  0  0  0  0  0
   -0.5700   -9.2710   46.5160 C   0  0  0  0  0  0  0  0  0  0  0  0
   -1.3580  -10.4950   46.8810 C   0  0  0  0  0  0  0  0  0  0  0  0
  1  7  1  0
  1  6  2  0
  1  2  1  0
  2  3  2  0
  3  4  1  0
  3 11  1  0
  4  5  2  0
  5  6  1  0
  7  8  1  0
  8 10  1  0
  8  9  2  0
 11 13  1  0
 11 12  2  0
 12 14  1  0
 13 15  2  0
 14 16  2  0
 14 17  1  0
 15 29  1  0
 15 16  1  0
 17 19  1  0
 17 18  2  0
 19 20  1  0
 20 22  1  0
 20 21  2  0
 21 23  1  0
 22 24  2  0
 23 25  2  0
 24 25  1  0
 25 26  1  0
 26 28  2  0
 26 27  1  0
 29 31  1  0
 29 30  2  0
 30 32  1  0
 31 33  2  0
 32 34  2  0
 33 34  1  0
 34 35  1  0
M  END
>  <vina_dock>  (483) 
-10.351

$$$$
O14757_PocketFlow_idx-in-all-generaetd-534
     RDKit          3D

 21 23  0  0  0  0  0  0  0  0999 V2000
    2.8730   -1.1970   42.3420 C   0  0  0  0  0  0  0  0  0  0  0  0
    3.9100   -0.2660   42.2740 C   0  0  0  0  0  0  0  0  0  0  0  0
    5.0520   -0.4270   43.0610 C   0  0  0  0  0  0  0  0  0  0  0  0
    5.1870   -1.5250   43.9270 C   0  0  0  0  0  0  0  0  0  0  0  0
    6.3460   -1.6660   44.7060 C   0  0  0  0  0  0  0  0  0  0  0  0
    6.5080   -2.7470   45.5790 C   0  0  0  0  0  0  0  0  0  0  0  0
    5.4940   -3.7030   45.6610 C   0  0  0  0  0  0  0  0  0  0  0  0
    4.3160   -3.5940   44.8970 C   0  0  0  0  0  0  0  0  0  0  0  0
    4.1530   -2.4890   44.0140 C   0  0  0  0  0  0  0  0  0  0  0  0
    3.0070   -2.2980   43.2030 C   0  0  0  0  0  0  0  0  0  0  0  0
    1.6500   -1.0550   41.4760 C   0  0  0  0  0  0  0  0  0  0  0  0
    1.5870   -1.9800   40.4760 F   0  0  0  0  0  0  0  0  0  0  0  0
    1.5710    0.1570   40.8590 F   0  0  0  0  0  0  0  0  0  0  0  0
    3.2930   -4.6420   45.0460 C   0  0  0  0  0  0  0  0  0  0  0  0
    3.5430   -5.9520   44.6120 C   0  0  0  0  0  0  0  0  0  0  0  0
    2.0510   -4.3530   45.6330 C   0  0  0  0  0  0  0  0  0  0  0  0
    2.5720   -6.9470   44.7550 C   0  0  0  0  0  0  0  0  0  0  0  0
    1.0810   -5.3470   45.7760 C   0  0  0  0  0  0  0  0  0  0  0  0
    1.3430   -6.6430   45.3360 C   0  0  0  0  0  0  0  0  0  0  0  0
    7.7660   -2.8930   46.3940 C   0  0  0  0  0  0  0  0  0  0  0  0
    8.6760   -1.6810   46.2520 C   0  0  0  0  0  0  0  0  0  0  0  0
  1 11  1  0
  1  2  2  0
  1 10  1  0
  2  3  1  0
  3  4  2  0
  4  9  1  0
  4  5  1  0
  5  6  2  0
  6  7  1  0
  6 20  1  0
  7  8  2  0
  8  9  1  0
  8 14  1  0
  9 10  2  0
 11 12  1  0
 11 13  1  0
 14 15  2  0
 14 16  1  0
 15 17  1  0
 16 18  2  0
 17 19  2  0
 18 19  1  0
 20 21  1  0
M  END
>  <vina_dock>  (484) 
-9.441

$$$$
O14757_PocketFlow_idx-in-all-generaetd-221
     RDKit          3D

 34 36  0  0  0  0  0  0  0  0999 V2000
    1.6660   -5.4340   44.2080 C   0  0  0  0  0  0  0  0  0  0  0  0
    1.7670   -4.0480   43.9660 C   0  0  0  0  0  0  0  0  0  0  0  0
    2.7640   -6.1020   44.7760 C   0  0  0  0  0  0  0  0  0  0  0  0
    3.9400   -5.4200   45.0970 C   0  0  0  0  0  0  0  0  0  0  0  0
    4.0610   -4.0460   44.8660 C   0  0  0  0  0  0  0  0  0  0  0  0
    2.9610   -3.3770   44.3050 C   0  0  0  0  0  0  0  0  0  0  0  0
    0.4300   -6.2440   43.8670 C   0  0  0  0  0  0  0  0  0  0  0  0
    0.1530   -7.3970   44.8470 C   0  0  0  0  0  0  0  0  0  0  0  0
   -1.2580   -7.4570   45.4160 C   0  0  0  0  0  0  0  0  0  0  0  0
   -2.2580   -7.9500   44.6590 C   0  0  0  0  0  0  0  0  0  0  0  0
   -1.4360   -6.8450   46.7890 C   0  0  2  0  0  0  0  0  0  0  0  0
   -1.4620   -5.4440   46.6820 O   0  0  0  0  0  0  0  0  0  0  0  0
   -0.3980   -7.1590   47.7360 N   0  0  0  0  0  0  0  0  0  0  0  0
    0.6320   -3.2260   43.3950 C   0  0  0  0  0  0  0  0  0  0  0  0
    0.6090   -3.2830   41.8650 C   0  0  0  0  0  0  0  0  0  0  0  0
    1.4440   -2.1570   41.2610 C   0  0  0  0  0  0  0  0  0  0  0  0
    0.8340   -0.8080   41.5180 C   0  0  0  0  0  0  0  0  0  0  0  0
   -0.3570   -0.5700   41.6330 O   0  0  0  0  0  0  0  0  0  0  0  0
    1.7480    0.1690   41.6740 O   0  0  0  0  0  0  0  0  0  0  0  0
    5.2990   -3.3250   45.2030 C   0  0  0  0  0  0  0  0  0  0  0  0
    5.6770   -2.1810   44.4870 C   0  0  0  0  0  0  0  0  0  0  0  0
    6.1330   -3.7670   46.2490 C   0  0  0  0  0  0  0  0  0  0  0  0
    6.8500   -1.4990   44.8030 C   0  0  0  0  0  0  0  0  0  0  0  0
    7.3230   -3.0940   46.5910 C   0  0  0  0  0  0  0  0  0  0  0  0
    7.6640   -1.9530   45.8410 C   0  0  0  0  0  0  0  0  0  0  0  0
    8.2590   -3.5680   47.7290 C   0  0  0  0  0  0  0  0  0  0  0  0
    7.3510   -3.8270   48.9590 C   0  0  0  0  0  0  0  0  0  0  0  0
    9.2920   -2.4990   48.1760 C   0  0  0  0  0  0  0  0  0  0  0  0
    9.0820   -4.8070   47.2930 C   0  0  0  0  0  0  0  0  0  0  0  0
   10.0110   -4.6890   46.2390 C   0  0  0  0  0  0  0  0  0  0  0  0
    8.9580   -6.0620   47.9130 C   0  0  0  0  0  0  0  0  0  0  0  0
   10.7750   -5.7810   45.8170 C   0  0  0  0  0  0  0  0  0  0  0  0
    9.7250   -7.1530   47.4920 C   0  0  0  0  0  0  0  0  0  0  0  0
   10.6310   -7.0130   46.4440 C   0  0  0  0  0  0  0  0  0  0  0  0
  1  7  1  0
  1  2  2  0
  1  3  1  0
  2 14  1  0
  2  6  1  0
  3  4  2  0
  4  5  1  0
  5  6  2  0
  5 20  1  0
  7  8  1  0
  8  9  1  0
  9 10  2  0
  9 11  1  0
 11 12  1  0
 11 13  1  1
 14 15  1  0
 15 16  1  0
 16 17  1  0
 17 18  2  0
 17 19  1  0
 20 21  2  0
 20 22  1  0
 21 23  1  0
 22 24  2  0
 23 25  2  0
 24 25  1  0
 24 26  1  0
 26 29  1  0
 26 28  1  0
 26 27  1  0
 29 30  2  0
 29 31  1  0
 30 32  1  0
 31 33  2  0
 32 34  2  0
 33 34  1  0
M  END
>  <vina_dock>  (485) 
-9.154

$$$$
O14757_PocketFlow_idx-in-all-generaetd-253
     RDKit          3D

 21 22  0  0  0  0  0  0  0  0999 V2000
    5.2530   -3.7380   46.4620 C   0  0  2  0  0  0  0  0  0  0  0  0
    5.6340   -2.8070   45.3410 C   0  0  0  0  0  0  0  0  0  0  0  0
    6.8980   -2.4400   45.0630 C   0  0  0  0  0  0  0  0  0  0  0  0
    4.5240   -4.8430   45.8910 N   0  0  0  0  0  0  0  0  0  0  0  0
    3.6290   -4.7910   44.8290 C   0  0  0  0  0  0  0  0  0  0  0  0
    2.7980   -5.8130   44.5230 C   0  0  0  0  0  0  0  0  0  0  0  0
    3.6830   -3.5420   43.9140 C   0  0  2  0  0  0  0  0  0  0  0  0
    4.4580   -2.3490   44.5180 C   0  0  0  0  0  0  0  0  0  0  0  0
    4.5850   -2.9890   47.5030 N   0  0  0  0  0  0  0  0  0  0  0  0
    2.3340   -3.0400   43.4180 C   0  0  0  0  0  0  0  0  0  0  0  0
    2.1390   -2.2810   42.3270 C   0  0  0  0  0  0  0  0  0  0  0  0
    0.8330   -1.8450   41.8970 C   0  0  0  0  0  0  0  0  0  0  0  0
   -0.1480   -2.7010   41.5730 C   0  0  0  0  0  0  0  0  0  0  0  0
   -1.5090   -2.2760   41.1250 C   0  0  0  0  0  0  0  0  0  0  0  0
    2.6220   -7.1220   45.2390 C   0  0  0  0  0  0  0  0  0  0  0  0
    1.1690   -7.5240   45.3550 C   0  0  0  0  0  0  0  0  0  0  0  0
    0.2150   -6.9850   44.4800 C   0  0  0  0  0  0  0  0  0  0  0  0
    0.7540   -8.4340   46.3370 C   0  0  0  0  0  0  0  0  0  0  0  0
   -1.1280   -7.3530   44.5820 C   0  0  0  0  0  0  0  0  0  0  0  0
   -0.5900   -8.8010   46.4360 C   0  0  0  0  0  0  0  0  0  0  0  0
   -1.5290   -8.2620   45.5590 C   0  0  0  0  0  0  0  0  0  0  0  0
  1  2  1  0
  1  4  1  0
  1  9  1  1
  2  8  1  0
  2  3  2  0
  4  5  1  0
  5  7  1  0
  5  6  2  3
  6 15  1  0
  7 10  1  0
  7  8  1  1
 10 11  2  3
 11 12  1  0
 12 13  2  3
 13 14  1  0
 15 16  1  0
 16 17  2  0
 16 18  1  0
 17 19  1  0
 18 20  2  0
 19 21  2  0
 20 21  1  0
M  END
>  <vina_dock>  (486) 
-8.023

$$$$
O14757_PocketFlow_idx-in-all-generaetd-533
     RDKit          3D

 35 38  0  0  0  0  0  0  0  0999 V2000
    2.2810   -7.7610   45.3760 C   0  0  0  0  0  0  0  0  0  0  0  0
    2.2690   -6.3860   45.7540 O   0  0  0  0  0  0  0  0  0  0  0  0
    1.8670   -5.4330   44.8480 C   0  0  0  0  0  0  0  0  0  0  0  0
    7.1370   -2.2340   45.4850 C   0  0  0  0  0  0  0  0  0  0  0  0
    6.7970   -1.2270   44.5730 C   0  0  0  0  0  0  0  0  0  0  0  0
    6.2080   -3.2650   45.7050 C   0  0  0  0  0  0  0  0  0  0  0  0
    5.5710   -1.2500   43.9010 C   0  0  0  0  0  0  0  0  0  0  0  0
    4.9690   -3.3000   45.0370 C   0  0  0  0  0  0  0  0  0  0  0  0
    4.6490   -2.2840   44.1260 C   0  0  0  0  0  0  0  0  0  0  0  0
    4.0400   -4.3280   45.2600 C   0  0  0  0  0  0  0  0  0  0  0  0
    3.4120   -2.3270   43.4610 C   0  0  0  0  0  0  0  0  0  0  0  0
    2.7900   -4.3830   44.5990 C   0  0  0  0  0  0  0  0  0  0  0  0
    2.4650   -3.3580   43.6720 C   0  0  0  0  0  0  0  0  0  0  0  0
    1.2130   -3.4080   42.9980 C   0  0  0  0  0  0  0  0  0  0  0  0
    0.6460   -5.4610   44.1770 C   0  0  0  0  0  0  0  0  0  0  0  0
    0.3210   -4.4590   43.2670 C   0  0  0  0  0  0  0  0  0  0  0  0
    8.4290   -2.2170   46.1900 C   0  0  0  0  0  0  0  0  0  0  0  0
   10.9060   -2.1840   47.5480 C   0  0  0  0  0  0  0  0  0  0  0  0
   10.0790   -3.3080   47.6230 C   0  0  0  0  0  0  0  0  0  0  0  0
   10.5020   -1.0780   46.7970 C   0  0  0  0  0  0  0  0  0  0  0  0
    8.8520   -3.3210   46.9500 C   0  0  0  0  0  0  0  0  0  0  0  0
    9.2750   -1.0970   46.1240 C   0  0  0  0  0  0  0  0  0  0  0  0
   12.1620   -2.1670   48.2390 C   0  0  0  0  0  0  0  0  0  0  0  0
   13.1780   -2.1520   48.7990 N   0  0  0  0  0  0  0  0  0  0  0  0
    0.7740   -2.3560   41.9910 C   0  0  0  0  0  0  0  0  0  0  0  0
   -0.5210   -2.7150   41.3110 C   0  0  0  0  0  0  0  0  0  0  0  0
   -1.5930   -1.9280   41.0920 C   0  0  0  0  0  0  0  0  0  0  0  0
   -2.8220   -2.4810   40.4160 C   0  0  0  0  0  0  0  0  0  0  0  0
   -1.6990   -0.4760   41.4680 C   0  0  0  0  0  0  0  0  0  0  0  0
    1.5000   -8.6030   46.3840 C   0  0  0  0  0  0  0  0  0  0  0  0
    0.1140   -8.0130   46.6490 C   0  0  0  0  0  0  0  0  0  0  0  0
   -0.9930   -8.6110   45.7590 C   0  0  1  0  0  0  0  0  0  0  0  0
   -1.6760   -9.7690   46.4940 C   0  0  0  0  0  0  0  0  0  0  0  0
   -2.0270   -7.5890   45.2470 C   0  0  0  0  0  0  0  0  0  0  0  0
   -2.9970   -8.1140   44.1980 C   0  0  0  0  0  0  0  0  0  0  0  0
  1  2  1  0
  1 30  1  0
  2  3  1  0
  3 15  2  0
  3 12  1  0
  4  5  2  0
  4  6  1  0
  4 17  1  0
  5  7  1  0
  6  8  2  0
  7  9  2  0
  8  9  1  0
  8 10  1  0
  9 11  1  0
 10 12  2  0
 11 13  2  0
 12 13  1  0
 13 14  1  0
 14 25  1  0
 14 16  2  0
 15 16  1  0
 17 22  2  0
 17 21  1  0
 18 20  2  0
 18 19  1  0
 18 23  1  0
 19 21  2  0
 20 22  1  0
 23 24  3  0
 25 26  1  0
 26 27  2  3
 27 28  1  0
 27 29  1  0
 30 31  1  0
 31 32  1  0
 32 34  1  0
 32 33  1  1
 34 35  1  0
M  END
>  <vina_dock>  (487) 
-9.176

$$$$
O14757_PocketFlow_idx-in-all-generaetd-526
     RDKit          3D

 35 41  0  0  0  0  0  0  0  0999 V2000
    7.6910   -4.0600   47.0150 C   0  0  1  0  0  0  0  0  0  0  0  0
    7.0740   -2.7760   46.5800 C   0  0  0  0  0  0  0  0  0  0  0  0
    9.0140   -3.9720   47.7290 C   0  0  0  0  0  0  0  0  0  0  0  0
    9.1050   -5.0000   48.5920 C   0  0  2  0  0  0  0  0  0  0  0  0
    5.7680   -2.5230   46.3590 C   0  0  1  0  0  0  0  0  0  0  0  0
    5.3970   -1.3830   45.4270 C   0  0  0  0  0  0  0  0  0  0  0  0
    4.3070   -2.0020   44.5870 C   0  0  0  0  0  0  0  0  0  0  0  0
    3.7570   -3.1630   45.2190 C   0  0  0  0  0  0  0  0  0  0  0  0
    2.6690   -3.8180   44.6070 C   0  0  0  0  0  0  0  0  0  0  0  0
    1.8820   -4.9130   45.1770 C   0  0  0  0  0  0  0  0  0  0  0  0
    4.4660   -3.3200   46.5810 C   0  0  1  0  0  0  0  0  0  0  0  0
    2.4570   -6.1620   45.4270 C   0  0  0  0  0  0  0  0  0  0  0  0
    1.7020   -7.0950   46.1270 C   0  0  0  0  0  0  0  0  0  0  0  0
    2.6030   -8.0520   46.4990 N   0  0  0  0  0  0  0  0  0  0  0  0
    3.8320   -7.5950   46.1060 C   0  0  2  0  0  0  0  0  0  0  0  0
    6.8720   -4.9150   48.0080 C   0  0  2  0  0  0  0  0  0  0  0  0
    4.9570   -7.9700   46.7490 N   0  0  0  0  0  0  0  0  0  0  0  0
    5.3790   -7.0180   47.8230 C   0  0  0  0  0  0  0  0  0  0  0  0
    3.7380   -6.6090   45.2510 N   0  0  0  0  0  0  0  0  0  0  0  0
    2.2460   -3.3360   43.3450 C   0  0  0  0  0  0  0  0  0  0  0  0
    2.8180   -2.2160   42.7300 C   0  0  0  0  0  0  0  0  0  0  0  0
    3.8460   -1.5180   43.3590 C   0  0  0  0  0  0  0  0  0  0  0  0
    7.9220   -5.7570   48.6000 N   0  0  0  0  0  0  0  0  0  0  0  0
    5.7090   -5.5970   47.2780 C   0  0  1  0  0  0  0  0  0  0  0  0
    4.4950   -4.6250   47.4170 C   0  0  0  0  0  0  0  0  0  0  0  0
    0.4130   -7.0110   46.4960 N   0  0  0  0  0  0  0  0  0  0  0  0
   -0.1500   -5.8370   46.1510 C   0  0  0  0  0  0  0  0  0  0  0  0
    0.5270   -4.7820   45.5380 C   0  0  0  0  0  0  0  0  0  0  0  0
   10.2390   -5.2960   49.5010 C   0  0  0  0  0  0  0  0  0  0  0  0
   11.4030   -4.9980   49.2870 O   0  0  0  0  0  0  0  0  0  0  0  0
    9.8690   -5.9550   50.6120 O   0  0  0  0  0  0  0  0  0  0  0  0
    4.4100   -0.2820   42.7540 C   0  0  0  0  0  0  0  0  0  0  0  0
    5.5850   -0.0360   42.5560 O   0  0  0  0  0  0  0  0  0  0  0  0
    3.4570    0.6080   42.4180 O   0  0  0  0  0  0  0  0  0  0  0  0
   -1.4890   -5.6740   46.5130 N   0  0  0  0  0  0  0  0  0  0  0  0
  1  2  1  1
  1  3  1  0
  1 16  1  0
  5  2  1  6
  3  4  1  0
  4 23  1  0
  4 29  1  1
  5  6  1  0
  5 11  1  0
  6  7  1  0
  7 22  1  0
  7  8  2  0
  8  9  1  0
  8 11  1  0
  9 20  2  0
  9 10  1  0
 10 12  2  0
 10 28  1  0
 11 25  1  6
 12 19  1  0
 12 13  1  0
 13 26  2  0
 13 14  1  0
 15 14  1  1
 15 19  1  0
 15 17  1  0
 16 24  1  0
 16 23  1  6
 17 18  1  0
 24 18  1  1
 20 21  1  0
 21 22  2  0
 22 32  1  0
 24 25  1  0
 26 27  1  0
 27 28  2  0
 27 35  1  0
 29 30  2  0
 29 31  1  0
 32 34  1  0
 32 33  2  0
M  END
>  <vina_dock>  (488) 
-8.302

$$$$
O14757_PocketFlow_idx-in-all-generaetd-872
     RDKit          3D

 32 35  0  0  0  0  0  0  0  0999 V2000
    1.1180   -2.9940   42.7750 C   0  0  0  0  0  0  0  0  0  0  0  0
    0.8370   -3.6960   43.9420 C   0  0  0  0  0  0  0  0  0  0  0  0
    1.8450   -3.9300   44.8820 C   0  0  0  0  0  0  0  0  0  0  0  0
    3.1630   -3.4660   44.6980 C   0  0  0  0  0  0  0  0  0  0  0  0
    3.4540   -2.7880   43.5110 C   0  0  0  0  0  0  0  0  0  0  0  0
    4.8440   -2.3180   43.1820 C   0  0  0  0  0  0  0  0  0  0  0  0
    2.4320   -2.5640   42.5600 C   0  0  0  0  0  0  0  0  0  0  0  0
    5.5210   -1.4740   44.2730 C   0  0  2  0  0  0  0  0  0  0  0  0
    6.0830   -2.3000   45.4090 C   0  0  0  0  0  0  0  0  0  0  0  0
    7.3700   -1.9290   45.8800 C   0  0  0  0  0  0  0  0  0  0  0  0
    8.0320   -2.6150   46.9040 C   0  0  0  0  0  0  0  0  0  0  0  0
    7.3810   -3.7120   47.4690 C   0  0  0  0  0  0  0  0  0  0  0  0
    6.0970   -4.0930   47.0430 C   0  0  0  0  0  0  0  0  0  0  0  0
    5.4080   -3.3670   46.0250 C   0  0  0  0  0  0  0  0  0  0  0  0
    4.1100   -3.8150   45.6790 N   0  0  0  0  0  0  0  0  0  0  0  0
    0.0510   -2.7850   41.7900 C   0  0  0  0  0  0  0  0  0  0  0  0
   -0.8360   -1.7770   41.8480 C   0  0  0  0  0  0  0  0  0  0  0  0
   -1.9330   -1.5490   40.8630 C   0  0  0  0  0  0  0  0  0  0  0  0
   -2.7890   -2.6030   40.8600 F   0  0  0  0  0  0  0  0  0  0  0  0
   -2.6760   -0.4520   41.1650 F   0  0  0  0  0  0  0  0  0  0  0  0
    4.7020   -0.3640   44.7740 N   0  0  0  0  0  0  0  0  0  0  0  0
    5.5050   -5.2990   47.6540 C   0  0  0  0  0  0  0  0  0  0  0  0
    6.1130   -5.9650   48.6470 C   0  0  0  0  0  0  0  0  0  0  0  0
    5.5980   -7.1890   49.3030 C   0  0  0  0  0  0  0  0  0  0  0  0
    5.2100   -7.0920   50.5980 N   0  0  0  0  0  0  0  0  0  0  0  0
    5.5580   -8.2530   48.7010 O   0  0  0  0  0  0  0  0  0  0  0  0
    9.3710   -2.2040   47.3570 C   0  0  0  0  0  0  0  0  0  0  0  0
    9.8180   -2.5020   48.6540 C   0  0  0  0  0  0  0  0  0  0  0  0
   10.2390   -1.5020   46.5040 C   0  0  0  0  0  0  0  0  0  0  0  0
   11.0890   -2.1130   49.0850 C   0  0  0  0  0  0  0  0  0  0  0  0
   11.5100   -1.1110   46.9340 C   0  0  0  0  0  0  0  0  0  0  0  0
   11.9350   -1.4170   48.2250 C   0  0  0  0  0  0  0  0  0  0  0  0
  1 16  1  0
  1  7  2  0
  1  2  1  0
  2  3  2  0
  3  4  1  0
  4  5  2  0
  4 15  1  0
  5  7  1  0
  5  6  1  0
  6  8  1  0
  8 21  1  1
  8  9  1  0
  9 10  1  0
  9 14  2  0
 10 11  2  0
 11 27  1  0
 11 12  1  0
 12 13  2  0
 13 14  1  0
 13 22  1  0
 14 15  1  0
 16 17  2  3
 17 18  1  0
 18 19  1  0
 18 20  1  0
 22 23  2  3
 23 24  1  0
 24 26  2  0
 24 25  1  0
 27 29  1  0
 27 28  2  0
 28 30  1  0
 29 31  2  0
 30 32  2  0
 31 32  1  0
M  END
>  <vina_dock>  (489) 
-9.324

$$$$
O14757_PocketFlow_idx-in-all-generaetd-583
     RDKit          3D

 25 28  0  0  0  0  0  0  0  0999 V2000
    4.6830   -3.8470   44.9820 C   0  0  0  0  0  0  0  0  0  0  0  0
    4.5410   -2.5910   44.1670 C   0  0  0  0  0  0  0  0  0  0  0  0
    3.3570   -1.2300   42.5460 C   0  0  0  0  0  0  0  0  0  0  0  0
    3.4700   -2.4070   43.2840 C   0  0  0  0  0  0  0  0  0  0  0  0
    4.3410   -0.2680   42.7250 C   0  0  0  0  0  0  0  0  0  0  0  0
    5.3950   -0.4040   43.5680 N   0  0  0  0  0  0  0  0  0  0  0  0
    5.4680   -1.5580   44.2670 C   0  0  0  0  0  0  0  0  0  0  0  0
    2.2750   -1.1590   41.7160 O   0  0  0  0  0  0  0  0  0  0  0  0
    1.3390   -2.2280   41.8030 C   0  0  0  0  0  0  0  0  0  0  0  0
    3.4160   -4.6530   45.0830 C   0  0  0  0  0  0  0  0  0  0  0  0
    3.3440   -5.9460   44.5830 C   0  0  0  0  0  0  0  0  0  0  0  0
    2.2610   -4.1360   45.6710 C   0  0  0  0  0  0  0  0  0  0  0  0
    2.2390   -6.7250   44.6380 N   0  0  0  0  0  0  0  0  0  0  0  0
    1.1080   -4.9180   45.7380 C   0  0  0  0  0  0  0  0  0  0  0  0
    1.1250   -6.2130   45.2210 C   0  0  0  0  0  0  0  0  0  0  0  0
   -0.0520   -7.1080   45.2530 C   0  0  0  0  0  0  0  0  0  0  0  0
   -0.9570   -7.1390   44.1790 C   0  0  0  0  0  0  0  0  0  0  0  0
   -0.3120   -7.9650   46.3390 C   0  0  0  0  0  0  0  0  0  0  0  0
   -2.0790   -7.9730   44.1900 C   0  0  0  0  0  0  0  0  0  0  0  0
   -1.4370   -8.8130   46.3710 C   0  0  0  0  0  0  0  0  0  0  0  0
   -2.3330   -8.8130   45.2800 C   0  0  0  0  0  0  0  0  0  0  0  0
   -1.6870   -9.6620   47.4620 C   0  0  0  0  0  0  0  0  0  0  0  0
   -3.4560   -9.6560   45.3110 C   0  0  0  0  0  0  0  0  0  0  0  0
   -2.8070  -10.4950   47.4770 C   0  0  0  0  0  0  0  0  0  0  0  0
   -3.6910  -10.4920   46.4030 C   0  0  0  0  0  0  0  0  0  0  0  0
  1  2  1  0
  1 10  1  0
  2  4  2  0
  2  7  1  0
  3  8  1  0
  3  5  2  0
  3  4  1  0
  5  6  1  0
  6  7  2  0
  8  9  1  0
 10 11  2  0
 10 12  1  0
 11 13  1  0
 12 14  2  0
 13 15  2  0
 14 15  1  0
 15 16  1  0
 16 17  2  0
 16 18  1  0
 17 19  1  0
 18 20  2  0
 19 21  2  0
 20 21  1  0
 20 22  1  0
 21 23  1  0
 22 24  2  0
 23 25  2  0
 24 25  1  0
M  END
>  <vina_dock>  (490) 
-9.238

$$$$
O14757_PocketFlow_idx-in-all-generaetd-930
     RDKit          3D

 35 39  0  0  0  0  0  0  0  0999 V2000
    4.0530   -0.8870   42.7960 C   0  0  0  0  0  0  0  0  0  0  0  0
    2.7800   -1.3870   42.5020 C   0  0  0  0  0  0  0  0  0  0  0  0
    2.3550   -2.5440   43.1640 C   0  0  0  0  0  0  0  0  0  0  0  0
    1.0820   -3.0030   42.8400 C   0  0  0  0  0  0  0  0  0  0  0  0
    0.6150   -4.1450   43.4700 C   0  0  0  0  0  0  0  0  0  0  0  0
    4.8470   -1.5000   43.7730 C   0  0  0  0  0  0  0  0  0  0  0  0
    4.4400   -2.6800   44.4320 C   0  0  0  0  0  0  0  0  0  0  0  0
    3.1600   -3.2070   44.1250 C   0  0  0  0  0  0  0  0  0  0  0  0
    1.3760   -4.8800   44.3950 C   0  0  0  0  0  0  0  0  0  0  0  0
    2.6560   -4.3700   44.7690 C   0  0  0  0  0  0  0  0  0  0  0  0
    3.4630   -4.9570   45.7700 C   0  0  0  0  0  0  0  0  0  0  0  0
    4.7240   -4.4570   46.0840 C   0  0  0  0  0  0  0  0  0  0  0  0
    5.2210   -3.3480   45.4030 C   0  0  0  0  0  0  0  0  0  0  0  0
    2.0120   -0.7650   41.5910 N   0  0  0  0  0  0  0  0  0  0  0  0
    0.8050   -1.2930   41.3660 C   0  0  0  0  0  0  0  0  0  0  0  0
    0.3020   -2.3870   41.9450 N   0  0  0  0  0  0  0  0  0  0  0  0
    4.4690    0.3560   42.2580 N   0  0  0  0  0  0  0  0  0  0  0  0
    6.6020   -2.9370   45.7500 C   0  0  0  0  0  0  0  0  0  0  0  0
    6.9120   -1.7550   45.7530 O   0  0  0  0  0  0  0  0  0  0  0  0
    7.4410   -3.9670   46.1150 N   0  0  0  0  0  0  0  0  0  0  0  0
    8.8120   -3.7230   46.5180 C   0  0  0  0  0  0  0  0  0  0  0  0
    9.0610   -4.1260   47.9720 C   0  0  0  0  0  0  0  0  0  0  0  0
    8.0900   -5.1830   48.4340 C   0  0  0  0  0  0  0  0  0  0  0  0
    6.8610   -4.8160   48.9950 C   0  0  0  0  0  0  0  0  0  0  0  0
    8.3940   -6.5430   48.2860 C   0  0  0  0  0  0  0  0  0  0  0  0
    5.9560   -5.7930   49.4120 C   0  0  0  0  0  0  0  0  0  0  0  0
    7.4870   -7.5180   48.7030 C   0  0  0  0  0  0  0  0  0  0  0  0
    6.2700   -7.1450   49.2680 C   0  0  0  0  0  0  0  0  0  0  0  0
    0.8580   -6.0210   45.0280 N   0  0  0  0  0  0  0  0  0  0  0  0
   -0.1160   -5.9670   46.1160 C   0  0  0  0  0  0  0  0  0  0  0  0
   -1.2700   -6.9570   45.9320 C   0  0  0  0  0  0  0  0  0  0  0  0
   -1.3300   -7.6350   44.5590 C   0  0  0  0  0  0  0  0  0  0  0  0
   -2.7270   -7.9870   44.1290 C   0  0  0  0  0  0  0  0  0  0  0  0
   -3.5230   -8.9350   44.6520 C   0  0  0  0  0  0  0  0  0  0  0  0
   -3.1960   -9.8920   45.7520 C   0  0  0  0  0  0  0  0  0  0  0  0
  1 17  1  0
  1  2  2  0
  1  6  1  0
  2 14  1  0
  2  3  1  0
  3  4  1  0
  3  8  2  0
  4 16  2  0
  4  5  1  0
  5  9  2  0
  6  7  2  0
  7  8  1  0
  7 13  1  0
  8 10  1  0
  9 10  1  0
  9 29  1  0
 10 11  2  0
 11 12  1  0
 12 13  2  0
 13 18  1  0
 14 15  2  0
 15 16  1  0
 18 19  2  0
 18 20  1  0
 20 21  1  0
 21 22  1  0
 22 23  1  0
 23 25  1  0
 23 24  2  0
 24 26  1  0
 25 27  2  0
 26 28  2  0
 27 28  1  0
 29 30  1  0
 30 31  1  0
 31 32  1  0
 32 33  1  0
 33 34  2  3
 34 35  1  0
M  END
>  <vina_dock>  (491) 
-9.271

$$$$
O14757_PocketFlow_idx-in-all-generaetd-839
     RDKit          3D

 35 40  0  0  0  0  0  0  0  0999 V2000
   11.0190   -1.4880   47.0030 C   0  0  0  0  0  0  0  0  0  0  0  0
   10.8070   -2.6980   47.6770 C   0  0  0  0  0  0  0  0  0  0  0  0
    9.9940   -0.9970   46.1790 C   0  0  0  0  0  0  0  0  0  0  0  0
    8.7780   -1.6840   46.0280 C   0  0  0  0  0  0  0  0  0  0  0  0
    8.5790   -2.8980   46.7170 C   0  0  0  0  0  0  0  0  0  0  0  0
    9.6030   -3.3930   47.5370 C   0  0  0  0  0  0  0  0  0  0  0  0
    7.7540   -1.1870   45.2080 C   0  0  0  0  0  0  0  0  0  0  0  0
    6.5460   -1.8820   45.0670 C   0  0  0  0  0  0  0  0  0  0  0  0
    6.3310   -3.0940   45.7430 C   0  0  0  0  0  0  0  0  0  0  0  0
    7.3620   -3.5840   46.5660 C   0  0  0  0  0  0  0  0  0  0  0  0
    5.2240   -1.1060   43.9380 Br  0  0  0  0  0  0  0  0  0  0  0  0
   12.3360   -0.7490   47.1630 C   0  0  1  0  0  0  0  0  0  0  0  0
   12.2710    0.5720   46.5050 N   0  0  0  0  0  0  0  0  0  0  0  0
   12.7820   -0.6030   48.6520 C   0  0  0  0  0  0  0  0  0  0  0  0
   11.9870    0.3790   49.4090 N   0  0  0  0  0  0  0  0  0  0  0  0
    5.0880   -3.8690   45.6320 C   0  0  0  0  0  0  0  0  0  0  0  0
    4.1110   -3.5330   44.6870 C   0  0  0  0  0  0  0  0  0  0  0  0
    4.8570   -4.9710   46.4540 C   0  0  0  0  0  0  0  0  0  0  0  0
    2.9210   -4.2710   44.5600 C   0  0  0  0  0  0  0  0  0  0  0  0
    3.6750   -5.7140   46.3360 C   0  0  0  0  0  0  0  0  0  0  0  0
    2.6710   -5.3930   45.3900 C   0  0  0  0  0  0  0  0  0  0  0  0
    1.9770   -3.8900   43.6040 C   0  0  0  0  0  0  0  0  0  0  0  0
    1.4390   -6.1270   45.2310 C   0  0  0  0  0  0  0  0  0  0  0  0
    0.7890   -4.5990   43.4540 C   0  0  0  0  0  0  0  0  0  0  0  0
    1.0780   -7.2660   46.0020 C   0  0  0  0  0  0  0  0  0  0  0  0
    0.5100   -5.7100   44.2550 C   0  0  0  0  0  0  0  0  0  0  0  0
   -0.1350   -7.9910   45.8470 C   0  0  0  0  0  0  0  0  0  0  0  0
   -0.6960   -6.4050   44.0830 C   0  0  0  0  0  0  0  0  0  0  0  0
   -0.5270   -9.1380   46.6020 C   0  0  0  0  0  0  0  0  0  0  0  0
   -1.0290   -7.5260   44.8570 C   0  0  0  0  0  0  0  0  0  0  0  0
   -1.7590   -9.7710   46.3660 C   0  0  0  0  0  0  0  0  0  0  0  0
   -2.2530   -8.1780   44.6390 C   0  0  0  0  0  0  0  0  0  0  0  0
   -2.6180   -9.2920   45.3880 C   0  0  0  0  0  0  0  0  0  0  0  0
    0.2980   -9.7600   47.6770 C   0  0  0  0  0  0  0  0  0  0  0  0
    0.3940   -9.3490   48.8240 O   0  0  0  0  0  0  0  0  0  0  0  0
  1  3  2  0
  1 12  1  0
  1  2  1  0
  2  6  2  0
  3  4  1  0
  4  7  2  0
  4  5  1  0
  5 10  2  0
  5  6  1  0
  7  8  1  0
  8 11  1  0
  8  9  2  0
  9 16  1  0
  9 10  1  0
 12 13  1  1
 12 14  1  0
 14 15  1  0
 16 17  2  0
 16 18  1  0
 17 19  1  0
 18 20  2  0
 19 22  2  0
 19 21  1  0
 20 21  1  0
 21 23  2  0
 22 24  1  0
 23 26  1  0
 23 25  1  0
 24 26  2  0
 25 27  2  0
 26 28  1  0
 27 30  1  0
 27 29  1  0
 28 30  2  0
 29 31  2  0
 29 34  1  0
 30 32  1  0
 31 33  1  0
 32 33  2  0
 34 35  2  0
M  END
>  <vina_dock>  (492) 
-9.732

$$$$
O14757_PocketFlow_idx-in-all-generaetd-574
     RDKit          3D

 35 41  0  0  0  0  0  0  0  0999 V2000
    4.3820   -1.4480   43.4120 C   0  0  0  0  0  0  0  0  0  0  0  0
    5.4020   -0.8720   42.7550 C   0  0  0  0  0  0  0  0  0  0  0  0
    3.0690   -1.5540   42.7650 C   0  0  0  0  0  0  0  0  0  0  0  0
    1.2440   -4.5240   43.7550 C   0  0  0  0  0  0  0  0  0  0  0  0
    0.3840   -3.9570   42.9260 N   0  0  0  0  0  0  0  0  0  0  0  0
    2.3760   -3.7470   43.8510 N   0  0  0  0  0  0  0  0  0  0  0  0
    0.9790   -2.8030   42.4790 C   0  0  0  0  0  0  0  0  0  0  0  0
    2.2380   -2.6480   43.0410 C   0  0  0  0  0  0  0  0  0  0  0  0
    0.4950   -1.8310   41.5910 C   0  0  0  0  0  0  0  0  0  0  0  0
    1.3020   -0.7240   41.3010 C   0  0  0  0  0  0  0  0  0  0  0  0
    2.5660   -0.5880   41.8820 C   0  0  0  0  0  0  0  0  0  0  0  0
    1.0260   -5.7850   44.4770 C   0  0  0  0  0  0  0  0  0  0  0  0
   -3.1960   -9.9250   48.3420 N   0  0  0  0  0  0  0  0  0  0  0  0
   -1.8780   -9.9760   48.7020 C   0  0  0  0  0  0  0  0  0  0  0  0
   -3.1990   -9.3950   47.1430 C   0  0  0  0  0  0  0  0  0  0  0  0
   -1.3280  -10.4420   49.9060 C   0  0  0  0  0  0  0  0  0  0  0  0
   -1.0420   -9.5120   47.6830 C   0  0  0  0  0  0  0  0  0  0  0  0
   -1.9400   -9.0300   46.7130 N   0  0  0  0  0  0  0  0  0  0  0  0
    0.0580  -10.4550   50.0610 C   0  0  0  0  0  0  0  0  0  0  0  0
    0.3810   -9.5880   47.7830 C   0  0  0  0  0  0  0  0  0  0  0  0
   -1.7160   -8.2240   45.5700 C   0  0  0  0  0  0  0  0  0  0  0  0
    0.8860  -10.0510   49.0170 C   0  0  0  0  0  0  0  0  0  0  0  0
    1.2300   -9.3000   46.5250 C   0  0  1  0  0  0  0  0  0  0  0  0
   -0.4260   -7.6040   45.2420 C   0  0  0  0  0  0  0  0  0  0  0  0
   -2.6810   -7.9620   44.8550 O   0  0  0  0  0  0  0  0  0  0  0  0
    0.6850   -8.1630   45.7720 C   0  0  0  0  0  0  0  0  0  0  0  0
    2.4070   -8.4370   46.6810 N   0  0  0  0  0  0  0  0  0  0  0  0
   -0.2580   -6.4060   44.5420 C   0  0  0  0  0  0  0  0  0  0  0  0
    1.8840   -7.5350   45.8060 C   0  0  0  0  0  0  0  0  0  0  0  0
    2.1200   -6.3650   45.1640 C   0  0  0  0  0  0  0  0  0  0  0  0
    4.5010   -1.9430   44.8360 C   0  0  0  0  0  0  0  0  0  0  0  0
    5.6010   -3.0010   45.0000 C   0  0  0  0  0  0  0  0  0  0  0  0
    6.7450   -2.4820   45.8270 C   0  0  0  0  0  0  0  0  0  0  0  0
    7.6490   -1.5970   45.3820 C   0  0  0  0  0  0  0  0  0  0  0  0
    8.7830   -1.0740   46.2040 C   0  0  0  0  0  0  0  0  0  0  0  0
  1  2  2  0
  1  3  1  0
  1 31  1  0
  3 11  2  0
  3  8  1  0
  4  5  2  0
  4  6  1  0
  4 12  1  0
  5  7  1  0
  6  8  1  0
  7  9  1  0
  7  8  2  0
  9 10  2  0
 10 11  1  0
 12 28  2  0
 12 30  1  0
 13 15  2  0
 13 14  1  0
 14 17  2  0
 14 16  1  0
 15 18  1  0
 16 19  2  0
 17 18  1  0
 17 20  1  0
 18 21  1  0
 19 22  1  0
 20 23  1  0
 20 22  2  0
 21 25  2  0
 21 24  1  0
 23 26  1  0
 23 27  1  1
 24 28  1  0
 24 26  2  0
 26 29  1  0
 27 29  1  0
 29 30  2  0
 31 32  1  0
 32 33  1  0
 33 34  2  3
 34 35  1  0
M  END
>  <vina_dock>  (493) 
-11.053

$$$$
O14757_PocketFlow_idx-in-all-generaetd-909
     RDKit          3D

 35 38  0  0  0  0  0  0  0  0999 V2000
    3.9100   -4.7060   44.9560 N   0  0  0  0  0  0  0  0  0  0  0  0
    4.0370   -3.7120   46.0220 C   0  0  0  0  0  0  0  0  0  0  0  0
    5.4290   -3.1340   46.0130 C   0  0  0  0  0  0  0  0  0  0  0  0
   10.3910   -2.0370   46.5570 C   0  0  0  0  0  0  0  0  0  0  0  0
    9.3220   -1.4660   45.8580 C   0  0  0  0  0  0  0  0  0  0  0  0
   10.1740   -3.1780   47.3290 C   0  0  0  0  0  0  0  0  0  0  0  0
    8.0360   -2.0290   45.9160 C   0  0  0  0  0  0  0  0  0  0  0  0
    8.8990   -3.7510   47.3900 C   0  0  0  0  0  0  0  0  0  0  0  0
    7.8070   -3.2030   46.6770 C   0  0  0  0  0  0  0  0  0  0  0  0
    6.9740   -1.4330   45.2250 C   0  0  0  0  0  0  0  0  0  0  0  0
    6.4940   -3.7440   46.6900 C   0  0  0  0  0  0  0  0  0  0  0  0
    5.6950   -1.9780   45.2840 C   0  0  0  0  0  0  0  0  0  0  0  0
    4.7110   -1.3590   44.6180 F   0  0  0  0  0  0  0  0  0  0  0  0
   11.7220   -1.3940   46.4540 C   0  0  0  0  0  0  0  0  0  0  0  0
   12.7710   -1.9640   46.2170 O   0  0  0  0  0  0  0  0  0  0  0  0
   11.6790   -0.0660   46.6610 O   0  0  0  0  0  0  0  0  0  0  0  0
    6.2100   -4.9050   47.3670 O   0  0  0  0  0  0  0  0  0  0  0  0
    2.7380   -5.4840   44.8890 C   0  0  0  0  0  0  0  0  0  0  0  0
    2.6660   -6.7370   45.5210 C   0  0  0  0  0  0  0  0  0  0  0  0
    1.5430   -4.9760   44.3280 C   0  0  0  0  0  0  0  0  0  0  0  0
    1.4810   -7.4840   45.5470 C   0  0  0  0  0  0  0  0  0  0  0  0
    0.3530   -5.7330   44.3660 C   0  0  0  0  0  0  0  0  0  0  0  0
    0.3060   -6.9970   44.9660 C   0  0  0  0  0  0  0  0  0  0  0  0
    1.4280   -3.6470   43.6700 C   0  0  0  0  0  0  0  0  0  0  0  0
    2.3480   -3.0220   43.1700 O   0  0  0  0  0  0  0  0  0  0  0  0
    0.1920   -3.1110   43.7040 O   0  0  0  0  0  0  0  0  0  0  0  0
   -0.9400   -7.7790   44.9990 C   0  0  0  0  0  0  0  0  0  0  0  0
   -1.2120   -8.6560   46.0670 C   0  0  0  0  0  0  0  0  0  0  0  0
   -1.8850   -7.6690   43.9670 C   0  0  0  0  0  0  0  0  0  0  0  0
   -2.3920   -9.4020   46.1050 C   0  0  0  0  0  0  0  0  0  0  0  0
   -3.0600   -8.4190   43.9930 C   0  0  0  0  0  0  0  0  0  0  0  0
   -3.3070   -9.2840   45.0580 C   0  0  0  0  0  0  0  0  0  0  0  0
   -2.7620  -10.2850   47.0820 O   0  0  0  0  0  0  0  0  0  0  0  0
   -3.3900   -9.7800   48.2590 C   0  0  0  0  0  0  0  0  0  0  0  0
   -2.4200   -9.7780   49.4270 C   0  0  0  0  0  0  0  0  0  0  0  0
  1 18  1  0
  1  2  1  0
  2  3  1  0
  3 12  2  0
  3 11  1  0
  4  5  2  0
  4 14  1  0
  4  6  1  0
  5  7  1  0
  6  8  2  0
  7 10  2  0
  7  9  1  0
  8  9  1  0
  9 11  2  0
 10 12  1  0
 11 17  1  0
 12 13  1  0
 14 15  2  0
 14 16  1  0
 18 20  1  0
 18 19  2  0
 19 21  1  0
 20 24  1  0
 20 22  2  0
 21 23  2  0
 22 23  1  0
 23 27  1  0
 24 25  2  0
 24 26  1  0
 27 29  1  0
 27 28  2  0
 28 30  1  0
 29 31  2  0
 30 32  2  0
 30 33  1  0
 31 32  1  0
 33 34  1  0
 34 35  1  0
M  END
>  <vina_dock>  (494) 
-9.239

$$$$
O14757_PocketFlow_idx-in-all-generaetd-951
     RDKit          3D

 24 26  0  0  0  0  0  0  0  0999 V2000
    1.6920   -4.3510   44.1680 C   0  0  0  0  0  0  0  0  0  0  0  0
    0.6430   -3.8760   43.3770 C   0  0  0  0  0  0  0  0  0  0  0  0
    0.8310   -2.7650   42.5530 C   0  0  0  0  0  0  0  0  0  0  0  0
    2.0680   -2.1020   42.4950 C   0  0  0  0  0  0  0  0  0  0  0  0
    3.1300   -2.5690   43.3000 C   0  0  0  0  0  0  0  0  0  0  0  0
    2.9270   -3.6930   44.1230 C   0  0  0  0  0  0  0  0  0  0  0  0
    1.4960   -5.5510   45.0660 C   0  0  0  0  0  0  0  0  0  0  0  0
    0.0340   -6.0280   45.1230 C   0  0  1  0  0  0  0  0  0  0  0  0
   -0.0670   -7.5080   44.7770 C   0  0  1  0  0  0  0  0  0  0  0  0
    0.0600   -8.2420   46.1140 C   0  0  0  0  0  0  0  0  0  0  0  0
   -1.3200   -7.7430   44.2840 F   0  0  0  0  0  0  0  0  0  0  0  0
   -0.5540   -6.0210   46.5320 C   0  0  0  0  0  0  0  0  0  0  0  0
    0.0240   -7.2110   47.1650 N   0  0  0  0  0  0  0  0  0  0  0  0
    4.5000   -1.9240   43.2960 C   0  0  0  0  0  0  0  0  0  0  0  0
    4.8000   -1.2170   44.6220 C   0  0  0  0  0  0  0  0  0  0  0  0
    5.7100   -2.0460   45.4940 C   0  0  0  0  0  0  0  0  0  0  0  0
    5.1710   -2.8870   46.4780 C   0  0  0  0  0  0  0  0  0  0  0  0
    7.0990   -2.0110   45.3130 C   0  0  0  0  0  0  0  0  0  0  0  0
    6.0080   -3.6720   47.2720 C   0  0  0  0  0  0  0  0  0  0  0  0
    7.9340   -2.7960   46.1070 C   0  0  0  0  0  0  0  0  0  0  0  0
    7.3900   -3.6260   47.0870 C   0  0  0  0  0  0  0  0  0  0  0  0
    2.2080   -0.8900   41.6000 C   0  0  0  0  0  0  0  0  0  0  0  0
    1.0930   -0.6390   40.8580 F   0  0  0  0  0  0  0  0  0  0  0  0
    2.4530    0.2660   42.2840 F   0  0  0  0  0  0  0  0  0  0  0  0
  1  2  2  0
  1  6  1  0
  1  7  1  0
  2  3  1  0
  3  4  2  0
  4 22  1  0
  4  5  1  0
  5 14  1  0
  5  6  2  0
  8  7  1  1
  8  9  1  0
  8 12  1  0
  9 11  1  1
  9 10  1  0
 10 13  1  0
 12 13  1  0
 14 15  1  0
 15 16  1  0
 16 18  1  0
 16 17  2  0
 17 19  1  0
 18 20  2  0
 19 21  2  0
 20 21  1  0
 22 23  1  0
 22 24  1  0
M  END
>  <vina_dock>  (495) 
-8.886

$$$$
O14757_PocketFlow_idx-in-all-generaetd-473
     RDKit          3D

 30 33  0  0  0  0  0  0  0  0999 V2000
    4.7490   -3.4130   45.0230 C   0  0  0  0  0  0  0  0  0  0  0  0
    5.5920   -3.7440   46.0990 C   0  0  0  0  0  0  0  0  0  0  0  0
    6.7550   -3.0070   46.3890 C   0  0  0  0  0  0  0  0  0  0  0  0
    7.0570   -1.8970   45.5870 C   0  0  0  0  0  0  0  0  0  0  0  0
    5.0940   -2.3060   44.2340 C   0  0  0  0  0  0  0  0  0  0  0  0
    6.2350   -1.5540   44.5140 C   0  0  0  0  0  0  0  0  0  0  0  0
    3.5400   -4.2010   44.7370 C   0  0  0  0  0  0  0  0  0  0  0  0
    1.2060   -5.7200   44.1980 C   0  0  0  0  0  0  0  0  0  0  0  0
    1.1920   -4.3250   44.0800 C   0  0  0  0  0  0  0  0  0  0  0  0
    2.3960   -6.3500   44.5790 C   0  0  0  0  0  0  0  0  0  0  0  0
    2.3440   -3.5780   44.3480 C   0  0  0  0  0  0  0  0  0  0  0  0
    3.5460   -5.6000   44.8470 C   0  0  0  0  0  0  0  0  0  0  0  0
   -0.0380   -6.5280   43.9020 C   0  0  0  0  0  0  0  0  0  0  0  0
   -0.6800   -7.1480   45.1240 C   0  0  0  0  0  0  0  0  0  0  0  0
   -2.2240   -8.7320   46.1180 C   0  0  0  0  0  0  0  0  0  0  0  0
   -3.3940   -9.9810   45.9350 Cl  0  0  0  0  0  0  0  0  0  0  0  0
   -1.8790   -8.2910   47.3940 C   0  0  0  0  0  0  0  0  0  0  0  0
   -1.6320   -8.1680   44.9870 C   0  0  0  0  0  0  0  0  0  0  0  0
   -0.9360   -7.2750   47.5410 C   0  0  0  0  0  0  0  0  0  0  0  0
   -0.3410   -6.7040   46.4130 C   0  0  0  0  0  0  0  0  0  0  0  0
    7.6180   -3.4170   47.5860 C   0  0  2  0  0  0  0  0  0  0  0  0
    9.0450   -2.9640   47.3660 C   0  0  0  0  0  0  0  0  0  0  0  0
    9.9440   -3.4960   46.5180 C   0  0  0  0  0  0  0  0  0  0  0  0
    9.6710   -1.7950   48.0820 C   0  0  0  0  0  0  0  0  0  0  0  0
   11.1760   -2.7570   46.5930 C   0  0  0  0  0  0  0  0  0  0  0  0
   11.0470   -1.7670   47.4850 C   0  0  0  0  0  0  0  0  0  0  0  0
    7.5000   -4.9210   47.9670 C   0  0  1  0  0  0  0  0  0  0  0  0
    8.9390   -5.4180   49.2320 Br  0  0  0  0  0  0  0  0  0  0  0  0
    6.2230   -5.2820   48.6890 C   0  0  0  0  0  0  0  0  0  0  0  0
    5.6530   -6.4960   48.6610 C   0  0  0  0  0  0  0  0  0  0  0  0
  1  5  1  0
  1  7  1  0
  1  2  2  0
  2  3  1  0
  3  4  2  0
 21  3  1  6
  4  6  1  0
  5  6  2  0
  7 11  2  0
  7 12  1  0
  8 13  1  0
  8  9  2  0
  8 10  1  0
  9 11  1  0
 10 12  2  0
 13 14  1  0
 14 18  1  0
 14 20  2  0
 15 18  2  0
 15 16  1  0
 15 17  1  0
 17 19  2  0
 19 20  1  0
 21 22  1  0
 21 27  1  0
 22 23  2  0
 22 24  1  0
 23 25  1  0
 24 26  1  0
 25 26  2  0
 27 29  1  0
 27 28  1  1
 29 30  2  0
M  END
>  <vina_dock>  (496) 
-8.795

$$$$
O14757_PocketFlow_idx-in-all-generaetd-873
     RDKit          3D

 27 28  0  0  0  0  0  0  0  0999 V2000
    3.2220   -5.3850   45.7330 C   0  0  0  0  0  0  0  0  0  0  0  0
    1.8740   -4.6600   45.7510 C   0  0  0  0  0  0  0  0  0  0  0  0
    0.8720   -5.2060   44.7260 C   0  0  0  0  0  0  0  0  0  0  0  0
    0.9770   -6.7090   44.4390 C   0  0  0  0  0  0  0  0  0  0  0  0
   -0.2020   -7.5090   44.9350 C   0  0  0  0  0  0  0  0  0  0  0  0
   -1.2030   -8.9780   46.6050 C   0  0  0  0  0  0  0  0  0  0  0  0
   -0.1120   -8.2500   46.1220 C   0  0  0  0  0  0  0  0  0  0  0  0
   -2.3990   -8.9740   45.8880 C   0  0  0  0  0  0  0  0  0  0  0  0
   -2.4990   -8.2460   44.7000 C   0  0  0  0  0  0  0  0  0  0  0  0
   -1.4090   -7.5160   44.2250 C   0  0  0  0  0  0  0  0  0  0  0  0
   -0.9700   -9.6430   47.7780 O   0  0  0  0  0  0  0  0  0  0  0  0
   -0.0750   -9.0310   48.6970 C   0  0  0  0  0  0  0  0  0  0  0  0
    4.0510   -4.9740   44.5150 C   0  0  0  0  0  0  0  0  0  0  0  0
    4.8870   -3.7260   44.8080 C   0  0  0  0  0  0  0  0  0  0  0  0
    4.4410   -2.5510   43.9730 C   0  0  0  0  0  0  0  0  0  0  0  0
    5.2280   -1.3990   43.8950 C   0  0  0  0  0  0  0  0  0  0  0  0
    3.2420   -2.6170   43.2410 C   0  0  0  0  0  0  0  0  0  0  0  0
    4.8190   -0.3280   43.1090 C   0  0  0  0  0  0  0  0  0  0  0  0
    2.8070   -1.5490   42.4360 C   0  0  0  0  0  0  0  0  0  0  0  0
    3.6220   -0.4010   42.3910 C   0  0  0  0  0  0  0  0  0  0  0  0
    1.5080   -1.6090   41.6110 C   0  0  0  0  0  0  0  0  0  0  0  0
    0.7480   -0.2640   41.5390 C   0  0  0  0  0  0  0  0  0  0  0  0
    1.8680   -1.9770   40.1480 C   0  0  0  0  0  0  0  0  0  0  0  0
    0.5630   -2.7130   42.1680 C   0  0  0  0  0  0  0  0  0  0  0  0
   -0.1300   -3.5640   41.1160 C   0  0  0  0  0  0  0  0  0  0  0  0
   -0.3380   -4.8180   41.5890 F   0  0  0  0  0  0  0  0  0  0  0  0
   -1.3650   -3.0430   40.8860 F   0  0  0  0  0  0  0  0  0  0  0  0
  1 13  1  0
  1  2  1  0
  2  3  1  0
  3  4  1  0
  4  5  1  0
  5 10  1  0
  5  7  2  0
  6  8  2  0
  6  7  1  0
  6 11  1  0
  8  9  1  0
  9 10  2  0
 11 12  1  0
 13 14  1  0
 14 15  1  0
 15 17  1  0
 15 16  2  0
 16 18  1  0
 17 19  2  0
 18 20  2  0
 19 21  1  0
 19 20  1  0
 21 23  1  0
 21 22  1  0
 21 24  1  0
 24 25  1  0
 25 27  1  0
 25 26  1  0
M  END
>  <vina_dock>  (497) 
-8.155

$$$$
O14757_PocketFlow_idx-in-all-generaetd-927
     RDKit          3D

 23 25  0  0  0  0  0  0  0  0999 V2000
    0.0680   -6.2970   44.9530 C   0  0  0  0  0  0  0  0  0  0  0  0
    0.6330   -5.6090   46.0420 C   0  0  0  0  0  0  0  0  0  0  0  0
    0.1420   -5.6410   43.7100 C   0  0  0  0  0  0  0  0  0  0  0  0
    0.7280   -4.3690   43.5510 C   0  0  0  0  0  0  0  0  0  0  0  0
    1.2700   -3.7270   44.6650 C   0  0  0  0  0  0  0  0  0  0  0  0
    1.2230   -4.3470   45.9080 C   0  0  0  0  0  0  0  0  0  0  0  0
   -0.5100   -7.5560   45.1060 N   0  0  0  0  0  0  0  0  0  0  0  0
    0.0290   -8.4840   46.0950 C   0  0  0  0  0  0  0  0  0  0  0  0
   -1.8180   -7.8880   44.5580 C   0  0  0  0  0  0  0  0  0  0  0  0
   -2.5740   -9.1390   45.5630 Cl  0  0  0  0  0  0  0  0  0  0  0  0
    0.7570   -3.7030   42.1940 C   0  0  0  0  0  0  0  0  0  0  0  0
    1.4990   -2.3860   42.1650 C   0  0  0  0  0  0  0  0  0  0  0  0
    0.8810   -1.2270   41.6730 C   0  0  0  0  0  0  0  0  0  0  0  0
    2.8250   -2.3070   42.6190 C   0  0  0  0  0  0  0  0  0  0  0  0
    1.5710   -0.0140   41.6440 C   0  0  0  0  0  0  0  0  0  0  0  0
    3.5250   -1.0940   42.5830 C   0  0  0  0  0  0  0  0  0  0  0  0
    2.8870    0.0530   42.1010 C   0  0  0  0  0  0  0  0  0  0  0  0
    4.9020   -1.0430   43.0840 C   0  0  0  0  0  0  0  0  0  0  0  0
    5.3480   -1.6220   44.2090 C   0  0  0  0  0  0  0  0  0  0  0  0
    4.5970   -2.3900   45.1710 C   0  0  0  0  0  0  0  0  0  0  0  0
    6.7750   -1.5570   44.6930 C   0  0  0  0  0  0  0  0  0  0  0  0
    5.3830   -2.8230   46.1600 C   0  0  0  0  0  0  0  0  0  0  0  0
    6.8010   -2.3890   45.9800 C   0  0  0  0  0  0  0  0  0  0  0  0
  1  3  2  0
  1  7  1  0
  1  2  1  0
  2  6  2  0
  3  4  1  0
  4 11  1  0
  4  5  2  0
  5  6  1  0
  7  9  1  0
  7  8  1  0
  9 10  1  0
 11 12  1  0
 12 13  2  0
 12 14  1  0
 13 15  1  0
 14 16  2  0
 15 17  2  0
 16 17  1  0
 16 18  1  0
 18 19  1  0
 19 21  2  0
 19 20  1  0
 20 22  1  0
 21 23  1  0
 22 23  2  0
M  END
>  <vina_dock>  (498) 
-8.614

$$$$
O14757_PocketFlow_idx-in-all-generaetd-959
     RDKit          3D

 14 14  0  0  0  0  0  0  0  0999 V2000
    1.5850   -4.4640   45.0840 C   0  0  1  0  0  0  0  0  0  0  0  0
    0.9760   -3.7240   43.8910 C   0  0  0  0  0  0  0  0  0  0  0  0
    0.5730   -5.3960   45.7790 C   0  0  0  0  0  0  0  0  0  0  0  0
    0.5620   -6.8140   45.1980 C   0  0  0  0  0  0  0  0  0  0  0  0
   -0.5700   -7.0460   44.1940 C   0  0  0  0  0  0  0  0  0  0  0  0
   -1.7610   -7.7860   44.7820 C   0  0  0  0  0  0  0  0  0  0  0  0
    2.7720   -5.2780   44.6100 C   0  0  0  0  0  0  0  0  0  0  0  0
    3.9920   -4.8220   44.2840 C   0  0  0  0  0  0  0  0  0  0  0  0
    4.4150   -3.4220   44.3530 C   0  0  0  0  0  0  0  0  0  0  0  0
    4.3380   -2.5960   43.2260 C   0  0  0  0  0  0  0  0  0  0  0  0
    4.8920   -2.9010   45.5590 C   0  0  0  0  0  0  0  0  0  0  0  0
    4.7420   -1.2620   43.3040 C   0  0  0  0  0  0  0  0  0  0  0  0
    5.2940   -1.5650   45.6360 C   0  0  0  0  0  0  0  0  0  0  0  0
    5.2190   -0.7470   44.5090 C   0  0  0  0  0  0  0  0  0  0  0  0
  1  2  1  6
  1  7  1  0
  1  3  1  0
  3  4  1  0
  4  5  1  0
  5  6  1  0
  7  8  2  3
  8  9  1  0
  9 10  2  0
  9 11  1  0
 10 12  1  0
 11 13  2  0
 12 14  2  0
 13 14  1  0
M  END
>  <vina_dock>  (499) 
-6.129

$$$$
O14757_PocketFlow_idx-in-all-generaetd-826
     RDKit          3D

 18 19  0  0  0  0  0  0  0  0999 V2000
    1.0250   -2.6340   42.2560 C   0  0  0  0  0  0  0  0  0  0  0  0
    1.2900   -3.3440   43.4370 C   0  0  0  0  0  0  0  0  0  0  0  0
    2.0000   -1.7820   41.7270 C   0  0  0  0  0  0  0  0  0  0  0  0
    2.5280   -3.2180   44.0880 C   0  0  0  0  0  0  0  0  0  0  0  0
    3.2270   -1.6360   42.3750 C   0  0  0  0  0  0  0  0  0  0  0  0
    3.4860   -2.3440   43.5510 C   0  0  0  0  0  0  0  0  0  0  0  0
   -0.2980   -2.8100   41.6110 C   0  0  0  0  0  0  0  0  0  0  0  0
   -1.1780   -1.9720   41.5400 O   0  0  0  0  0  0  0  0  0  0  0  0
   -0.4620   -4.0360   41.0810 O   0  0  0  0  0  0  0  0  0  0  0  0
    2.8190   -3.9620   45.3760 C   0  0  0  0  0  0  0  0  0  0  0  0
    2.1030   -5.2910   45.5300 C   0  0  0  0  0  0  0  0  0  0  0  0
    2.7880   -6.4590   45.1400 C   0  0  0  0  0  0  0  0  0  0  0  0
    0.7880   -5.3920   46.0390 C   0  0  0  0  0  0  0  0  0  0  0  0
    2.1710   -7.7030   45.2070 C   0  0  0  0  0  0  0  0  0  0  0  0
    0.1440   -6.6500   46.0320 C   0  0  0  0  0  0  0  0  0  0  0  0
    0.8540   -7.7970   45.6410 C   0  0  0  0  0  0  0  0  0  0  0  0
   -1.2910   -6.8060   46.4600 C   0  0  0  0  0  0  0  0  0  0  0  0
    0.0530   -4.2280   46.3460 N   0  0  0  0  0  0  0  0  0  0  0  0
  1  7  1  0
  1  3  2  0
  1  2  1  0
  2  4  2  0
  3  5  1  0
  4  6  1  0
  4 10  1  0
  5  6  2  0
  7  9  1  0
  7  8  2  0
 10 11  1  0
 11 12  2  0
 11 13  1  0
 12 14  1  0
 13 15  2  0
 13 18  1  0
 14 16  2  0
 15 16  1  0
 15 17  1  0
M  END
>  <vina_dock>  (500) 
-7.422

$$$$
O14757_PocketFlow_idx-in-all-generaetd-771
     RDKit          3D

 12 12  0  0  0  0  0  0  0  0999 V2000
    3.2130   -3.7290   43.9790 C   0  0  1  0  0  0  0  0  0  0  0  0
    2.6110   -4.0180   45.3610 C   0  0  0  0  0  0  0  0  0  0  0  0
    2.2080   -2.9920   43.1160 C   0  0  0  0  0  0  0  0  0  0  0  0
    1.5980   -1.2440   41.5620 C   0  0  0  0  0  0  0  0  0  0  0  0
    0.3000   -1.7220   41.6040 C   0  0  0  0  0  0  0  0  0  0  0  0
    2.5630   -1.8890   42.3310 C   0  0  0  0  0  0  0  0  0  0  0  0
   -0.0870   -2.7790   42.3490 N   0  0  0  0  0  0  0  0  0  0  0  0
    0.8720   -3.3870   43.0840 C   0  0  0  0  0  0  0  0  0  0  0  0
    4.5560   -3.0210   43.9830 C   0  0  0  0  0  0  0  0  0  0  0  0
    5.1280   -2.3650   45.0060 C   0  0  0  0  0  0  0  0  0  0  0  0
    6.4160   -1.7240   44.8970 C   0  0  0  0  0  0  0  0  0  0  0  0
    7.4520   -2.0300   45.6880 C   0  0  0  0  0  0  0  0  0  0  0  0
  1  3  1  0
  1  9  1  0
  1  2  1  1
  3  6  2  0
  3  8  1  0
  4  5  2  0
  4  6  1  0
  5  7  1  0
  7  8  2  0
  9 10  2  3
 10 11  1  0
 11 12  2  0
M  END
>  <vina_dock>  (501) 
-6.004

$$$$
O14757_PocketFlow_idx-in-all-generaetd-753
     RDKit          3D

 22 23  0  0  0  0  0  0  0  0999 V2000
    3.9230   -1.9350   43.4790 C   0  0  0  0  0  0  0  0  0  0  0  0
    2.7870   -2.6360   43.3610 C   0  0  0  0  0  0  0  0  0  0  0  0
    1.7420   -2.3450   42.4020 C   0  0  0  0  0  0  0  0  0  0  0  0
    2.3560   -3.7840   44.1390 C   0  0  0  0  0  0  0  0  0  0  0  0
    1.1490   -4.1690   43.6760 C   0  0  0  0  0  0  0  0  0  0  0  0
    0.7750   -3.2560   42.5950 C   0  0  0  0  0  0  0  0  0  0  0  0
    4.9910   -2.2220   44.4400 C   0  0  0  0  0  0  0  0  0  0  0  0
    5.7590   -3.3820   46.4290 C   0  0  0  0  0  0  0  0  0  0  0  0
    7.0100   -2.7670   46.3020 C   0  0  0  0  0  0  0  0  0  0  0  0
    4.7490   -3.1060   45.4970 C   0  0  0  0  0  0  0  0  0  0  0  0
    7.2520   -1.8790   45.2530 C   0  0  0  0  0  0  0  0  0  0  0  0
    6.2440   -1.6060   44.3270 C   0  0  0  0  0  0  0  0  0  0  0  0
    5.5480   -4.3160   47.5620 C   0  0  0  0  0  0  0  0  0  0  0  0
    5.8900   -4.1270   48.7140 O   0  0  0  0  0  0  0  0  0  0  0  0
    4.9180   -5.4460   47.1980 O   0  0  0  0  0  0  0  0  0  0  0  0
    0.4080   -5.2760   44.2370 C   0  0  0  0  0  0  0  0  0  0  0  0
    0.9500   -6.4160   44.6940 C   0  0  0  0  0  0  0  0  0  0  0  0
    0.1500   -7.5450   45.2780 C   0  0  0  0  0  0  0  0  0  0  0  0
   -1.2040   -7.6430   44.6380 C   0  0  0  0  0  0  0  0  0  0  0  0
   -2.3200   -7.9910   45.2970 C   0  0  0  0  0  0  0  0  0  0  0  0
   -3.6100   -8.0840   44.6580 C   0  0  0  0  0  0  0  0  0  0  0  0
   -3.7600   -8.2320   43.3380 C   0  0  0  0  0  0  0  0  0  0  0  0
  1  2  1  0
  1  7  1  0
  2  3  2  0
  2  4  1  0
  3  6  1  0
  4  5  1  0
  5  6  2  0
  5 16  1  0
  7 12  2  0
  7 10  1  0
  8 10  2  0
  8  9  1  0
  8 13  1  0
  9 11  2  0
 11 12  1  0
 13 15  1  0
 13 14  2  0
 16 17  2  3
 17 18  1  0
 18 19  1  0
 19 20  2  3
 20 21  1  0
 21 22  2  0
M  END
>  <vina_dock>  (502) 
-8.79

$$$$
O14757_PocketFlow_idx-in-all-generaetd-464
     RDKit          3D

 32 35  0  0  0  0  0  0  0  0999 V2000
    3.3910   -1.5590   42.8940 C   0  0  0  0  0  0  0  0  0  0  0  0
    4.5740   -0.9220   42.9680 C   0  0  0  0  0  0  0  0  0  0  0  0
    3.0270   -2.8230   43.5020 C   0  0  0  0  0  0  0  0  0  0  0  0
    1.8450   -3.4610   43.3690 C   0  0  0  0  0  0  0  0  0  0  0  0
    0.6740   -3.0030   42.5430 C   0  0  0  0  0  0  0  0  0  0  0  0
    1.6460   -4.7340   44.1000 C   0  0  0  0  0  0  0  0  0  0  0  0
   -0.2780   -8.9630   46.1620 C   0  0  0  0  0  0  0  0  0  0  0  0
   -0.5540  -10.4420   46.9970 Cl  0  0  0  0  0  0  0  0  0  0  0  0
   -1.3240   -8.3470   45.4890 C   0  0  0  0  0  0  0  0  0  0  0  0
    0.9950   -8.3910   46.1660 C   0  0  0  0  0  0  0  0  0  0  0  0
   -1.0940   -7.1490   44.8140 C   0  0  0  0  0  0  0  0  0  0  0  0
    1.2550   -7.1780   45.4910 C   0  0  0  0  0  0  0  0  0  0  0  0
    0.1790   -6.5570   44.8050 C   0  0  0  0  0  0  0  0  0  0  0  0
    2.5310   -6.5580   45.4690 C   0  0  0  0  0  0  0  0  0  0  0  0
    0.3900   -5.3500   44.1210 C   0  0  0  0  0  0  0  0  0  0  0  0
    3.7210   -7.1590   46.1710 C   0  0  0  0  0  0  0  0  0  0  0  0
    2.7070   -5.3490   44.7730 C   0  0  0  0  0  0  0  0  0  0  0  0
    5.7660   -1.3640   43.6700 C   0  0  0  0  0  0  0  0  0  0  0  0
    5.9460   -1.4450   45.0030 C   0  0  0  0  0  0  0  0  0  0  0  0
    7.2160   -1.9330   45.5810 C   0  0  0  0  0  0  0  0  0  0  0  0
    7.3190   -3.2560   46.0300 C   0  0  0  0  0  0  0  0  0  0  0  0
    8.3310   -1.0960   45.7240 C   0  0  0  0  0  0  0  0  0  0  0  0
    8.5100   -3.7360   46.5860 C   0  0  0  0  0  0  0  0  0  0  0  0
    9.5220   -1.5780   46.2800 C   0  0  0  0  0  0  0  0  0  0  0  0
    9.6340   -2.9070   46.7180 C   0  0  0  0  0  0  0  0  0  0  0  0
   10.8890   -3.4100   47.3030 C   0  0  0  0  0  0  0  0  0  0  0  0
   12.1100   -3.2730   46.6230 C   0  0  0  0  0  0  0  0  0  0  0  0
   10.9000   -4.0430   48.5570 C   0  0  0  0  0  0  0  0  0  0  0  0
   13.3010   -3.7530   47.1750 C   0  0  0  0  0  0  0  0  0  0  0  0
   12.0900   -4.5230   49.1120 C   0  0  0  0  0  0  0  0  0  0  0  0
   13.2900   -4.3770   48.4200 C   0  0  0  0  0  0  0  0  0  0  0  0
    4.9950   -1.1230   45.9460 O   0  0  0  0  0  0  0  0  0  0  0  0
  1  2  2  3
  1  3  1  0
  2 18  1  0
  3  4  2  3
  4  5  1  0
  4  6  1  0
  6 15  2  0
  6 17  1  0
  7  9  2  0
  7 10  1  0
  7  8  1  0
  9 11  1  0
 10 12  2  0
 11 13  2  0
 12 13  1  0
 12 14  1  0
 13 15  1  0
 14 17  2  0
 14 16  1  0
 18 19  2  3
 19 20  1  0
 19 32  1  0
 20 22  1  0
 20 21  2  0
 21 23  1  0
 22 24  2  0
 23 25  2  0
 24 25  1  0
 25 26  1  0
 26 27  2  0
 26 28  1  0
 27 29  1  0
 28 30  2  0
 29 31  2  0
 30 31  1  0
M  END
>  <vina_dock>  (503) 
-9.708

$$$$
O14757_PocketFlow_idx-in-all-generaetd-32
     RDKit          3D

 35 36  0  0  0  0  0  0  0  0999 V2000
    5.7060   -4.4700   47.9950 C   0  0  0  0  0  0  0  0  0  0  0  0
    5.9500   -4.1250   49.1460 O   0  0  0  0  0  0  0  0  0  0  0  0
    5.4940   -5.7790   47.6170 N   0  0  0  0  0  0  0  0  0  0  0  0
    5.6730   -3.4590   46.9030 C   0  0  0  0  0  0  0  0  0  0  0  0
    5.6870   -1.5780   44.8210 C   0  0  0  0  0  0  0  0  0  0  0  0
    4.5850   -1.6730   45.6770 C   0  0  0  0  0  0  0  0  0  0  0  0
    6.7840   -2.4260   45.0120 C   0  0  0  0  0  0  0  0  0  0  0  0
    4.5760   -2.6070   46.7180 C   0  0  0  0  0  0  0  0  0  0  0  0
    6.7800   -3.3590   46.0540 C   0  0  0  0  0  0  0  0  0  0  0  0
    5.6750   -0.6000   43.7320 C   0  0  0  0  0  0  0  0  0  0  0  0
    4.7400   -0.5200   42.7710 C   0  0  0  0  0  0  0  0  0  0  0  0
    3.5470   -1.4160   42.5790 C   0  0  0  0  0  0  0  0  0  0  0  0
    2.2660   -0.5980   42.3980 C   0  0  0  0  0  0  0  0  0  0  0  0
    1.5060   -1.0300   41.1390 C   0  0  0  0  0  0  0  0  0  0  0  0
    1.2170   -2.5310   41.1160 C   0  0  0  0  0  0  0  0  0  0  0  0
   -0.2080   -2.8600   41.4720 C   0  0  0  0  0  0  0  0  0  0  0  0
   -1.1280   -2.0830   41.6610 O   0  0  0  0  0  0  0  0  0  0  0  0
   -0.4100   -4.1910   41.5500 O   0  0  0  0  0  0  0  0  0  0  0  0
    5.6080   -6.8690   48.5630 C   0  0  0  0  0  0  0  0  0  0  0  0
    5.5210   -8.2470   47.9040 C   0  0  0  0  0  0  0  0  0  0  0  0
    4.1200   -8.6580   47.4370 C   0  0  0  0  0  0  0  0  0  0  0  0
    3.4950   -9.8480   48.1680 C   0  0  0  0  0  0  0  0  0  0  0  0
    1.9700   -9.7750   48.2560 C   0  0  0  0  0  0  0  0  0  0  0  0
    1.3450   -9.9730   46.9040 C   0  0  0  0  0  0  0  0  0  0  0  0
    0.5230   -9.1310   46.2590 C   0  0  0  0  0  0  0  0  0  0  0  0
   -0.0050   -7.8050   46.7530 C   0  0  0  0  0  0  0  0  0  0  0  0
   -0.2720   -6.7960   45.6080 C   0  0  2  0  0  0  0  0  0  0  0  0
   -0.9670   -7.4870   44.4490 C   0  0  0  0  0  0  0  0  0  0  0  0
   -2.2490   -7.8760   44.4590 C   0  0  0  0  0  0  0  0  0  0  0  0
    0.9910   -6.0790   45.1370 C   0  0  0  0  0  0  0  0  0  0  0  0
    2.2420   -6.7180   45.1140 C   0  0  0  0  0  0  0  0  0  0  0  0
    0.9160   -4.7430   44.7120 C   0  0  0  0  0  0  0  0  0  0  0  0
    3.3830   -6.0370   44.6860 C   0  0  0  0  0  0  0  0  0  0  0  0
    2.0580   -4.0630   44.2860 C   0  0  0  0  0  0  0  0  0  0  0  0
    3.2920   -4.7100   44.2740 C   0  0  0  0  0  0  0  0  0  0  0  0
  1  4  1  0
  1  3  1  0
  1  2  2  0
  3 19  1  0
  4  9  2  0
  4  8  1  0
  5 10  1  0
  5  7  2  0
  5  6  1  0
  6  8  2  0
  7  9  1  0
 10 11  2  3
 11 12  1  0
 12 13  1  0
 13 14  1  0
 14 15  1  0
 15 16  1  0
 16 18  1  0
 16 17  2  0
 19 20  1  0
 20 21  1  0
 21 22  1  0
 22 23  1  0
 23 24  1  0
 24 25  2  3
 25 26  1  0
 27 26  1  1
 27 28  1  0
 27 30  1  0
 28 29  2  0
 30 32  1  0
 30 31  2  0
 31 33  1  0
 32 34  2  0
 33 35  2  0
 34 35  1  0
M  END
>  <vina_dock>  (504) 
-8.072

$$$$
O14757_PocketFlow_idx-in-all-generaetd-274
     RDKit          3D

 12 12  0  0  0  0  0  0  0  0999 V2000
    4.1750   -2.3790   43.7910 C   0  0  0  0  0  0  0  0  0  0  0  0
    5.0190   -1.3390   43.6910 C   0  0  0  0  0  0  0  0  0  0  0  0
    2.8510   -2.5010   43.1510 C   0  0  0  0  0  0  0  0  0  0  0  0
    0.3570   -2.6330   41.8400 C   0  0  0  0  0  0  0  0  0  0  0  0
    0.6330   -3.4810   42.9080 C   0  0  0  0  0  0  0  0  0  0  0  0
    1.3180   -1.7180   41.4210 C   0  0  0  0  0  0  0  0  0  0  0  0
    1.8700   -3.4160   43.5590 C   0  0  0  0  0  0  0  0  0  0  0  0
    2.5540   -1.6530   42.0720 C   0  0  0  0  0  0  0  0  0  0  0  0
    6.3040   -1.3120   44.3600 C   0  0  0  0  0  0  0  0  0  0  0  0
    6.6250   -2.1520   45.3560 C   0  0  0  0  0  0  0  0  0  0  0  0
    7.9070   -2.1240   46.0220 C   0  0  0  0  0  0  0  0  0  0  0  0
    8.7000   -1.0470   46.0300 C   0  0  0  0  0  0  0  0  0  0  0  0
  1  3  1  0
  1  2  2  3
  2  9  1  0
  3  8  2  0
  3  7  1  0
  4  6  2  0
  4  5  1  0
  5  7  2  0
  6  8  1  0
  9 10  2  3
 10 11  1  0
 11 12  2  0
M  END
>  <vina_dock>  (505) 
-6.474

$$$$
O14757_PocketFlow_idx-in-all-generaetd-781
     RDKit          3D

 31 34  0  0  0  0  0  0  0  0999 V2000
   -0.4100   -5.6170   46.3780 N   0  0  0  0  0  0  0  0  0  0  0  0
    0.7770   -4.8390   46.0180 C   0  0  0  0  0  0  0  0  0  0  0  0
    1.1340   -5.1140   44.5520 C   0  0  0  0  0  0  0  0  0  0  0  0
    2.5780   -4.7040   44.2070 C   0  0  1  0  0  0  0  0  0  0  0  0
    1.8460   -2.7630   42.7090 C   0  0  0  0  0  0  0  0  0  0  0  0
    1.8580   -1.3980   42.2020 C   0  0  0  0  0  0  0  0  0  0  0  0
    2.7400   -3.3560   43.5180 C   0  0  0  0  0  0  0  0  0  0  0  0
    2.9640   -0.6680   41.9730 C   0  0  0  0  0  0  0  0  0  0  0  0
    0.4910   -0.8310   41.9130 C   0  0  0  0  0  0  0  0  0  0  0  0
    3.9840   -2.7700   44.0240 C   0  0  0  0  0  0  0  0  0  0  0  0
    4.3890   -1.0850   42.1730 C   0  0  0  0  0  0  0  0  0  0  0  0
    3.4650   -4.5950   45.4710 C   0  0  0  0  0  0  0  0  0  0  0  0
    4.4120   -3.4760   45.1620 C   0  0  0  0  0  0  0  0  0  0  0  0
    4.7170   -1.7040   43.5040 C   0  0  2  0  0  0  0  0  0  0  0  0
    5.5350   -3.0520   45.8700 C   0  0  0  0  0  0  0  0  0  0  0  0
    5.8520   -1.2890   44.2130 C   0  0  0  0  0  0  0  0  0  0  0  0
    6.2400   -1.9390   45.3940 C   0  0  0  0  0  0  0  0  0  0  0  0
    6.0400   -3.6810   47.1150 C   0  0  0  0  0  0  0  0  0  0  0  0
    5.2460   -4.0170   48.0910 N   0  0  0  0  0  0  0  0  0  0  0  0
    7.5010   -3.9500   47.3380 C   0  0  0  0  0  0  0  0  0  0  0  0
    6.1030   -4.5920   49.1490 C   0  0  2  0  0  0  0  0  0  0  0  0
    7.5050   -4.0820   48.8450 C   0  0  0  0  0  0  0  0  0  0  0  0
    5.9920   -6.1120   49.1190 C   0  0  0  0  0  0  0  0  0  0  0  0
   -0.5670   -6.8210   45.5510 C   0  0  0  0  0  0  0  0  0  0  0  0
   -0.8200   -8.1160   46.3630 C   0  0  2  0  0  0  0  0  0  0  0  0
   -1.5480   -7.8560   47.6860 C   0  0  0  0  0  0  0  0  0  0  0  0
    0.4900   -8.8690   46.5130 C   0  0  0  0  0  0  0  0  0  0  0  0
    1.7020   -8.4790   46.0830 C   0  0  0  0  0  0  0  0  0  0  0  0
    2.8900   -9.2780   46.2820 C   0  0  0  0  0  0  0  0  0  0  0  0
    3.8050   -9.0040   47.2250 C   0  0  0  0  0  0  0  0  0  0  0  0
    5.0390   -9.8180   47.4450 C   0  0  0  0  0  0  0  0  0  0  0  0
  1 24  1  0
  1  2  1  0
  2  3  1  0
  4  3  1  1
  4  7  1  0
  4 12  1  0
  5  6  2  0
  5  7  1  0
  6  9  1  0
  6  8  1  0
  7 10  2  0
  8 11  2  0
 10 14  1  0
 10 13  1  0
 14 11  1  6
 12 13  1  0
 13 15  2  0
 14 16  1  0
 15 17  1  0
 15 18  1  0
 16 17  2  0
 18 20  1  0
 18 19  1  0
 19 21  1  0
 20 22  1  0
 21 22  1  0
 21 23  1  6
 24 25  1  0
 25 27  1  0
 25 26  1  1
 27 28  2  3
 28 29  1  0
 29 30  2  3
 30 31  1  0
M  END
>  <vina_dock>  (506) 
-9.12

$$$$
O14757_PocketFlow_idx-in-all-generaetd-485
     RDKit          3D

 13 14  0  0  0  0  0  0  0  0999 V2000
    3.7560   -3.0250   44.3860 C   0  0  0  0  0  0  0  0  0  0  0  0
    3.6200   -2.3780   43.1450 C   0  0  0  0  0  0  0  0  0  0  0  0
    4.3830   -1.2550   42.8290 C   0  0  0  0  0  0  0  0  0  0  0  0
    5.2970   -0.7570   43.7510 C   0  0  0  0  0  0  0  0  0  0  0  0
    4.6860   -2.5150   45.3200 C   0  0  0  0  0  0  0  0  0  0  0  0
    4.8780   -3.1610   46.6670 C   0  0  0  0  0  0  0  0  0  0  0  0
    5.4470   -1.3820   44.9890 C   0  0  0  0  0  0  0  0  0  0  0  0
    2.9280   -4.2050   44.6680 C   0  0  0  0  0  0  0  0  0  0  0  0
    0.8030   -5.1840   45.3350 C   0  0  0  0  0  0  0  0  0  0  0  0
    1.5910   -4.0620   45.0710 C   0  0  0  0  0  0  0  0  0  0  0  0
    1.3400   -6.4630   45.1980 C   0  0  0  0  0  0  0  0  0  0  0  0
    2.6660   -6.6210   44.7970 C   0  0  0  0  0  0  0  0  0  0  0  0
    3.4540   -5.4980   44.5330 C   0  0  0  0  0  0  0  0  0  0  0  0
  1  2  2  0
  1  8  1  0
  1  5  1  0
  2  3  1  0
  3  4  2  0
  4  7  1  0
  5  7  2  0
  5  6  1  0
  8 13  2  0
  8 10  1  0
  9 10  2  0
  9 11  1  0
 11 12  2  0
 12 13  1  0
M  END
>  <vina_dock>  (507) 
-6.892

$$$$
O14757_PocketFlow_idx-in-all-generaetd-488
     RDKit          3D

 18 19  0  0  0  0  0  0  0  0999 V2000
    1.1850   -4.3150   44.2000 C   0  0  0  0  0  0  0  0  0  0  0  0
    2.4770   -4.0000   44.6460 C   0  0  0  0  0  0  0  0  0  0  0  0
    3.2570   -3.0160   44.0100 C   0  0  0  0  0  0  0  0  0  0  0  0
    2.7110   -2.3590   42.8970 C   0  0  0  0  0  0  0  0  0  0  0  0
    1.4340   -2.6740   42.4320 C   0  0  0  0  0  0  0  0  0  0  0  0
    0.6770   -3.6520   43.0770 C   0  0  0  0  0  0  0  0  0  0  0  0
    0.3680   -5.3610   44.8350 C   0  0  0  0  0  0  0  0  0  0  0  0
   -0.0310   -6.4790   44.2110 C   0  0  0  0  0  0  0  0  0  0  0  0
   -0.8270   -7.4960   44.8590 C   0  0  0  0  0  0  0  0  0  0  0  0
   -1.9040   -8.0660   44.3080 C   0  0  0  0  0  0  0  0  0  0  0  0
   -2.3220   -7.7120   43.0740 F   0  0  0  0  0  0  0  0  0  0  0  0
   -2.5810   -9.0080   44.9960 F   0  0  0  0  0  0  0  0  0  0  0  0
    4.6080   -2.6910   44.4950 C   0  0  0  0  0  0  0  0  0  0  0  0
    5.2840   -1.5460   44.0430 C   0  0  0  0  0  0  0  0  0  0  0  0
    5.2620   -3.5180   45.4250 C   0  0  0  0  0  0  0  0  0  0  0  0
    6.5680   -1.2380   44.5020 C   0  0  0  0  0  0  0  0  0  0  0  0
    6.5450   -3.2110   45.8860 C   0  0  0  0  0  0  0  0  0  0  0  0
    7.1980   -2.0710   45.4240 C   0  0  0  0  0  0  0  0  0  0  0  0
  1  6  2  0
  1  2  1  0
  1  7  1  0
  2  3  2  0
  3  4  1  0
  3 13  1  0
  4  5  2  0
  5  6  1  0
  7  8  2  3
  8  9  1  0
  9 10  2  3
 10 11  1  0
 10 12  1  0
 13 14  2  0
 13 15  1  0
 14 16  1  0
 15 17  2  0
 16 18  2  0
 17 18  1  0
M  END
>  <vina_dock>  (508) 
-8.628

$$$$
O14757_PocketFlow_idx-in-all-generaetd-707
     RDKit          3D

 35 38  0  0  0  0  0  0  0  0999 V2000
    5.1860   -0.4380   43.2390 C   0  0  0  0  0  0  0  0  0  0  0  0
    3.9570   -0.5150   42.3010 C   0  0  2  0  0  0  0  0  0  0  0  0
    2.9210    0.5170   42.7620 C   0  0  0  0  0  0  0  0  0  0  0  0
    3.3600   -1.9400   42.2410 C   0  0  0  0  0  0  0  0  0  0  0  0
    1.8270   -2.0030   42.3020 C   0  0  1  0  0  0  0  0  0  0  0  0
   -0.0300   -3.2370   41.2450 C   0  0  1  0  0  0  0  0  0  0  0  0
    1.1730   -2.3250   40.9460 C   0  0  0  0  0  0  0  0  0  0  0  0
    0.3170   -3.7870   42.5980 C   0  0  0  0  0  0  0  0  0  0  0  0
    1.3320   -3.1280   43.1670 C   0  0  0  0  0  0  0  0  0  0  0  0
   -1.3990   -2.5350   41.1790 C   0  0  0  0  0  0  0  0  0  0  0  0
   -1.3660   -1.0290   41.1880 C   0  0  0  0  0  0  0  0  0  0  0  0
   -2.4570   -0.2530   41.2110 C   0  0  0  0  0  0  0  0  0  0  0  0
    4.8650   -0.7180   44.7160 C   0  0  0  0  0  0  0  0  0  0  0  0
    5.5170   -1.9430   45.3470 C   0  0  0  0  0  0  0  0  0  0  0  0
    6.7320   -1.9470   45.9350 C   0  0  0  0  0  0  0  0  0  0  0  0
    4.6690   -3.1570   45.2870 C   0  0  0  0  0  0  0  0  0  0  0  0
    4.8440   -4.0970   44.2620 C   0  0  0  0  0  0  0  0  0  0  0  0
    3.6920   -3.3880   46.2660 C   0  0  0  0  0  0  0  0  0  0  0  0
    4.0600   -5.2520   44.2170 C   0  0  0  0  0  0  0  0  0  0  0  0
    2.9050   -4.5430   46.2260 C   0  0  0  0  0  0  0  0  0  0  0  0
    3.1050   -5.4860   45.2120 C   0  0  0  0  0  0  0  0  0  0  0  0
    2.2840   -6.7160   45.1330 C   0  0  0  0  0  0  0  0  0  0  0  0
    2.8540   -7.7790   44.8930 O   0  0  0  0  0  0  0  0  0  0  0  0
    0.8860   -6.7610   45.3350 N   0  0  0  0  0  0  0  0  0  0  0  0
   -0.0560   -7.4660   44.6030 C   0  0  0  0  0  0  0  0  0  0  0  0
    0.1920   -6.0590   46.3070 C   0  0  0  0  0  0  0  0  0  0  0  0
   -1.3160   -7.2460   45.1280 C   0  0  0  0  0  0  0  0  0  0  0  0
   -1.1480   -6.3520   46.2130 C   0  0  0  0  0  0  0  0  0  0  0  0
   -2.5980   -7.8200   44.6470 C   0  0  0  0  0  0  0  0  0  0  0  0
    7.4220   -3.0890   46.5520 C   0  0  0  0  0  0  0  0  0  0  0  0
    6.8600   -3.7950   47.6230 C   0  0  0  0  0  0  0  0  0  0  0  0
    8.6480   -3.5110   46.0250 C   0  0  0  0  0  0  0  0  0  0  0  0
    7.5290   -4.8890   48.1750 C   0  0  0  0  0  0  0  0  0  0  0  0
    9.3150   -4.6070   46.5760 C   0  0  0  0  0  0  0  0  0  0  0  0
    8.7560   -5.2940   47.6530 C   0  0  0  0  0  0  0  0  0  0  0  0
  1  2  1  0
  1 13  1  0
  2  4  1  0
  2  3  1  1
  5  4  1  6
  5  7  1  0
  5  9  1  0
  6  7  1  0
  6 10  1  1
  6  8  1  0
  8  9  1  0
 10 11  1  0
 11 12  2  0
 13 14  1  0
 14 16  1  0
 14 15  2  3
 15 30  1  0
 16 17  2  0
 16 18  1  0
 17 19  1  0
 18 20  2  0
 19 21  2  0
 20 21  1  0
 21 22  1  0
 22 23  2  0
 22 24  1  0
 24 25  1  0
 24 26  1  0
 25 27  2  0
 26 28  2  0
 27 29  1  0
 27 28  1  0
 30 32  1  0
 30 31  2  0
 31 33  1  0
 32 34  2  0
 33 35  2  0
 34 35  1  0
M  END
>  <vina_dock>  (509) 
-8.407

$$$$
O14757_PocketFlow_idx-in-all-generaetd-94
     RDKit          3D

 35 37  0  0  0  0  0  0  0  0999 V2000
    0.5440   -5.1610   45.0950 C   0  0  0  0  0  0  0  0  0  0  0  0
   -0.0390   -6.1930   44.3890 N   0  0  0  0  0  0  0  0  0  0  0  0
    0.3910   -4.9890   46.2980 O   0  0  0  0  0  0  0  0  0  0  0  0
    1.3730   -4.2130   44.3040 C   0  0  0  0  0  0  0  0  0  0  0  0
    1.5260   -2.6670   42.4360 C   0  0  0  0  0  0  0  0  0  0  0  0
    2.8480   -2.3820   42.8060 C   0  0  0  0  0  0  0  0  0  0  0  0
    0.7910   -3.5840   43.1970 C   0  0  0  0  0  0  0  0  0  0  0  0
    3.4440   -3.0070   43.9120 C   0  0  0  0  0  0  0  0  0  0  0  0
    2.6920   -3.9140   44.6680 C   0  0  0  0  0  0  0  0  0  0  0  0
    0.8960   -1.9700   41.2520 C   0  0  0  0  0  0  0  0  0  0  0  0
   -0.0070   -0.8110   41.6670 C   0  0  0  0  0  0  0  0  0  0  0  0
   -1.4560   -1.1230   41.4190 C   0  0  0  0  0  0  0  0  0  0  0  0
   -2.3720   -0.3200   41.3640 O   0  0  0  0  0  0  0  0  0  0  0  0
   -1.6870   -2.4440   41.2940 O   0  0  0  0  0  0  0  0  0  0  0  0
    4.8180   -2.6350   44.2790 C   0  0  0  0  0  0  0  0  0  0  0  0
    5.4410   -3.0820   45.3810 C   0  0  0  0  0  0  0  0  0  0  0  0
    6.8180   -2.7140   45.7420 C   0  0  0  0  0  0  0  0  0  0  0  0
    7.6260   -3.6620   46.3840 C   0  0  0  0  0  0  0  0  0  0  0  0
    7.3700   -1.4680   45.4160 C   0  0  0  0  0  0  0  0  0  0  0  0
    8.9490   -3.3600   46.7170 C   0  0  0  0  0  0  0  0  0  0  0  0
    8.6930   -1.1680   45.7480 C   0  0  0  0  0  0  0  0  0  0  0  0
    9.4820   -2.1130   46.4010 C   0  0  0  0  0  0  0  0  0  0  0  0
   -0.9090   -7.1580   45.0350 C   0  0  0  0  0  0  0  0  0  0  0  0
   -1.8940   -7.7810   44.0480 C   0  0  0  0  0  0  0  0  0  0  0  0
   -3.2710   -8.0540   44.6530 C   0  0  0  0  0  0  0  0  0  0  0  0
   -3.5270   -9.5040   44.9500 C   0  0  0  0  0  0  0  0  0  0  0  0
   -3.3720  -10.1270   46.1300 C   0  0  0  0  0  0  0  0  0  0  0  0
   -2.9560   -9.5140   47.4390 C   0  0  0  0  0  0  0  0  0  0  0  0
   -1.4710   -9.6410   47.6860 C   0  0  0  0  0  0  0  0  0  0  0  0
   -0.6640  -10.3890   46.8170 C   0  0  0  0  0  0  0  0  0  0  0  0
   -0.8740   -8.9940   48.7750 C   0  0  0  0  0  0  0  0  0  0  0  0
    0.7110  -10.4950   47.0420 C   0  0  0  0  0  0  0  0  0  0  0  0
    0.5000   -9.1010   48.9980 C   0  0  0  0  0  0  0  0  0  0  0  0
    1.3060   -9.8440   48.1280 C   0  0  0  0  0  0  0  0  0  0  0  0
    2.7760   -9.9880   48.3870 C   0  0  0  0  0  0  0  0  0  0  0  0
  1  4  1  0
  1  2  1  0
  1  3  2  0
  2 23  1  0
  4  7  2  0
  4  9  1  0
  5 10  1  0
  5  6  2  0
  5  7  1  0
  6  8  1  0
  8 15  1  0
  8  9  2  0
 10 11  1  0
 11 12  1  0
 12 14  1  0
 12 13  2  0
 15 16  2  3
 16 17  1  0
 17 19  1  0
 17 18  2  0
 18 20  1  0
 19 21  2  0
 20 22  2  0
 21 22  1  0
 23 24  1  0
 24 25  1  0
 25 26  1  0
 26 27  2  3
 27 28  1  0
 28 29  1  0
 29 30  2  0
 29 31  1  0
 30 32  1  0
 31 33  2  0
 32 34  2  0
 33 34  1  0
 34 35  1  0
M  END
>  <vina_dock>  (510) 
-9.435

$$$$
O14757_PocketFlow_idx-in-all-generaetd-606
     RDKit          3D

 35 38  0  0  0  0  0  0  0  0999 V2000
    3.2130   -0.7680   42.4450 C   0  0  0  0  0  0  0  0  0  0  0  0
    4.3180    0.0020   42.7600 C   0  0  0  0  0  0  0  0  0  0  0  0
    3.1240   -2.0130   43.0650 C   0  0  0  0  0  0  0  0  0  0  0  0
    4.1210   -2.4450   43.9680 C   0  0  0  0  0  0  0  0  0  0  0  0
    5.2010   -1.5670   44.2150 C   0  0  0  0  0  0  0  0  0  0  0  0
    5.2850   -0.3780   43.6210 N   0  0  0  0  0  0  0  0  0  0  0  0
    4.0990   -3.6960   44.6370 C   0  0  0  0  0  0  0  0  0  0  0  0
    6.1830   -1.8850   45.0530 N   0  0  0  0  0  0  0  0  0  0  0  0
    5.1410   -3.9990   45.5170 C   0  0  0  0  0  0  0  0  0  0  0  0
    6.1540   -3.0690   45.6990 C   0  0  0  0  0  0  0  0  0  0  0  0
    2.1760   -0.2860   41.4670 C   0  0  0  0  0  0  0  0  0  0  0  0
    0.9690   -1.1910   41.3750 C   0  0  0  0  0  0  0  0  0  0  0  0
   -1.4400   -1.4870   41.1420 C   0  0  0  0  0  0  0  0  0  0  0  0
   -1.2700   -2.8770   41.1670 C   0  0  0  0  0  0  0  0  0  0  0  0
   -0.3200   -0.6500   41.2470 C   0  0  0  0  0  0  0  0  0  0  0  0
    0.0080   -3.4220   41.2940 C   0  0  0  0  0  0  0  0  0  0  0  0
    1.1210   -2.5860   41.3960 C   0  0  0  0  0  0  0  0  0  0  0  0
   -2.7780   -0.8590   41.0110 C   0  0  0  0  0  0  0  0  0  0  0  0
   -3.1610    0.1330   41.6070 O   0  0  0  0  0  0  0  0  0  0  0  0
   -3.5710   -1.4960   40.1340 O   0  0  0  0  0  0  0  0  0  0  0  0
    2.9820   -4.7060   44.4740 C   0  0  0  0  0  0  0  0  0  0  0  0
    1.8690   -4.4910   45.5080 C   0  0  0  0  0  0  0  0  0  0  0  0
    0.7490   -5.4880   45.3350 C   0  0  0  0  0  0  0  0  0  0  0  0
    0.5530   -6.1310   44.1070 C   0  0  0  0  0  0  0  0  0  0  0  0
   -0.1020   -5.7930   46.4040 C   0  0  0  0  0  0  0  0  0  0  0  0
   -0.4810   -7.0570   43.9480 C   0  0  0  0  0  0  0  0  0  0  0  0
   -1.1290   -6.7260   46.2490 C   0  0  0  0  0  0  0  0  0  0  0  0
   -1.3280   -7.3710   45.0200 C   0  0  0  0  0  0  0  0  0  0  0  0
   -2.4440   -8.3650   44.8470 C   0  0  0  0  0  0  0  0  0  0  0  0
   -3.3490   -8.0420   43.3560 Cl  0  0  0  0  0  0  0  0  0  0  0  0
    7.2900   -3.3400   46.6070 C   0  0  0  0  0  0  0  0  0  0  0  0
    7.1050   -3.9900   47.7780 C   0  0  0  0  0  0  0  0  0  0  0  0
    5.8280   -4.5770   48.3050 C   0  0  0  0  0  0  0  0  0  0  0  0
    8.6190   -2.7740   46.1350 C   0  0  0  0  0  0  0  0  0  0  0  0
    9.1860   -1.6010   46.9290 C   0  0  0  0  0  0  0  0  0  0  0  0
  1 11  1  0
  1  2  2  0
  1  3  1  0
  2  6  1  0
  3  4  2  0
  4  5  1  0
  4  7  1  0
  5  6  2  0
  5  8  1  0
  7 21  1  0
  7  9  2  0
  8 10  2  0
  9 10  1  0
 10 31  1  0
 11 12  1  0
 12 15  2  0
 12 17  1  0
 13 18  1  0
 13 14  2  0
 13 15  1  0
 14 16  1  0
 16 17  2  0
 18 20  1  0
 18 19  2  0
 21 22  1  0
 22 23  1  0
 23 24  2  0
 23 25  1  0
 24 26  1  0
 25 27  2  0
 26 28  2  0
 27 28  1  0
 28 29  1  0
 29 30  1  0
 31 34  1  0
 31 32  2  3
 32 33  1  0
 34 35  1  0
M  END
>  <vina_dock>  (511) 
-10.503

$$$$
O14757_PocketFlow_idx-in-all-generaetd-11
     RDKit          3D

 22 26  0  0  0  0  0  0  0  0999 V2000
    2.2260   -1.8620   42.0060 C   0  0  0  0  0  0  0  0  0  0  0  0
    0.9920   -2.1100   41.4040 C   0  0  0  0  0  0  0  0  0  0  0  0
    2.6870   -2.5670   43.1520 C   0  0  0  0  0  0  0  0  0  0  0  0
    1.8250   -3.5590   43.6920 C   0  0  0  0  0  0  0  0  0  0  0  0
    2.2270   -4.2840   44.8460 C   0  0  0  0  0  0  0  0  0  0  0  0
    3.5230   -4.0970   45.3810 C   0  0  0  0  0  0  0  0  0  0  0  0
    4.3870   -3.0900   44.8830 C   0  0  0  0  0  0  0  0  0  0  0  0
    3.9640   -2.3140   43.7680 C   0  0  0  0  0  0  0  0  0  0  0  0
    0.1670   -3.0840   41.9280 C   0  0  0  0  0  0  0  0  0  0  0  0
    0.5810   -3.7950   43.0510 C   0  0  0  0  0  0  0  0  0  0  0  0
    1.2790   -5.2790   45.4840 C   0  0  0  0  0  0  0  0  0  0  0  0
    4.8530   -1.3130   43.3100 C   0  0  0  0  0  0  0  0  0  0  0  0
    6.0910   -1.0820   43.9020 C   0  0  0  0  0  0  0  0  0  0  0  0
    6.4920   -1.8540   44.9790 C   0  0  0  0  0  0  0  0  0  0  0  0
    5.6660   -2.8700   45.4900 C   0  0  0  0  0  0  0  0  0  0  0  0
    6.0940   -3.7220   46.6390 C   0  0  0  0  0  0  0  0  0  0  0  0
    7.3340   -3.6040   47.2960 C   0  0  0  0  0  0  0  0  0  0  0  0
    7.6790   -4.4370   48.3660 C   0  0  0  0  0  0  0  0  0  0  0  0
    6.7890   -5.4080   48.8090 C   0  0  0  0  0  0  0  0  0  0  0  0
    5.5580   -5.5480   48.1780 C   0  0  0  0  0  0  0  0  0  0  0  0
    5.2180   -4.7320   47.0890 C   0  0  0  0  0  0  0  0  0  0  0  0
    3.9390   -4.8490   46.5110 N   0  0  0  0  0  0  0  0  0  0  0  0
  1  2  2  0
  1  3  1  0
  2  9  1  0
  3  4  2  0
  3  8  1  0
  4 10  1  0
  4  5  1  0
  5  6  2  0
  5 11  1  0
  6  7  1  0
  6 22  1  0
  7  8  2  0
  7 15  1  0
  8 12  1  0
  9 10  2  0
 12 13  2  0
 13 14  1  0
 14 15  2  0
 15 16  1  0
 16 21  2  0
 16 17  1  0
 17 18  2  0
 18 19  1  0
 19 20  2  0
 20 21  1  0
 21 22  1  0
M  END
>  <vina_dock>  (512) 
-11.03

$$$$
O14757_PocketFlow_idx-in-all-generaetd-548
     RDKit          3D

 35 36  0  0  0  0  0  0  0  0999 V2000
    3.8160   -5.4220   45.0150 C   0  0  0  0  0  0  0  0  0  0  0  0
    3.8390   -4.7230   46.1630 C   0  0  0  0  0  0  0  0  0  0  0  0
    2.7210   -6.3690   44.6200 C   0  0  0  0  0  0  0  0  0  0  0  0
    1.8620   -6.6250   45.7330 O   0  0  0  0  0  0  0  0  0  0  0  0
    0.6590   -7.2510   45.5390 C   0  0  0  0  0  0  0  0  0  0  0  0
    0.4220   -8.4170   46.2970 C   0  0  0  0  0  0  0  0  0  0  0  0
   -0.8080   -9.0740   46.1940 C   0  0  0  0  0  0  0  0  0  0  0  0
   -1.7830   -8.6010   45.3220 C   0  0  0  0  0  0  0  0  0  0  0  0
   -0.3400   -6.7890   44.6700 C   0  0  0  0  0  0  0  0  0  0  0  0
   -2.9520   -9.2510   45.2220 F   0  0  0  0  0  0  0  0  0  0  0  0
   -1.5580   -7.4670   44.5570 C   0  0  0  0  0  0  0  0  0  0  0  0
    1.3160   -8.9370   47.2010 O   0  0  0  0  0  0  0  0  0  0  0  0
    2.2200   -9.8870   46.6450 C   0  0  0  0  0  0  0  0  0  0  0  0
    3.6390   -9.5210   47.0250 C   0  0  0  0  0  0  0  0  0  0  0  0
    4.5910  -10.2860   47.0810 O   0  0  0  0  0  0  0  0  0  0  0  0
    3.7920   -8.2250   47.3640 O   0  0  0  0  0  0  0  0  0  0  0  0
   -1.0570  -10.1960   46.9400 O   0  0  0  0  0  0  0  0  0  0  0  0
    4.8980   -3.7330   46.6190 C   0  0  2  0  0  0  0  0  0  0  0  0
    5.9660   -3.5560   45.5080 C   0  0  0  0  0  0  0  0  0  0  0  0
    6.4160   -2.1100   45.2480 C   0  0  0  0  0  0  0  0  0  0  0  0
    5.6040   -1.4390   44.1770 C   0  0  0  0  0  0  0  0  0  0  0  0
    4.4780   -1.9490   43.6520 C   0  0  0  0  0  0  0  0  0  0  0  0
    3.5860   -1.3200   42.6100 C   0  0  0  0  0  0  0  0  0  0  0  0
    2.3010   -2.0500   42.2980 C   0  0  0  0  0  0  0  0  0  0  0  0
    1.8100   -3.0320   43.1710 C   0  0  0  0  0  0  0  0  0  0  0  0
    1.5650   -1.7390   41.1450 C   0  0  0  0  0  0  0  0  0  0  0  0
    0.6130   -3.6940   42.8940 C   0  0  0  0  0  0  0  0  0  0  0  0
    0.3690   -2.4030   40.8690 C   0  0  0  0  0  0  0  0  0  0  0  0
   -0.1060   -3.3800   41.7420 C   0  0  0  0  0  0  0  0  0  0  0  0
    5.6160   -4.0740   47.9540 C   0  0  0  0  0  0  0  0  0  0  0  0
    5.9640   -5.5160   48.2440 C   0  0  0  0  0  0  0  0  0  0  0  0
    6.0300   -6.1140   49.4440 C   0  0  0  0  0  0  0  0  0  0  0  0
    6.3780   -7.5070   49.6050 C   0  0  0  0  0  0  0  0  0  0  0  0
    7.1890   -8.1550   48.7570 C   0  0  0  0  0  0  0  0  0  0  0  0
    7.5640   -9.5940   48.9010 C   0  0  0  0  0  0  0  0  0  0  0  0
  1  3  1  0
  1  2  2  3
  2 18  1  0
  3  4  1  0
  4  5  1  0
  5  9  1  0
  5  6  2  0
  6  7  1  0
  6 12  1  0
  7  8  2  0
  7 17  1  0
  8 11  1  0
  8 10  1  0
  9 11  2  0
 12 13  1  0
 13 14  1  0
 14 15  2  0
 14 16  1  0
 18 19  1  6
 18 30  1  0
 19 20  1  0
 20 21  1  0
 21 22  2  3
 22 23  1  0
 23 24  1  0
 24 26  1  0
 24 25  2  0
 25 27  1  0
 26 28  2  0
 27 29  2  0
 28 29  1  0
 30 31  1  0
 31 32  2  3
 32 33  1  0
 33 34  2  3
 34 35  1  0
M  END
>  <vina_dock>  (513) 
-7.496

$$$$
O14757_PocketFlow_idx-in-all-generaetd-550
     RDKit          3D

 17 19  0  0  0  0  0  0  0  0999 V2000
    5.2150   -1.2590   43.5890 C   0  0  0  0  0  0  0  0  0  0  0  0
    4.0350   -2.0060   43.4550 C   0  0  0  0  0  0  0  0  0  0  0  0
    3.7900   -3.0620   44.3500 C   0  0  0  0  0  0  0  0  0  0  0  0
    2.5620   -3.9360   44.2130 C   0  0  2  0  0  0  0  0  0  0  0  0
    1.4190   -3.2250   43.4790 C   0  0  0  0  0  0  0  0  0  0  0  0
    1.9270   -2.6570   42.1440 C   0  0  2  0  0  0  0  0  0  0  0  0
    3.0250   -1.6060   42.4080 C   0  0  0  0  0  0  0  0  0  0  0  0
    6.1450   -1.5620   44.5860 C   0  0  0  0  0  0  0  0  0  0  0  0
    5.9010   -2.6060   45.4750 C   0  0  0  0  0  0  0  0  0  0  0  0
    4.7250   -3.3520   45.3640 C   0  0  0  0  0  0  0  0  0  0  0  0
    4.4620   -4.4480   46.3410 C   0  0  0  0  0  0  0  0  0  0  0  0
    3.2240   -5.0370   46.2920 N   0  0  0  0  0  0  0  0  0  0  0  0
    2.1300   -4.4250   45.5950 C   0  0  2  0  0  0  0  0  0  0  0  0
    5.3040   -4.8070   47.1540 O   0  0  0  0  0  0  0  0  0  0  0  0
    1.1510   -5.3550   45.4680 F   0  0  0  0  0  0  0  0  0  0  0  0
    0.8040   -2.0270   41.3000 C   0  0  0  0  0  0  0  0  0  0  0  0
    0.5980   -0.5430   41.5680 C   0  0  0  0  0  0  0  0  0  0  0  0
  1  2  2  0
  1  8  1  0
  2  7  1  0
  2  3  1  0
  3  4  1  0
  3 10  2  0
  4  5  1  1
  4 13  1  0
  5  6  1  0
  6 16  1  1
  6  7  1  0
  8  9  2  0
  9 10  1  0
 10 11  1  0
 11 12  1  0
 11 14  2  0
 12 13  1  0
 13 15  1  6
 16 17  1  0
M  END
>  <vina_dock>  (514) 
-8.688

$$$$
O14757_PocketFlow_idx-in-all-generaetd-21
     RDKit          3D

 25 28  0  0  0  0  0  0  0  0999 V2000
    3.2760   -2.2290   43.2560 C   0  0  0  0  0  0  0  0  0  0  0  0
    4.3560   -1.4500   42.8220 C   0  0  0  0  0  0  0  0  0  0  0  0
    3.4300   -2.9850   44.4280 C   0  0  0  0  0  0  0  0  0  0  0  0
    4.6270   -2.9730   45.1650 C   0  0  0  0  0  0  0  0  0  0  0  0
    5.7050   -2.1810   44.7150 C   0  0  0  0  0  0  0  0  0  0  0  0
    5.5550   -1.4260   43.5440 C   0  0  0  0  0  0  0  0  0  0  0  0
    4.7710   -3.7280   46.3400 C   0  0  0  0  0  0  0  0  0  0  0  0
    5.9750   -3.7160   47.0580 C   0  0  0  0  0  0  0  0  0  0  0  0
    7.0440   -2.9340   46.6120 C   0  0  0  0  0  0  0  0  0  0  0  0
    6.9010   -2.1600   45.4510 C   0  0  0  0  0  0  0  0  0  0  0  0
    1.9980   -2.2880   42.5330 C   0  0  0  0  0  0  0  0  0  0  0  0
    1.0490   -3.2730   42.6950 N   0  0  0  0  0  0  0  0  0  0  0  0
    1.5840   -1.4220   41.6240 N   0  0  0  0  0  0  0  0  0  0  0  0
   -0.0010   -3.0060   41.8610 C   0  0  0  0  0  0  0  0  0  0  0  0
    0.3520   -1.8540   41.2070 C   0  0  0  0  0  0  0  0  0  0  0  0
    6.0370   -4.5400   48.2810 C   0  0  0  0  0  0  0  0  0  0  0  0
    5.9900   -4.1170   49.4200 O   0  0  0  0  0  0  0  0  0  0  0  0
    6.0510   -5.8560   48.0170 O   0  0  0  0  0  0  0  0  0  0  0  0
    8.1890   -2.8380   47.3740 O   0  0  0  0  0  0  0  0  0  0  0  0
    9.3170   -3.4600   46.8880 C   0  0  0  0  0  0  0  0  0  0  0  0
   10.4550   -2.6710   46.7260 C   0  0  0  0  0  0  0  0  0  0  0  0
    9.3660   -4.8310   46.6270 C   0  0  0  0  0  0  0  0  0  0  0  0
   11.6380   -3.2470   46.2610 C   0  0  0  0  0  0  0  0  0  0  0  0
   10.5510   -5.4050   46.1620 C   0  0  0  0  0  0  0  0  0  0  0  0
   11.6840   -4.6120   45.9750 C   0  0  0  0  0  0  0  0  0  0  0  0
  1 11  1  0
  1  2  2  0
  1  3  1  0
  2  6  1  0
  3  4  2  0
  4  5  1  0
  4  7  1  0
  5  6  2  0
  5 10  1  0
  7  8  2  0
  8  9  1  0
  8 16  1  0
  9 10  2  0
  9 19  1  0
 11 13  2  0
 11 12  1  0
 12 14  1  0
 13 15  1  0
 14 15  2  0
 16 18  1  0
 16 17  2  0
 19 20  1  0
 20 22  1  0
 20 21  2  0
 21 23  1  0
 22 24  2  0
 23 25  2  0
 24 25  1  0
M  END
>  <vina_dock>  (515) 
-8.226

$$$$
O14757_PocketFlow_idx-in-all-generaetd-553
     RDKit          3D

 35 37  0  0  0  0  0  0  0  0999 V2000
    5.4780   -2.4890   44.3640 C   0  0  0  0  0  0  0  0  0  0  0  0
    4.7880   -1.5190   43.7400 C   0  0  0  0  0  0  0  0  0  0  0  0
    6.2390   -2.3830   45.6240 C   0  0  0  0  0  0  0  0  0  0  0  0
    7.4860   -1.8700   45.5120 C   0  0  0  0  0  0  0  0  0  0  0  0
    5.5060   -2.8770   46.8680 C   0  0  0  0  0  0  0  0  0  0  0  0
    5.1960   -4.3660   47.0550 C   0  0  0  0  0  0  0  0  0  0  0  0
    6.1330   -5.0780   48.0620 C   0  0  2  0  0  0  0  0  0  0  0  0
    5.5630   -6.4720   48.3600 C   0  0  0  0  0  0  0  0  0  0  0  0
    6.3080   -4.2560   49.3580 C   0  0  0  0  0  0  0  0  0  0  0  0
    7.7480   -4.0150   49.7510 C   0  0  0  0  0  0  0  0  0  0  0  0
    9.5400   -2.5120   50.3710 C   0  0  0  0  0  0  0  0  0  0  0  0
    8.2110   -2.7150   50.0060 C   0  0  0  0  0  0  0  0  0  0  0  0
   10.4210   -3.5800   50.4870 C   0  0  0  0  0  0  0  0  0  0  0  0
    9.9690   -4.8730   50.2360 C   0  0  0  0  0  0  0  0  0  0  0  0
    8.6400   -5.0910   49.8710 C   0  0  0  0  0  0  0  0  0  0  0  0
   10.0230   -1.2610   50.6270 O   0  0  0  0  0  0  0  0  0  0  0  0
    8.5850   -1.6190   46.5070 C   0  0  0  0  0  0  0  0  0  0  0  0
    9.5550   -2.7790   46.5910 C   0  0  0  0  0  0  0  0  0  0  0  0
    9.1210   -4.0920   46.3670 C   0  0  0  0  0  0  0  0  0  0  0  0
   10.9070   -2.5520   46.8890 C   0  0  0  0  0  0  0  0  0  0  0  0
   10.0210   -5.1580   46.4410 C   0  0  0  0  0  0  0  0  0  0  0  0
   11.8040   -3.6190   46.9650 C   0  0  0  0  0  0  0  0  0  0  0  0
   11.3610   -4.9200   46.7400 C   0  0  0  0  0  0  0  0  0  0  0  0
    4.0320   -1.7270   42.4570 C   0  0  0  0  0  0  0  0  0  0  0  0
    2.8620   -0.7890   42.3690 C   0  0  0  0  0  0  0  0  0  0  0  0
    1.7050   -0.9720   41.7120 C   0  0  0  0  0  0  0  0  0  0  0  0
    1.3040   -2.1560   40.8770 C   0  0  0  0  0  0  0  0  0  0  0  0
    0.5970   -3.2530   41.6820 C   0  0  0  0  0  0  0  0  0  0  0  0
    0.7360   -3.1400   43.2060 C   0  0  0  0  0  0  0  0  0  0  0  0
    1.1960   -4.4120   43.8740 C   0  0  0  0  0  0  0  0  0  0  0  0
    0.3460   -5.5240   43.9520 C   0  0  0  0  0  0  0  0  0  0  0  0
    2.4800   -4.5010   44.4300 C   0  0  0  0  0  0  0  0  0  0  0  0
    0.7710   -6.6990   44.5710 C   0  0  0  0  0  0  0  0  0  0  0  0
    2.9040   -5.6770   45.0500 C   0  0  0  0  0  0  0  0  0  0  0  0
    2.0490   -6.7750   45.1210 C   0  0  0  0  0  0  0  0  0  0  0  0
  1  2  2  3
  1  3  1  0
  2 24  1  0
  3  4  2  3
  3  5  1  0
  4 17  1  0
  5  6  1  0
  6  7  1  0
  7  8  1  1
  7  9  1  0
  9 10  1  0
 10 15  2  0
 10 12  1  0
 11 12  2  0
 11 13  1  0
 11 16  1  0
 13 14  2  0
 14 15  1  0
 17 18  1  0
 18 19  2  0
 18 20  1  0
 19 21  1  0
 20 22  2  0
 21 23  2  0
 22 23  1  0
 24 25  1  0
 25 26  2  3
 26 27  1  0
 27 28  1  0
 28 29  1  0
 29 30  1  0
 30 31  2  0
 30 32  1  0
 31 33  1  0
 32 34  2  0
 33 35  2  0
 34 35  1  0
M  END
>  <vina_dock>  (516) 
-7.17

$$$$
O14757_PocketFlow_idx-in-all-generaetd-535
     RDKit          3D

 20 21  0  0  0  0  0  0  0  0999 V2000
    2.1860   -3.4160   43.7020 C   0  0  0  0  0  0  0  0  0  0  0  0
    2.0800   -4.2630   44.7860 N   0  0  0  0  0  0  0  0  0  0  0  0
    1.3290   -3.3190   42.8320 O   0  0  0  0  0  0  0  0  0  0  0  0
    3.4060   -2.5650   43.6460 C   0  0  0  0  0  0  0  0  0  0  0  0
    5.6000   -2.0420   44.5380 C   0  0  0  0  0  0  0  0  0  0  0  0
    5.7200   -0.9970   43.6120 C   0  0  0  0  0  0  0  0  0  0  0  0
    4.4390   -2.8230   44.5570 C   0  0  0  0  0  0  0  0  0  0  0  0
    4.6850   -0.7270   42.7160 C   0  0  0  0  0  0  0  0  0  0  0  0
    3.5270   -1.5080   42.7330 C   0  0  0  0  0  0  0  0  0  0  0  0
    6.7260   -2.2810   45.4740 C   0  0  0  0  0  0  0  0  0  0  0  0
    7.0490   -3.3600   45.9360 O   0  0  0  0  0  0  0  0  0  0  0  0
    7.3890   -1.1570   45.7900 O   0  0  0  0  0  0  0  0  0  0  0  0
    0.8970   -5.0830   44.9830 C   0  0  0  0  0  0  0  0  0  0  0  0
    1.1550   -6.5580   44.6690 C   0  0  0  0  0  0  0  0  0  0  0  0
   -0.0370   -7.4170   45.0080 C   0  0  0  0  0  0  0  0  0  0  0  0
   -1.2090   -7.3470   44.2440 C   0  0  0  0  0  0  0  0  0  0  0  0
    0.0050   -8.2770   46.1140 C   0  0  0  0  0  0  0  0  0  0  0  0
   -2.3160   -8.1310   44.5760 C   0  0  0  0  0  0  0  0  0  0  0  0
   -1.1020   -9.0590   46.4450 C   0  0  0  0  0  0  0  0  0  0  0  0
   -2.2620   -8.9860   45.6760 C   0  0  0  0  0  0  0  0  0  0  0  0
  1  3  2  0
  1  4  1  0
  1  2  1  0
  2 13  1  0
  4  9  1  0
  4  7  2  0
  5  6  2  0
  5  7  1  0
  5 10  1  0
  6  8  1  0
  8  9  2  0
 10 12  1  0
 10 11  2  0
 13 14  1  0
 14 15  1  0
 15 16  2  0
 15 17  1  0
 16 18  1  0
 17 19  2  0
 18 20  2  0
 19 20  1  0
M  END
>  <vina_dock>  (517) 
-7.933

$$$$
O14757_PocketFlow_idx-in-all-generaetd-881
     RDKit          3D

 35 40  0  0  0  0  0  0  0  0999 V2000
   -1.2490   -7.9220   45.0860 C   0  0  0  0  0  0  0  0  0  0  0  0
   -0.8300   -6.7170   44.5020 C   0  0  0  0  0  0  0  0  0  0  0  0
   -0.3390   -8.6350   45.8830 C   0  0  0  0  0  0  0  0  0  0  0  0
    0.4630   -6.2370   44.7380 C   0  0  0  0  0  0  0  0  0  0  0  0
    1.3550   -6.9240   45.5710 C   0  0  0  0  0  0  0  0  0  0  0  0
    0.9530   -8.1500   46.1090 C   0  0  0  0  0  0  0  0  0  0  0  0
    0.9660   -5.0340   44.0400 C   0  0  0  0  0  0  0  0  0  0  0  0
    2.1830   -4.5450   44.4840 N   0  0  0  0  0  0  0  0  0  0  0  0
    2.9540   -3.6580   43.6280 C   0  0  0  0  0  0  0  0  0  0  0  0
    0.3410   -4.5680   43.0910 O   0  0  0  0  0  0  0  0  0  0  0  0
    3.7480   -2.6250   44.4130 C   0  0  0  0  0  0  0  0  0  0  0  0
    4.6120   -3.3120   45.4380 C   0  0  0  0  0  0  0  0  0  0  0  0
    5.8580   -2.7640   45.7860 C   0  0  0  0  0  0  0  0  0  0  0  0
    6.6670   -3.3580   46.7650 C   0  0  0  0  0  0  0  0  0  0  0  0
    6.1830   -4.5100   47.4000 C   0  0  0  0  0  0  0  0  0  0  0  0
    4.9350   -5.0520   47.0700 C   0  0  0  0  0  0  0  0  0  0  0  0
    4.1340   -4.4770   46.0700 C   0  0  0  0  0  0  0  0  0  0  0  0
    2.7350   -5.0000   45.7490 C   0  0  2  0  0  0  0  0  0  0  0  0
    2.6760   -6.4590   45.7510 N   0  0  0  0  0  0  0  0  0  0  0  0
   -2.6390   -8.4520   44.8320 C   0  0  1  0  0  0  0  0  0  0  0  0
   -2.8840   -9.6310   45.4640 F   0  0  0  0  0  0  0  0  0  0  0  0
   -3.6530   -7.5400   45.3280 N   0  0  0  0  0  0  0  0  0  0  0  0
    7.9750   -2.7880   47.1240 C   0  0  0  0  0  0  0  0  0  0  0  0
    8.4920   -1.6750   46.4400 C   0  0  0  0  0  0  0  0  0  0  0  0
    8.7430   -3.3350   48.1630 C   0  0  0  0  0  0  0  0  0  0  0  0
    9.7330   -1.1270   46.7870 C   0  0  0  0  0  0  0  0  0  0  0  0
    9.9840   -2.7880   48.5100 C   0  0  0  0  0  0  0  0  0  0  0  0
   10.4950   -1.6780   47.8250 C   0  0  0  0  0  0  0  0  0  0  0  0
   11.7930   -1.0980   48.1930 C   0  0  0  0  0  0  0  0  0  0  0  0
   12.9420   -1.2420   47.3850 C   0  0  0  0  0  0  0  0  0  0  0  0
   11.8970   -0.3720   49.3950 C   0  0  0  0  0  0  0  0  0  0  0  0
   12.9020   -2.0080   46.0880 C   0  0  0  0  0  0  0  0  0  0  0  0
   14.1570   -0.6730   47.8030 C   0  0  0  0  0  0  0  0  0  0  0  0
   13.1090    0.1930   49.7940 C   0  0  0  0  0  0  0  0  0  0  0  0
   14.2390    0.0400   48.9980 C   0  0  0  0  0  0  0  0  0  0  0  0
  1  2  2  0
  1 20  1  0
  1  3  1  0
  2  4  1  0
  3  6  2  0
  4  7  1  0
  4  5  2  0
  5 19  1  0
  5  6  1  0
  7 10  2  0
  7  8  1  0
  8  9  1  0
  8 18  1  0
  9 11  1  0
 11 12  1  0
 12 13  2  0
 12 17  1  0
 13 14  1  0
 14 23  1  0
 14 15  2  0
 15 16  1  0
 16 17  2  0
 17 18  1  0
 18 19  1  6
 20 22  1  1
 20 21  1  0
 23 24  2  0
 23 25  1  0
 24 26  1  0
 25 27  2  0
 26 28  2  0
 27 28  1  0
 28 29  1  0
 29 30  2  0
 29 31  1  0
 30 32  1  0
 30 33  1  0
 31 34  2  0
 33 35  2  0
 34 35  1  0
M  END
>  <vina_dock>  (518) 
-9.069

$$$$
O14757_PocketFlow_idx-in-all-generaetd-897
     RDKit          3D

 35 36  0  0  0  0  0  0  0  0999 V2000
    4.8420   -0.9660   44.1640 C   0  0  0  0  0  0  0  0  0  0  0  0
    4.3220   -0.6590   42.7400 C   0  0  1  0  0  0  0  0  0  0  0  0
    2.9840   -1.2790   42.4370 C   0  0  0  0  0  0  0  0  0  0  0  0
    1.9790   -0.6420   41.8090 C   0  0  0  0  0  0  0  0  0  0  0  0
    0.6330   -1.2060   41.4320 C   0  0  0  0  0  0  0  0  0  0  0  0
    0.5140   -2.7350   41.4020 C   0  0  0  0  0  0  0  0  0  0  0  0
   -0.9120   -3.1660   41.0560 C   0  0  0  0  0  0  0  0  0  0  0  0
   -1.8950   -2.2740   41.6660 N   0  0  0  0  0  0  0  0  0  0  0  0
    4.2070    0.7440   42.5040 O   0  0  0  0  0  0  0  0  0  0  0  0
    6.3400   -1.1260   44.2690 C   0  0  0  0  0  0  0  0  0  0  0  0
    7.0140   -1.9940   45.0380 C   0  0  0  0  0  0  0  0  0  0  0  0
    6.4180   -2.9700   45.9600 C   0  0  0  0  0  0  0  0  0  0  0  0
    5.1980   -3.5590   45.5970 C   0  0  0  0  0  0  0  0  0  0  0  0
    7.0520   -3.3700   47.1480 C   0  0  0  0  0  0  0  0  0  0  0  0
    4.5960   -4.5450   46.3990 C   0  0  0  0  0  0  0  0  0  0  0  0
    6.4740   -4.3690   47.9380 C   0  0  0  0  0  0  0  0  0  0  0  0
    5.2540   -4.9440   47.5710 C   0  0  0  0  0  0  0  0  0  0  0  0
    8.2890   -2.8490   47.4320 O   0  0  0  0  0  0  0  0  0  0  0  0
    9.1100   -3.6520   48.2880 C   0  0  0  0  0  0  0  0  0  0  0  0
   10.2380   -4.2930   47.4610 C   0  0  2  0  0  0  0  0  0  0  0  0
   10.7670   -3.3800   46.3500 C   0  0  0  0  0  0  0  0  0  0  0  0
    9.8880   -5.6820   46.9650 C   0  0  0  0  0  0  0  0  0  0  0  0
   10.6910   -6.7230   46.6750 C   0  0  0  0  0  0  0  0  0  0  0  0
   12.1920   -6.7270   46.7380 C   0  0  0  0  0  0  0  0  0  0  0  0
   10.0970   -8.0460   46.2600 C   0  0  0  0  0  0  0  0  0  0  0  0
    3.3070   -5.2040   45.9190 C   0  0  2  0  0  0  0  0  0  0  0  0
    3.5090   -6.5760   45.2680 C   0  0  0  0  0  0  0  0  0  0  0  0
    2.5880   -4.2780   44.9560 C   0  0  0  0  0  0  0  0  0  0  0  0
    1.3270   -4.3840   44.4970 C   0  0  0  0  0  0  0  0  0  0  0  0
    0.4020   -5.4650   44.8380 C   0  0  0  0  0  0  0  0  0  0  0  0
   -0.0410   -5.6370   46.1540 C   0  0  0  0  0  0  0  0  0  0  0  0
   -0.0290   -6.3530   43.8450 C   0  0  0  0  0  0  0  0  0  0  0  0
   -0.9030   -6.6880   46.4740 C   0  0  0  0  0  0  0  0  0  0  0  0
   -0.8920   -7.4030   44.1660 C   0  0  0  0  0  0  0  0  0  0  0  0
   -1.3280   -7.5720   45.4780 C   0  0  0  0  0  0  0  0  0  0  0  0
  1  2  1  0
  1 10  1  0
  2  3  1  0
  2  9  1  1
  3  4  2  3
  4  5  1  0
  5  6  1  0
  6  7  1  0
  7  8  1  0
 10 11  2  3
 11 12  1  0
 12 13  2  0
 12 14  1  0
 13 15  1  0
 14 18  1  0
 14 16  2  0
 15 26  1  0
 15 17  2  0
 16 17  1  0
 18 19  1  0
 19 20  1  0
 20 21  1  6
 20 22  1  0
 22 23  2  3
 23 25  1  0
 23 24  1  0
 26 28  1  0
 26 27  1  6
 28 29  2  3
 29 30  1  0
 30 32  1  0
 30 31  2  0
 31 33  1  0
 32 34  2  0
 33 35  2  0
 34 35  1  0
M  END
>  <vina_dock>  (519) 
-8.112

$$$$
O14757_PocketFlow_idx-in-all-generaetd-762
     RDKit          3D

 35 37  0  0  0  0  0  0  0  0999 V2000
    3.9840   -1.9060   43.2260 N   0  0  0  0  0  0  0  0  0  0  0  0
    4.5670   -0.6490   43.3200 C   0  0  0  0  0  0  0  0  0  0  0  0
    4.0780    0.4030   42.9220 O   0  0  0  0  0  0  0  0  0  0  0  0
    2.6960   -2.2220   42.7460 C   0  0  0  0  0  0  0  0  0  0  0  0
    0.6630   -3.5640   42.6600 C   0  0  0  0  0  0  0  0  0  0  0  0
    1.9340   -3.3040   43.1910 C   0  0  0  0  0  0  0  0  0  0  0  0
    0.1520   -2.7320   41.6650 C   0  0  0  0  0  0  0  0  0  0  0  0
    0.9060   -1.6500   41.2100 C   0  0  0  0  0  0  0  0  0  0  0  0
    2.1690   -1.3980   41.7470 C   0  0  0  0  0  0  0  0  0  0  0  0
    0.0430   -4.6650   43.1860 O   0  0  0  0  0  0  0  0  0  0  0  0
    0.6250   -5.2980   44.3140 C   0  0  0  0  0  0  0  0  0  0  0  0
    0.2910   -6.7730   44.4740 C   0  0  0  0  0  0  0  0  0  0  0  0
    0.9360   -7.6360   45.0450 O   0  0  0  0  0  0  0  0  0  0  0  0
   -0.8760   -7.0960   43.8720 O   0  0  0  0  0  0  0  0  0  0  0  0
    5.9570   -0.7090   43.9460 C   0  0  0  0  0  0  0  0  0  0  0  0
    6.0660   -1.6900   45.0900 C   0  0  0  0  0  0  0  0  0  0  0  0
    7.3070   -2.2490   45.4240 C   0  0  0  0  0  0  0  0  0  0  0  0
    4.9290   -2.0870   45.8020 C   0  0  0  0  0  0  0  0  0  0  0  0
    7.4040   -3.1790   46.4660 C   0  0  0  0  0  0  0  0  0  0  0  0
    5.0280   -3.0290   46.8300 C   0  0  0  0  0  0  0  0  0  0  0  0
    6.2660   -3.5940   47.1680 C   0  0  0  0  0  0  0  0  0  0  0  0
    8.6140   -3.7680   46.7580 O   0  0  0  0  0  0  0  0  0  0  0  0
    9.5430   -3.0370   47.4970 C   0  0  0  0  0  0  0  0  0  0  0  0
    9.1970   -2.1870   48.4870 C   0  0  0  0  0  0  0  0  0  0  0  0
   11.0180   -3.3250   47.1690 C   0  0  2  0  0  0  0  0  0  0  0  0
   10.1850   -1.4520   49.2380 C   0  0  0  0  0  0  0  0  0  0  0  0
   11.9570   -2.9540   48.3590 C   0  0  0  0  0  0  0  0  0  0  0  0
   11.4060   -2.1930   45.7780 Cl  0  0  0  0  0  0  0  0  0  0  0  0
   11.4780   -1.8000   49.2010 C   0  0  0  0  0  0  0  0  0  0  0  0
   11.2650   -4.8060   46.6870 C   0  0  1  0  0  0  0  0  0  0  0  0
   12.7270   -5.2610   46.8040 C   0  0  0  0  0  0  0  0  0  0  0  0
   10.4490   -5.8110   47.4070 N   0  0  0  0  0  0  0  0  0  0  0  0
    6.3680   -4.6390   48.2420 C   0  0  0  0  0  0  0  0  0  0  0  0
    5.3100   -5.5010   48.2600 F   0  0  0  0  0  0  0  0  0  0  0  0
    6.4230   -4.1110   49.4970 F   0  0  0  0  0  0  0  0  0  0  0  0
  1  4  1  0
  1  2  1  0
  2  3  2  0
  2 15  1  0
  4  9  1  0
  4  6  2  0
  5  7  2  0
  5 10  1  0
  5  6  1  0
  7  8  1  0
  8  9  2  0
 10 11  1  0
 11 12  1  0
 12 14  1  0
 12 13  2  0
 15 16  1  0
 16 17  2  0
 16 18  1  0
 17 19  1  0
 18 20  2  0
 19 22  1  0
 19 21  2  0
 20 21  1  0
 21 33  1  0
 22 23  1  0
 23 25  1  0
 23 24  2  0
 24 26  1  0
 25 28  1  6
 25 30  1  0
 25 27  1  0
 26 29  2  0
 27 29  1  0
 30 31  1  1
 30 32  1  0
 33 34  1  0
 33 35  1  0
M  END
>  <vina_dock>  (520) 
-8.257

$$$$
O14757_PocketFlow_idx-in-all-generaetd-207
     RDKit          3D

 14 14  0  0  0  0  0  0  0  0999 V2000
    1.8060   -3.6090   44.2600 C   0  0  0  0  0  0  0  0  0  0  0  0
    0.7270   -3.4300   43.4830 C   0  0  0  0  0  0  0  0  0  0  0  0
    3.1120   -3.8070   43.9010 N   0  0  0  0  0  0  0  0  0  0  0  0
    4.2370   -2.9920   44.1300 C   0  0  0  0  0  0  0  0  0  0  0  0
    6.3710   -2.6970   45.3090 C   0  0  0  0  0  0  0  0  0  0  0  0
    5.2000   -3.4240   45.0610 C   0  0  0  0  0  0  0  0  0  0  0  0
    6.5350   -1.4620   44.6860 C   0  0  0  0  0  0  0  0  0  0  0  0
    5.6000   -1.0150   43.7530 C   0  0  0  0  0  0  0  0  0  0  0  0
    4.4680   -1.7820   43.4680 C   0  0  0  0  0  0  0  0  0  0  0  0
    7.2490   -3.0960   46.3260 N   0  0  0  0  0  0  0  0  0  0  0  0
    0.7130   -3.4200   42.0350 C   0  0  0  0  0  0  0  0  0  0  0  0
    0.6940   -2.3450   41.2280 C   0  0  0  0  0  0  0  0  0  0  0  0
    0.6830   -0.9530   41.6150 C   0  0  0  0  0  0  0  0  0  0  0  0
    1.7770   -0.1830   41.5740 C   0  0  0  0  0  0  0  0  0  0  0  0
  1  2  2  3
  1  3  1  0
  2 11  1  0
  3  4  1  0
  4  9  2  0
  4  6  1  0
  5  7  1  0
  5  6  2  0
  5 10  1  0
  7  8  2  0
  8  9  1  0
 11 12  2  3
 12 13  1  0
 13 14  2  0
M  END
>  <vina_dock>  (521) 
-6.271

$$$$
O14757_PocketFlow_idx-in-all-generaetd-429
     RDKit          3D

 33 35  0  0  0  0  0  0  0  0999 V2000
    7.5620   -3.5790   46.6180 C   0  0  0  0  0  0  0  0  0  0  0  0
    8.7150   -3.8900   46.3630 O   0  0  0  0  0  0  0  0  0  0  0  0
    6.6520   -2.9360   45.6320 C   0  0  0  0  0  0  0  0  0  0  0  0
    4.8620   -1.8080   43.7690 C   0  0  0  0  0  0  0  0  0  0  0  0
    4.5990   -3.0610   44.3430 C   0  0  0  0  0  0  0  0  0  0  0  0
    6.0320   -1.1280   44.1360 C   0  0  0  0  0  0  0  0  0  0  0  0
    5.4850   -3.6190   45.2670 C   0  0  0  0  0  0  0  0  0  0  0  0
    6.9210   -1.6860   45.0590 C   0  0  0  0  0  0  0  0  0  0  0  0
    3.9020   -1.2040   42.7680 C   0  0  0  0  0  0  0  0  0  0  0  0
    2.6460   -2.0180   42.5600 C   0  0  0  0  0  0  0  0  0  0  0  0
    1.0850   -3.7370   43.3300 C   0  0  0  0  0  0  0  0  0  0  0  0
    0.3070   -3.5200   42.1880 C   0  0  0  0  0  0  0  0  0  0  0  0
    2.2560   -2.9810   43.5040 C   0  0  0  0  0  0  0  0  0  0  0  0
    0.6850   -2.5660   41.2420 C   0  0  0  0  0  0  0  0  0  0  0  0
    1.8470   -1.8180   41.4260 C   0  0  0  0  0  0  0  0  0  0  0  0
    0.6900   -4.7500   44.3350 C   0  0  0  0  0  0  0  0  0  0  0  0
    0.3100   -5.9690   43.9040 C   0  0  0  0  0  0  0  0  0  0  0  0
    0.7730   -4.3170   45.7730 C   0  0  0  0  0  0  0  0  0  0  0  0
   -0.1040   -7.0750   44.7700 C   0  0  0  0  0  0  0  0  0  0  0  0
   -1.4330   -7.5050   44.7890 C   0  0  0  0  0  0  0  0  0  0  0  0
    0.8390   -7.7180   45.5750 C   0  0  0  0  0  0  0  0  0  0  0  0
   -1.8180   -8.5650   45.6150 C   0  0  0  0  0  0  0  0  0  0  0  0
    0.4540   -8.7780   46.4000 C   0  0  0  0  0  0  0  0  0  0  0  0
   -0.8790   -9.2020   46.4350 C   0  0  0  0  0  0  0  0  0  0  0  0
   -1.2910  -10.3600   47.2960 C   0  0  0  0  0  0  0  0  0  0  0  0
    6.9290   -3.7530   47.8050 O   0  0  0  0  0  0  0  0  0  0  0  0
    7.7660   -4.1250   48.9060 C   0  0  0  0  0  0  0  0  0  0  0  0
    7.1720   -5.3340   49.5610 C   0  0  0  0  0  0  0  0  0  0  0  0
    6.1620   -6.0430   49.0360 C   0  0  0  0  0  0  0  0  0  0  0  0
    5.6050   -7.2100   49.6840 C   0  0  0  0  0  0  0  0  0  0  0  0
    5.0530   -8.2840   49.0960 C   0  0  0  0  0  0  0  0  0  0  0  0
    4.8910   -8.5230   47.6800 C   0  0  0  0  0  0  0  0  0  0  0  0
    3.9210   -9.2980   47.1820 C   0  0  0  0  0  0  0  0  0  0  0  0
  1  3  1  0
  1  2  2  0
  1 26  1  0
  3  8  2  0
  3  7  1  0
  4  9  1  0
  4  6  2  0
  4  5  1  0
  5  7  2  0
  6  8  1  0
  9 10  1  0
 10 15  1  0
 10 13  2  0
 11 12  2  0
 11 13  1  0
 11 16  1  0
 12 14  1  0
 14 15  2  0
 16 17  2  3
 16 18  1  0
 17 19  1  0
 19 20  2  0
 19 21  1  0
 20 22  1  0
 21 23  2  0
 22 24  2  0
 23 24  1  0
 24 25  1  0
 26 27  1  0
 27 28  1  0
 28 29  2  3
 29 30  1  0
 30 31  2  3
 31 32  1  0
 32 33  2  0
M  END
>  <vina_dock>  (522) 
-9.67

$$$$
O14757_PocketFlow_idx-in-all-generaetd-699
     RDKit          3D

  9  9  0  0  0  0  0  0  0  0999 V2000
    2.0170   -2.6050   42.5930 C   0  0  0  0  0  0  0  0  0  0  0  0
    3.3490   -2.2110   43.1860 C   0  0  0  0  0  0  0  0  0  0  0  0
    5.1800   -2.6360   44.7250 C   0  0  0  0  0  0  0  0  0  0  0  0
    3.9550   -3.0070   44.1680 C   0  0  0  0  0  0  0  0  0  0  0  0
    5.8080   -1.4630   44.3100 C   0  0  0  0  0  0  0  0  0  0  0  0
    5.2110   -0.6590   43.3400 C   0  0  0  0  0  0  0  0  0  0  0  0
    3.9860   -1.0290   42.7820 C   0  0  0  0  0  0  0  0  0  0  0  0
    1.4850   -1.7260   41.4900 C   0  0  0  0  0  0  0  0  0  0  0  0
    0.5530   -0.7660   41.5780 C   0  0  0  0  0  0  0  0  0  0  0  0
  1  8  1  0
  1  2  1  0
  2  7  2  0
  2  4  1  0
  3  4  2  0
  3  5  1  0
  5  6  2  0
  6  7  1  0
  8  9  2  0
M  END
>  <vina_dock>  (523) 
-5.371

$$$$
O14757_PocketFlow_idx-in-all-generaetd-493
     RDKit          3D

 30 33  0  0  0  0  0  0  0  0999 V2000
    0.0490   -7.3520   45.4070 C   0  0  2  0  0  0  0  0  0  0  0  0
    1.1400   -6.6540   44.5650 C   0  0  0  0  0  0  0  0  0  0  0  0
    0.8610   -5.1480   44.4400 C   0  0  1  0  0  0  0  0  0  0  0  0
   -0.6830   -6.3630   46.3300 C   0  0  0  0  0  0  0  0  0  0  0  0
    0.8110   -4.5150   45.8490 C   0  0  0  0  0  0  0  0  0  0  0  0
    0.2200   -5.3640   46.8950 N   0  0  0  0  0  0  0  0  0  0  0  0
    0.5800   -8.6280   46.1010 C   0  0  0  0  0  0  0  0  0  0  0  0
    2.0920   -8.7400   46.3350 C   0  0  0  0  0  0  0  0  0  0  0  0
    2.7040   -9.9020   45.7020 N   0  0  0  0  0  0  0  0  0  0  0  0
    1.9060   -4.4690   43.5360 C   0  0  0  0  0  0  0  0  0  0  0  0
    2.6370   -3.3480   44.2240 C   0  0  0  0  0  0  0  0  0  0  0  0
    3.8820   -2.9600   43.9080 C   0  0  0  0  0  0  0  0  0  0  0  0
    4.6100   -1.8170   44.5830 C   0  0  2  0  0  0  0  0  0  0  0  0
    5.1210   -0.8210   43.5360 C   0  0  0  0  0  0  0  0  0  0  0  0
    5.7250   -2.3120   45.4920 C   0  0  0  0  0  0  0  0  0  0  0  0
    5.4240   -3.1950   46.5430 C   0  0  0  0  0  0  0  0  0  0  0  0
    7.0580   -1.9150   45.3160 C   0  0  0  0  0  0  0  0  0  0  0  0
    6.4210   -3.6570   47.4170 C   0  0  0  0  0  0  0  0  0  0  0  0
    8.0590   -2.3710   46.1780 C   0  0  0  0  0  0  0  0  0  0  0  0
    6.0810   -4.5530   48.5840 C   0  0  0  0  0  0  0  0  0  0  0  0
    7.7450   -3.2350   47.2350 C   0  0  0  0  0  0  0  0  0  0  0  0
    6.7660   -5.9060   48.6390 C   0  0  0  0  0  0  0  0  0  0  0  0
    8.8110   -3.7610   48.1610 C   0  0  0  0  0  0  0  0  0  0  0  0
    5.9500   -6.9830   49.0690 C   0  0  0  0  0  0  0  0  0  0  0  0
    8.1320   -6.1470   48.3580 C   0  0  0  0  0  0  0  0  0  0  0  0
    9.0670   -5.1840   47.9370 N   0  0  0  0  0  0  0  0  0  0  0  0
    6.4460   -8.2750   49.2100 C   0  0  0  0  0  0  0  0  0  0  0  0
    8.6020   -7.4710   48.5280 C   0  0  0  0  0  0  0  0  0  0  0  0
    9.7130   -5.5080   46.6590 C   0  0  0  0  0  0  0  0  0  0  0  0
    7.7800   -8.5200   48.9410 C   0  0  0  0  0  0  0  0  0  0  0  0
  1  2  1  0
  1  7  1  1
  1  4  1  0
  2  3  1  0
  3 10  1  6
  3  5  1  0
  4  6  1  0
  5  6  1  0
  7  8  1  0
  8  9  1  0
 10 11  1  0
 11 12  2  3
 12 13  1  0
 13 14  1  6
 13 15  1  0
 15 17  1  0
 15 16  2  0
 16 18  1  0
 17 19  2  0
 18 21  2  0
 18 20  1  0
 19 21  1  0
 20 22  1  0
 21 23  1  0
 22 25  2  0
 22 24  1  0
 23 26  1  0
 24 27  2  0
 25 26  1  0
 25 28  1  0
 26 29  1  0
 27 30  1  0
 28 30  2  0
M  END
>  <vina_dock>  (524) 
-8.777

$$$$
O14757_PocketFlow_idx-in-all-generaetd-778
     RDKit          3D

 20 21  0  0  0  0  0  0  0  0999 V2000
    0.7070   -6.7560   44.7910 C   0  0  2  0  0  0  0  0  0  0  0  0
    1.1330   -7.8680   45.7580 C   0  0  0  0  0  0  0  0  0  0  0  0
    0.7610   -5.3670   45.4680 C   0  0  0  0  0  0  0  0  0  0  0  0
    1.6300   -4.3640   44.7420 C   0  0  0  0  0  0  0  0  0  0  0  0
    3.7510   -3.1450   44.5550 C   0  0  0  0  0  0  0  0  0  0  0  0
    3.2430   -2.4970   43.4180 C   0  0  0  0  0  0  0  0  0  0  0  0
    2.9260   -4.0810   45.2040 C   0  0  0  0  0  0  0  0  0  0  0  0
    1.9580   -2.7720   42.9470 C   0  0  0  0  0  0  0  0  0  0  0  0
    1.1560   -3.7020   43.6050 C   0  0  0  0  0  0  0  0  0  0  0  0
    5.1050   -2.8570   45.0520 C   0  0  0  0  0  0  0  0  0  0  0  0
    7.1510   -1.5580   45.0360 C   0  0  0  0  0  0  0  0  0  0  0  0
    5.8730   -1.8030   44.5410 C   0  0  0  0  0  0  0  0  0  0  0  0
    7.6360   -2.3800   46.0390 C   0  0  0  0  0  0  0  0  0  0  0  0
    6.9390   -3.4080   46.5650 N   0  0  0  0  0  0  0  0  0  0  0  0
    5.6990   -3.6190   46.0600 C   0  0  0  0  0  0  0  0  0  0  0  0
   -0.6400   -7.1260   44.1930 C   0  0  0  0  0  0  0  0  0  0  0  0
   -1.6390   -7.8010   44.7860 C   0  0  0  0  0  0  0  0  0  0  0  0
   -2.8850   -8.0920   44.1120 C   0  0  0  0  0  0  0  0  0  0  0  0
   -3.7440   -9.0780   44.4100 C   0  0  0  0  0  0  0  0  0  0  0  0
   -3.6450  -10.1100   45.4870 C   0  0  0  0  0  0  0  0  0  0  0  0
  1 16  1  0
  1  3  1  0
  1  2  1  1
  3  4  1  0
  4  9  2  0
  4  7  1  0
  5  6  1  0
  5 10  1  0
  5  7  2  0
  6  8  2  0
  8  9  1  0
 10 12  1  0
 10 15  2  0
 11 12  2  0
 11 13  1  0
 13 14  2  0
 14 15  1  0
 16 17  2  3
 17 18  1  0
 18 19  2  3
 19 20  1  0
M  END
>  <vina_dock>  (525) 
-8.419

$$$$
O14757_PocketFlow_idx-in-all-generaetd-392
     RDKit          3D

 35 39  0  0  0  0  0  0  0  0999 V2000
    0.6310   -4.5410   44.9700 C   0  0  0  0  0  0  0  0  0  0  0  0
    1.2860   -4.6860   43.5870 C   0  0  0  0  0  0  0  0  0  0  0  0
    1.8530   -3.3610   43.0940 C   0  0  0  0  0  0  0  0  0  0  0  0
    5.6950   -3.9470   46.9620 C   0  0  0  0  0  0  0  0  0  0  0  0
    4.5670   -4.7040   46.6740 C   0  0  0  0  0  0  0  0  0  0  0  0
    5.9620   -2.8280   46.1800 C   0  0  0  0  0  0  0  0  0  0  0  0
    3.7190   -4.3340   45.6170 C   0  0  0  0  0  0  0  0  0  0  0  0
    5.1090   -2.4610   45.1200 C   0  0  0  0  0  0  0  0  0  0  0  0
    3.9350   -3.2060   44.7760 C   0  0  0  0  0  0  0  0  0  0  0  0
    5.4470   -1.3160   44.4190 C   0  0  0  0  0  0  0  0  0  0  0  0
    3.0720   -2.7570   43.6480 C   0  0  0  0  0  0  0  0  0  0  0  0
    4.6450   -0.8740   43.3890 C   0  0  0  0  0  0  0  0  0  0  0  0
    3.4850   -1.5480   43.0010 C   0  0  0  0  0  0  0  0  0  0  0  0
    5.0260    0.2520   42.7550 F   0  0  0  0  0  0  0  0  0  0  0  0
    1.1270   -2.7130   42.0540 C   0  0  0  0  0  0  0  0  0  0  0  0
    2.7560   -0.9690   41.9530 C   0  0  0  0  0  0  0  0  0  0  0  0
   -0.3730   -3.3190   41.4180 Cl  0  0  0  0  0  0  0  0  0  0  0  0
    1.5790   -1.5310   41.4920 C   0  0  0  0  0  0  0  0  0  0  0  0
    6.5580   -4.3510   48.0960 C   0  0  0  0  0  0  0  0  0  0  0  0
    6.4060   -4.0210   49.2560 O   0  0  0  0  0  0  0  0  0  0  0  0
    7.5820   -5.1420   47.7210 O   0  0  0  0  0  0  0  0  0  0  0  0
    0.4510   -5.8690   45.6660 C   0  0  0  0  0  0  0  0  0  0  0  0
    1.3680   -6.9120   45.4500 C   0  0  0  0  0  0  0  0  0  0  0  0
   -0.6420   -6.0860   46.5170 C   0  0  0  0  0  0  0  0  0  0  0  0
    1.1820   -8.1550   46.0600 C   0  0  0  0  0  0  0  0  0  0  0  0
   -0.8290   -7.3270   47.1220 C   0  0  0  0  0  0  0  0  0  0  0  0
    0.0730   -8.3620   46.8790 C   0  0  0  0  0  0  0  0  0  0  0  0
    1.9760   -9.2520   45.8620 O   0  0  0  0  0  0  0  0  0  0  0  0
    2.3610   -9.9770   47.0380 C   0  0  0  0  0  0  0  0  0  0  0  0
    3.4050   -9.2820   47.8920 C   0  0  0  0  0  0  0  0  0  0  0  0
    3.3510   -9.4340   49.2920 C   0  0  0  0  0  0  0  0  0  0  0  0
    4.4600   -8.5400   47.3320 C   0  0  0  0  0  0  0  0  0  0  0  0
    4.3230   -8.8480   50.1090 C   0  0  0  0  0  0  0  0  0  0  0  0
    5.4220   -7.9420   48.1550 C   0  0  0  0  0  0  0  0  0  0  0  0
    5.3540   -8.0970   49.5410 C   0  0  0  0  0  0  0  0  0  0  0  0
  1  2  1  0
  1 22  1  0
  2  3  1  0
  3 15  2  0
  3 11  1  0
  4  6  2  0
  4  5  1  0
  4 19  1  0
  5  7  2  0
  6  8  1  0
  7  9  1  0
  8 10  2  0
  8  9  1  0
  9 11  2  0
 10 12  1  0
 11 13  1  0
 12 14  1  0
 12 13  2  0
 13 16  1  0
 15 17  1  0
 15 18  1  0
 16 18  2  0
 19 21  1  0
 19 20  2  0
 22 23  2  0
 22 24  1  0
 23 25  1  0
 24 26  2  0
 25 28  1  0
 25 27  2  0
 26 27  1  0
 28 29  1  0
 29 30  1  0
 30 32  1  0
 30 31  2  0
 31 33  1  0
 32 34  2  0
 33 35  2  0
 34 35  1  0
M  END
>  <vina_dock>  (526) 
-10.043

$$$$
O14757_PocketFlow_idx-in-all-generaetd-911
     RDKit          3D

 19 19  0  0  0  0  0  0  0  0999 V2000
    2.5060   -5.0760   45.7590 C   0  0  0  0  0  0  0  0  0  0  0  0
    2.3430   -6.2860   44.8320 C   0  0  0  0  0  0  0  0  0  0  0  0
    1.7600   -7.4770   45.5510 C   0  0  0  0  0  0  0  0  0  0  0  0
    0.4350   -7.6850   45.7200 C   0  0  0  0  0  0  0  0  0  0  0  0
    2.6570   -8.5630   46.0680 C   0  0  0  0  0  0  0  0  0  0  0  0
    3.5610   -8.2130   47.0180 N   0  0  0  0  0  0  0  0  0  0  0  0
    2.6020   -9.7220   45.6750 O   0  0  0  0  0  0  0  0  0  0  0  0
   -0.6850   -6.7830   45.3170 C   0  0  0  0  0  0  0  0  0  0  0  0
   -1.0900   -5.9490   46.4360 N   0  0  0  0  0  0  0  0  0  0  0  0
    3.9690   -4.7420   46.0650 C   0  0  0  0  0  0  0  0  0  0  0  0
    4.4050   -3.3770   45.5300 C   0  0  0  0  0  0  0  0  0  0  0  0
    4.4990   -3.3850   44.0020 C   0  0  0  0  0  0  0  0  0  0  0  0
    4.1780   -2.0080   43.4160 C   0  0  0  0  0  0  0  0  0  0  0  0
    2.8260   -1.9880   42.7500 C   0  0  0  0  0  0  0  0  0  0  0  0
    1.8980   -3.0090   42.9950 C   0  0  0  0  0  0  0  0  0  0  0  0
    2.4680   -0.9340   41.8990 C   0  0  0  0  0  0  0  0  0  0  0  0
    0.6400   -2.9810   42.3910 C   0  0  0  0  0  0  0  0  0  0  0  0
    1.2090   -0.9070   41.2970 C   0  0  0  0  0  0  0  0  0  0  0  0
    0.2960   -1.9320   41.5420 C   0  0  0  0  0  0  0  0  0  0  0  0
  1  2  1  0
  1 10  1  0
  2  3  1  0
  3  4  2  3
  3  5  1  0
  4  8  1  0
  5  7  2  0
  5  6  1  0
  8  9  1  0
 10 11  1  0
 11 12  1  0
 12 13  1  0
 13 14  1  0
 14 16  2  0
 14 15  1  0
 15 17  2  0
 16 18  1  0
 17 19  1  0
 18 19  2  0
M  END
>  <vina_dock>  (527) 
-6.717

$$$$
O14757_PocketFlow_idx-in-all-generaetd-483
     RDKit          3D

 11 11  0  0  0  0  0  0  0  0999 V2000
    2.9480   -3.4790   43.9270 C   0  0  0  0  0  0  0  0  0  0  0  0
    2.0780   -2.8440   43.1260 C   0  0  0  0  0  0  0  0  0  0  0  0
    4.2690   -2.9510   44.2950 C   0  0  0  0  0  0  0  0  0  0  0  0
    5.9540   -1.2170   44.0430 C   0  0  0  0  0  0  0  0  0  0  0  0
    6.7520   -1.8420   44.9980 C   0  0  0  0  0  0  0  0  0  0  0  0
    4.7160   -1.7660   43.6980 C   0  0  0  0  0  0  0  0  0  0  0  0
    6.3120   -3.0130   45.6110 C   0  0  0  0  0  0  0  0  0  0  0  0
    5.0750   -3.5620   45.2660 C   0  0  0  0  0  0  0  0  0  0  0  0
    0.7240   -3.3900   42.7690 C   0  0  0  0  0  0  0  0  0  0  0  0
    0.0940   -2.6000   41.6220 C   0  0  0  0  0  0  0  0  0  0  0  0
    0.6530   -1.1870   41.5480 C   0  0  0  0  0  0  0  0  0  0  0  0
  1  2  2  3
  1  3  1  0
  2  9  1  0
  3  6  2  0
  3  8  1  0
  4  6  1  0
  4  5  2  0
  5  7  1  0
  7  8  2  0
  9 10  1  0
 10 11  1  0
M  END
>  <vina_dock>  (528) 
-5.994

$$$$
O14757_PocketFlow_idx-in-all-generaetd-667
     RDKit          3D

 20 23  0  0  0  0  0  0  0  0999 V2000
    3.7840   -2.2300   43.5130 C   0  0  0  0  0  0  0  0  0  0  0  0
    4.3060   -3.1060   44.4800 C   0  0  0  0  0  0  0  0  0  0  0  0
    5.5460   -2.8710   45.0830 C   0  0  0  0  0  0  0  0  0  0  0  0
    6.2920   -1.7400   44.7170 C   0  0  0  0  0  0  0  0  0  0  0  0
    4.5430   -1.1030   43.1630 C   0  0  0  0  0  0  0  0  0  0  0  0
    5.7840   -0.8590   43.7560 C   0  0  0  0  0  0  0  0  0  0  0  0
    6.0580   -3.7430   46.0420 N   0  0  0  0  0  0  0  0  0  0  0  0
    7.2800   -3.5870   46.6930 C   0  0  0  0  0  0  0  0  0  0  0  0
    8.0820   -2.4880   46.3850 C   0  0  0  0  0  0  0  0  0  0  0  0
    7.6380   -1.4740   45.3590 C   0  0  0  0  0  0  0  0  0  0  0  0
    7.6300   -4.5210   47.6020 N   0  0  0  0  0  0  0  0  0  0  0  0
    9.3050   -2.3510   47.0490 C   0  0  0  0  0  0  0  0  0  0  0  0
    9.6810   -3.3040   47.9880 C   0  0  0  0  0  0  0  0  0  0  0  0
    8.8160   -4.3590   48.2260 C   0  0  0  0  0  0  0  0  0  0  0  0
    2.4780   -2.4880   42.8840 C   0  0  0  0  0  0  0  0  0  0  0  0
    0.3870   -3.7420   42.7760 C   0  0  0  0  0  0  0  0  0  0  0  0
    1.6270   -3.4940   43.3720 C   0  0  0  0  0  0  0  0  0  0  0  0
   -0.0230   -2.9850   41.6810 C   0  0  0  0  0  0  0  0  0  0  0  0
    0.8050   -1.9820   41.1820 C   0  0  0  0  0  0  0  0  0  0  0  0
    2.0450   -1.7370   41.7790 C   0  0  0  0  0  0  0  0  0  0  0  0
  1 15  1  0
  1  5  1  0
  1  2  2  0
  2  3  1  0
  3  4  2  0
  3  7  1  0
  4  6  1  0
  4 10  1  0
  5  6  2  0
  7  8  1  0
  8  9  1  0
  8 11  1  0
  9 10  2  0
  9 12  1  0
 11 14  2  0
 12 13  2  0
 13 14  1  0
 15 20  1  0
 15 17  2  0
 16 18  2  0
 16 17  1  0
 18 19  1  0
 19 20  2  0
M  END
>  <vina_dock>  (529) 
-9.496

$$$$
O14757_PocketFlow_idx-in-all-generaetd-231
     RDKit          3D

 28 30  0  0  0  0  0  0  0  0999 V2000
    0.7620   -6.0470   44.9930 C   0  0  0  0  0  0  0  0  0  0  0  0
   -0.5150   -6.3910   45.5320 O   0  0  0  0  0  0  0  0  0  0  0  0
   -0.8170   -7.7800   45.4130 C   0  0  0  0  0  0  0  0  0  0  0  0
   -2.1080   -8.0300   44.6350 C   0  0  0  0  0  0  0  0  0  0  0  0
   -1.9860   -7.5810   43.2910 O   0  0  0  0  0  0  0  0  0  0  0  0
    1.3160   -4.8630   45.7830 C   0  0  0  0  0  0  0  0  0  0  0  0
    2.4460   -4.1800   45.0610 C   0  0  0  0  0  0  0  0  0  0  0  0
    3.7010   -3.9730   45.5200 C   0  0  0  0  0  0  0  0  0  0  0  0
    4.7520   -3.3250   44.7040 C   0  0  0  0  0  0  0  0  0  0  0  0
    4.1310   -4.3630   46.9290 C   0  0  2  0  0  0  0  0  0  0  0  0
    5.9020   -2.9800   45.3180 C   0  0  0  0  0  0  0  0  0  0  0  0
    4.9680   -3.3760   47.5130 O   0  0  0  0  0  0  0  0  0  0  0  0
    6.1640   -3.1740   46.7760 C   0  0  0  0  0  0  0  0  0  0  0  0
    4.5060   -3.1290   43.2130 C   0  0  0  0  0  0  0  0  0  0  0  0
    3.6370   -1.9550   42.8020 C   0  0  0  0  0  0  0  0  0  0  0  0
    4.1030   -0.6320   42.7820 C   0  0  0  0  0  0  0  0  0  0  0  0
    2.3110   -2.2060   42.3910 C   0  0  0  0  0  0  0  0  0  0  0  0
    5.7180   -0.2190   43.2330 Cl  0  0  0  0  0  0  0  0  0  0  0  0
    3.2600    0.4060   42.3800 C   0  0  0  0  0  0  0  0  0  0  0  0
    1.4500   -1.1740   41.9810 C   0  0  0  0  0  0  0  0  0  0  0  0
    1.9470    0.1370   41.9850 C   0  0  0  0  0  0  0  0  0  0  0  0
    0.0680   -1.4610   41.5580 C   0  0  0  0  0  0  0  0  0  0  0  0
   -0.8940   -0.4400   41.4870 C   0  0  0  0  0  0  0  0  0  0  0  0
   -0.3280   -2.7650   41.2140 C   0  0  0  0  0  0  0  0  0  0  0  0
   -2.2050   -0.7110   41.0840 C   0  0  0  0  0  0  0  0  0  0  0  0
   -1.6380   -3.0390   40.8130 C   0  0  0  0  0  0  0  0  0  0  0  0
   -2.5760   -2.0110   40.7480 C   0  0  0  0  0  0  0  0  0  0  0  0
    4.7730   -5.6280   46.9100 O   0  0  0  0  0  0  0  0  0  0  0  0
  1  2  1  0
  1  6  1  0
  2  3  1  0
  3  4  1  0
  4  5  1  0
  6  7  1  0
  7  8  2  3
  8  9  1  0
  8 10  1  0
  9 14  1  0
  9 11  2  0
 10 28  1  6
 10 12  1  0
 11 13  1  0
 12 13  1  0
 14 15  1  0
 15 17  1  0
 15 16  2  0
 16 19  1  0
 16 18  1  0
 17 20  2  0
 19 21  2  0
 20 22  1  0
 20 21  1  0
 22 24  1  0
 22 23  2  0
 23 25  1  0
 24 26  2  0
 25 27  2  0
 26 27  1  0
M  END
>  <vina_dock>  (530) 
-7.588

$$$$
O14757_PocketFlow_idx-in-all-generaetd-887
     RDKit          3D

 35 37  0  0  0  0  0  0  0  0999 V2000
    4.2950   -4.8930   46.3580 C   0  0  0  0  0  0  0  0  0  0  0  0
    5.0190   -3.8750   46.8740 C   0  0  0  0  0  0  0  0  0  0  0  0
    3.0180   -4.8220   45.5700 C   0  0  0  0  0  0  0  0  0  0  0  0
    1.8390   -4.8140   46.4150 N   0  0  0  0  0  0  0  0  0  0  0  0
    0.6230   -5.3840   45.8910 C   0  0  2  0  0  0  0  0  0  0  0  0
    0.6980   -6.7620   45.2830 C   0  0  2  0  0  0  0  0  0  0  0  0
    0.3420   -6.6650   43.9980 C   0  0  0  0  0  0  0  0  0  0  0  0
   -0.0090   -5.3890   43.6490 N   0  0  0  0  0  0  0  0  0  0  0  0
    0.3350   -4.5160   44.7120 N   0  0  0  0  0  0  0  0  0  0  0  0
    0.9580   -8.0160   45.9810 C   0  0  0  0  0  0  0  0  0  0  0  0
    2.4890   -9.6630   46.8860 C   0  0  0  0  0  0  0  0  0  0  0  0
    2.2670   -8.4630   46.2130 C   0  0  0  0  0  0  0  0  0  0  0  0
    1.3720  -10.3790   47.3010 C   0  0  0  0  0  0  0  0  0  0  0  0
    0.0910   -9.9890   47.1010 N   0  0  0  0  0  0  0  0  0  0  0  0
   -0.0810   -8.8220   46.4420 C   0  0  0  0  0  0  0  0  0  0  0  0
    3.7010  -10.2160   47.1830 O   0  0  0  0  0  0  0  0  0  0  0  0
    4.7720   -9.3160   47.4430 C   0  0  0  0  0  0  0  0  0  0  0  0
    6.2200   -4.2420   47.6270 C   0  0  0  0  0  0  0  0  0  0  0  0
    7.5000   -3.9820   47.3160 C   0  0  0  0  0  0  0  0  0  0  0  0
    8.0420   -3.2890   46.0960 C   0  0  0  0  0  0  0  0  0  0  0  0
    8.5230   -1.8640   46.3930 C   0  0  0  0  0  0  0  0  0  0  0  0
    9.7220   -1.8320   47.3460 C   0  0  0  0  0  0  0  0  0  0  0  0
    9.4310   -0.9500   48.4780 N   0  0  0  0  0  0  0  0  0  0  0  0
    9.6950   -1.6290   49.7420 C   0  0  0  0  0  0  0  0  0  0  0  0
    4.5700   -2.4970   46.7000 C   0  0  0  0  0  0  0  0  0  0  0  0
    4.7310   -1.6990   45.6320 C   0  0  0  0  0  0  0  0  0  0  0  0
    5.4240   -2.0200   44.4040 C   0  0  0  0  0  0  0  0  0  0  0  0
    5.2420   -1.4380   43.2060 C   0  0  0  0  0  0  0  0  0  0  0  0
    4.2950   -0.3310   42.8290 C   0  0  0  0  0  0  0  0  0  0  0  0
    2.9520   -0.8620   42.3820 C   0  0  0  0  0  0  0  0  0  0  0  0
    2.0220   -0.0100   41.7650 C   0  0  0  0  0  0  0  0  0  0  0  0
    2.6210   -2.2120   42.5590 C   0  0  0  0  0  0  0  0  0  0  0  0
    0.7880   -0.5010   41.3360 C   0  0  0  0  0  0  0  0  0  0  0  0
    1.3860   -2.7000   42.1330 C   0  0  0  0  0  0  0  0  0  0  0  0
    0.4700   -1.8460   41.5190 C   0  0  0  0  0  0  0  0  0  0  0  0
  1  3  1  0
  1  2  2  3
  2 25  1  0
  2 18  1  0
  3  4  1  0
  5  4  1  6
  5  9  1  0
  5  6  1  0
  6  7  1  0
  6 10  1  1
  7  8  1  0
  8  9  1  0
 10 12  1  0
 10 15  2  0
 11 12  2  0
 11 16  1  0
 11 13  1  0
 13 14  2  0
 14 15  1  0
 16 17  1  0
 18 19  2  3
 19 20  1  0
 20 21  1  0
 21 22  1  0
 22 23  1  0
 23 24  1  0
 25 26  2  3
 26 27  1  0
 27 28  2  3
 28 29  1  0
 29 30  1  0
 30 31  2  0
 30 32  1  0
 31 33  1  0
 32 34  2  0
 33 35  2  0
 34 35  1  0
M  END
>  <vina_dock>  (531) 
-8.433

$$$$
O14757_PocketFlow_idx-in-all-generaetd-275
     RDKit          3D

 34 37  0  0  0  0  0  0  0  0999 V2000
    5.6010   -7.4650   47.6140 C   0  0  0  0  0  0  0  0  0  0  0  0
    5.6750   -7.0930   49.1050 C   0  0  0  0  0  0  0  0  0  0  0  0
    6.4350   -5.8680   49.3670 N   0  0  0  0  0  0  0  0  0  0  0  0
    6.4840   -4.9240   48.3280 C   0  0  0  0  0  0  0  0  0  0  0  0
    5.3440   -1.7660   44.6240 C   0  0  0  0  0  0  0  0  0  0  0  0
    4.1540   -2.3350   45.0770 C   0  0  0  0  0  0  0  0  0  0  0  0
    6.5530   -2.1440   45.2130 C   0  0  0  0  0  0  0  0  0  0  0  0
    4.1820   -3.2740   46.1140 C   0  0  0  0  0  0  0  0  0  0  0  0
    6.5680   -3.0870   46.2580 C   0  0  0  0  0  0  0  0  0  0  0  0
    5.3700   -3.6610   46.7190 C   0  0  0  0  0  0  0  0  0  0  0  0
    7.7550   -3.4900   46.8740 C   0  0  0  0  0  0  0  0  0  0  0  0
    5.3370   -4.5550   47.7190 N   0  0  0  0  0  0  0  0  0  0  0  0
    7.7260   -4.4260   47.9150 C   0  0  0  0  0  0  0  0  0  0  0  0
    9.0110   -4.8580   48.5640 C   0  0  0  0  0  0  0  0  0  0  0  0
    5.3260   -0.7960   43.5680 C   0  0  0  0  0  0  0  0  0  0  0  0
    5.3180   -0.0180   42.7090 N   0  0  0  0  0  0  0  0  0  0  0  0
    4.3380   -8.2100   47.2430 C   0  0  0  0  0  0  0  0  0  0  0  0
    4.1610   -9.5380   47.6540 C   0  0  0  0  0  0  0  0  0  0  0  0
    3.3430   -7.5930   46.4740 C   0  0  0  0  0  0  0  0  0  0  0  0
    3.0080  -10.2350   47.3040 C   0  0  0  0  0  0  0  0  0  0  0  0
    2.1720   -8.2840   46.1120 C   0  0  0  0  0  0  0  0  0  0  0  0
    2.0190   -9.6130   46.5420 C   0  0  0  0  0  0  0  0  0  0  0  0
    1.0790   -7.5590   45.3230 C   0  0  1  0  0  0  0  0  0  0  0  0
   -0.3200   -7.8000   45.8760 C   0  0  0  0  0  0  0  0  0  0  0  0
   -0.6490   -7.6590   47.2220 C   0  0  0  0  0  0  0  0  0  0  0  0
   -1.3460   -8.2300   45.0210 C   0  0  0  0  0  0  0  0  0  0  0  0
   -1.8730   -7.9080   47.7430 N   0  0  0  0  0  0  0  0  0  0  0  0
   -2.6170   -8.4900   45.5270 C   0  0  0  0  0  0  0  0  0  0  0  0
   -2.8280   -8.3190   46.8830 C   0  0  0  0  0  0  0  0  0  0  0  0
    1.4430   -6.0980   45.1430 C   0  0  0  0  0  0  0  0  0  0  0  0
    0.8000   -5.2530   44.3200 C   0  0  0  0  0  0  0  0  0  0  0  0
    1.2060   -3.8780   44.1510 C   0  0  0  0  0  0  0  0  0  0  0  0
    0.9520   -3.0960   43.0910 C   0  0  0  0  0  0  0  0  0  0  0  0
    0.1910   -3.4310   41.8460 C   0  0  0  0  0  0  0  0  0  0  0  0
  1 17  1  0
  1  2  1  0
  2  3  1  0
  3  4  1  0
  4 12  2  0
  4 13  1  0
  5 15  1  0
  5  6  2  0
  5  7  1  0
  6  8  1  0
  7  9  2  0
  8 10  2  0
  9 10  1  0
  9 11  1  0
 10 12  1  0
 11 13  2  0
 13 14  1  0
 15 16  3  0
 17 19  1  0
 17 18  2  0
 18 20  1  0
 19 21  2  0
 20 22  2  0
 23 21  1  1
 21 22  1  0
 23 30  1  0
 23 24  1  0
 24 26  1  0
 24 25  2  0
 25 27  1  0
 26 28  2  0
 27 29  2  0
 28 29  1  0
 30 31  2  3
 31 32  1  0
 32 33  2  3
 33 34  1  0
M  END
>  <vina_dock>  (532) 
-8.161

$$$$
O14757_PocketFlow_idx-in-all-generaetd-892
     RDKit          3D

  9  9  0  0  0  0  0  0  0  0999 V2000
    5.3810   -2.5940   44.8820 C   0  0  0  0  0  0  0  0  0  0  0  0
    5.8810   -1.4510   44.2600 C   0  0  0  0  0  0  0  0  0  0  0  0
    4.1400   -3.1110   44.5040 C   0  0  0  0  0  0  0  0  0  0  0  0
    3.3890   -2.4980   43.4930 C   0  0  0  0  0  0  0  0  0  0  0  0
    3.8950   -1.3410   42.8870 C   0  0  0  0  0  0  0  0  0  0  0  0
    5.1370   -0.8230   43.2630 C   0  0  0  0  0  0  0  0  0  0  0  0
    2.0640   -2.9910   43.0890 C   0  0  0  0  0  0  0  0  0  0  0  0
    1.3440   -2.4800   42.0770 C   0  0  0  0  0  0  0  0  0  0  0  0
   -0.0060   -2.9860   41.6850 C   0  0  0  0  0  0  0  0  0  0  0  0
  1  2  2  0
  1  3  1  0
  2  6  1  0
  3  4  2  0
  4  5  1  0
  4  7  1  0
  5  6  2  0
  7  8  2  3
  8  9  1  0
M  END
>  <vina_dock>  (533) 
-5.555

$$$$
O14757_PocketFlow_idx-in-all-generaetd-449
     RDKit          3D

 35 36  0  0  0  0  0  0  0  0999 V2000
    0.7380   -3.4040   41.6480 C   0  0  0  0  0  0  0  0  0  0  0  0
    1.0050   -2.2060   41.1000 C   0  0  0  0  0  0  0  0  0  0  0  0
    0.4320   -3.6490   43.0440 C   0  0  0  0  0  0  0  0  0  0  0  0
    1.3220   -3.7630   44.0490 C   0  0  0  0  0  0  0  0  0  0  0  0
    0.8530   -3.9300   45.4790 C   0  0  0  0  0  0  0  0  0  0  0  0
    0.0830   -5.2270   45.7690 C   0  0  0  0  0  0  0  0  0  0  0  0
    0.0150   -6.1870   44.5770 C   0  0  0  0  0  0  0  0  0  0  0  0
   -0.3400   -7.6210   44.9840 C   0  0  0  0  0  0  0  0  0  0  0  0
   -1.6490   -7.7340   45.7710 C   0  0  0  0  0  0  0  0  0  0  0  0
   -1.4460   -8.4940   47.0590 C   0  0  0  0  0  0  0  0  0  0  0  0
   -0.0630   -9.0420   48.9940 C   0  0  0  0  0  0  0  0  0  0  0  0
   -0.2360   -8.3980   47.7640 C   0  0  0  0  0  0  0  0  0  0  0  0
   -1.0830   -9.8710   49.4680 C   0  0  0  0  0  0  0  0  0  0  0  0
   -2.2920   -9.9750   48.7770 C   0  0  0  0  0  0  0  0  0  0  0  0
   -2.4770   -9.2790   47.5850 C   0  0  0  0  0  0  0  0  0  0  0  0
    1.1870   -9.0350   49.6280 N   0  0  0  0  0  0  0  0  0  0  0  0
    2.7580   -3.6120   43.8710 C   0  0  0  0  0  0  0  0  0  0  0  0
    3.6880   -4.5660   44.0460 C   0  0  0  0  0  0  0  0  0  0  0  0
    3.4400   -5.9360   44.4380 C   0  0  0  0  0  0  0  0  0  0  0  0
    3.5400   -6.3600   45.7090 C   0  0  0  0  0  0  0  0  0  0  0  0
    3.3350   -7.7820   46.1320 C   0  0  0  0  0  0  0  0  0  0  0  0
    0.9900   -0.8600   41.7660 C   0  0  0  0  0  0  0  0  0  0  0  0
    2.2450   -0.0210   41.5130 C   0  0  0  0  0  0  0  0  0  0  0  0
    3.0620    0.3570   42.7530 C   0  0  0  0  0  0  0  0  0  0  0  0
    4.3540   -0.3990   42.8860 C   0  0  0  0  0  0  0  0  0  0  0  0
    4.8930   -0.7290   44.0720 C   0  0  0  0  0  0  0  0  0  0  0  0
    6.1900   -1.4480   44.3400 C   0  0  0  0  0  0  0  0  0  0  0  0
    6.2350   -2.3670   45.5370 C   0  0  0  0  0  0  0  0  0  0  0  0
    5.0690   -2.6480   46.2630 C   0  0  0  0  0  0  0  0  0  0  0  0
    7.4470   -2.9570   45.9370 C   0  0  0  0  0  0  0  0  0  0  0  0
    5.1120   -3.4930   47.3740 C   0  0  0  0  0  0  0  0  0  0  0  0
    7.4980   -3.8040   47.0530 C   0  0  0  0  0  0  0  0  0  0  0  0
    6.3200   -4.0670   47.7680 C   0  0  0  0  0  0  0  0  0  0  0  0
    8.8010   -4.4330   47.4700 C   0  0  0  0  0  0  0  0  0  0  0  0
    9.7310   -4.6560   46.2840 C   0  0  0  0  0  0  0  0  0  0  0  0
  1  2  2  3
  1  3  1  0
  2 22  1  0
  3  4  2  3
  4 17  1  0
  4  5  1  0
  5  6  1  0
  6  7  1  0
  7  8  1  0
  8  9  1  0
  9 10  1  0
 10 15  2  0
 10 12  1  0
 11 12  2  0
 11 13  1  0
 11 16  1  0
 13 14  2  0
 14 15  1  0
 17 18  2  3
 18 19  1  0
 19 20  2  3
 20 21  1  0
 22 23  1  0
 23 24  1  0
 24 25  1  0
 25 26  2  3
 26 27  1  0
 27 28  1  0
 28 30  1  0
 28 29  2  0
 29 31  1  0
 30 32  2  0
 31 33  2  0
 32 34  1  0
 32 33  1  0
 34 35  1  0
M  END
>  <vina_dock>  (534) 
-7.836

$$$$
O14757_PocketFlow_idx-in-all-generaetd-326
     RDKit          3D

  9 10  0  0  0  0  0  0  0  0999 V2000
   -0.0060   -2.5960   42.0330 N   0  0  0  0  0  0  0  0  0  0  0  0
    0.9860   -1.5480   41.6260 C   0  0  0  0  0  0  0  0  0  0  0  0
    2.2380   -1.8780   42.3620 C   0  0  0  0  0  0  0  0  0  0  0  0
    3.4750   -1.2650   42.3810 C   0  0  0  0  0  0  0  0  0  0  0  0
    4.4710   -1.8240   43.1910 C   0  0  0  0  0  0  0  0  0  0  0  0
    4.2160   -2.9740   43.9630 C   0  0  0  0  0  0  0  0  0  0  0  0
    2.9610   -3.5850   43.9350 C   0  0  0  0  0  0  0  0  0  0  0  0
    2.0060   -3.0070   43.1270 C   0  0  0  0  0  0  0  0  0  0  0  0
    0.6280   -3.3700   42.8650 C   0  0  0  0  0  0  0  0  0  0  0  0
  1  2  2  0
  1  9  1  0
  2  3  1  0
  3  4  1  0
  3  8  1  0
  4  5  2  0
  5  6  1  0
  6  7  2  0
  7  8  1  0
  8  9  2  0
M  END
>  <vina_dock>  (535) 
-5.376

$$$$
O14757_PocketFlow_idx-in-all-generaetd-971
     RDKit          3D

  8  7  0  0  0  0  0  0  0  0999 V2000
    4.0210   -2.7960   44.3360 C   0  0  0  0  0  0  0  0  0  0  0  0
    4.1770   -1.8050   43.4410 C   0  0  0  0  0  0  0  0  0  0  0  0
    3.0720   -3.9520   44.1600 C   0  0  0  0  0  0  0  0  0  0  0  0
    1.7010   -3.5080   43.6660 C   0  0  0  0  0  0  0  0  0  0  0  0
    0.8580   -3.3790   44.7260 F   0  0  0  0  0  0  0  0  0  0  0  0
    5.1070   -0.6440   43.5870 C   0  0  0  0  0  0  0  0  0  0  0  0
    6.3580   -1.0720   43.8930 F   0  0  0  0  0  0  0  0  0  0  0  0
    5.2150    0.0730   42.4360 F   0  0  0  0  0  0  0  0  0  0  0  0
  1  2  2  3
  1  3  1  0
  2  6  1  0
  3  4  1  0
  4  5  1  0
  6  8  1  0
  6  7  1  0
M  END
>  <vina_dock>  (536) 
-4.165

$$$$
O14757_PocketFlow_idx-in-all-generaetd-70
     RDKit          3D

 32 35  0  0  0  0  0  0  0  0999 V2000
    5.4460   -3.3350   45.5890 C   0  0  0  0  0  0  0  0  0  0  0  0
    4.7060   -2.6260   44.4670 C   0  0  0  0  0  0  0  0  0  0  0  0
    1.3450   -4.3630   44.2400 C   0  0  0  0  0  0  0  0  0  0  0  0
    0.7710   -3.6420   43.1940 C   0  0  0  0  0  0  0  0  0  0  0  0
    2.6340   -4.0240   44.6720 C   0  0  0  0  0  0  0  0  0  0  0  0
    1.4820   -2.6100   42.5820 C   0  0  0  0  0  0  0  0  0  0  0  0
    3.3860   -2.9870   44.0690 C   0  0  0  0  0  0  0  0  0  0  0  0
    2.7790   -2.2750   43.0030 C   0  0  0  0  0  0  0  0  0  0  0  0
    3.4720   -1.2350   42.3680 C   0  0  0  0  0  0  0  0  0  0  0  0
    5.3710   -1.5770   43.8050 C   0  0  0  0  0  0  0  0  0  0  0  0
    4.7590   -0.8870   42.7660 C   0  0  0  0  0  0  0  0  0  0  0  0
    0.6170   -5.4340   44.9300 C   0  0  0  0  0  0  0  0  0  0  0  0
   -0.0270   -6.4170   44.2810 C   0  0  0  0  0  0  0  0  0  0  0  0
   -0.7280   -7.4780   44.9700 C   0  0  0  0  0  0  0  0  0  0  0  0
   -1.8720   -8.0470   44.5690 C   0  0  0  0  0  0  0  0  0  0  0  0
   -2.6420   -7.7770   43.4680 N   0  0  0  0  0  0  0  0  0  0  0  0
    6.8660   -2.8680   45.8320 C   0  0  0  0  0  0  0  0  0  0  0  0
    7.8710   -3.7590   46.2420 C   0  0  0  0  0  0  0  0  0  0  0  0
    7.1850   -1.5100   45.7100 C   0  0  0  0  0  0  0  0  0  0  0  0
    9.1780   -3.3160   46.5070 C   0  0  0  0  0  0  0  0  0  0  0  0
    8.4820   -1.0560   45.9670 C   0  0  0  0  0  0  0  0  0  0  0  0
   10.1820   -4.2070   46.9130 C   0  0  0  0  0  0  0  0  0  0  0  0
    9.4890   -1.9470   46.3660 C   0  0  0  0  0  0  0  0  0  0  0  0
   11.4760   -3.7540   47.1810 C   0  0  0  0  0  0  0  0  0  0  0  0
   10.7970   -1.5050   46.6350 C   0  0  0  0  0  0  0  0  0  0  0  0
   11.8010   -2.3980   47.0440 C   0  0  0  0  0  0  0  0  0  0  0  0
   13.2060   -1.8880   47.3410 C   0  0  2  0  0  0  0  0  0  0  0  0
   13.5940   -2.1960   48.7940 C   0  0  0  0  0  0  0  0  0  0  0  0
   13.3530   -0.4400   46.9130 C   0  0  0  0  0  0  0  0  0  0  0  0
   13.4830    0.6350   47.7060 C   0  0  0  0  0  0  0  0  0  0  0  0
   13.6020    1.9760   47.1830 C   0  0  0  0  0  0  0  0  0  0  0  0
   13.5120    2.2630   45.8790 C   0  0  0  0  0  0  0  0  0  0  0  0
  1  2  1  0
  1 17  1  0
  2 10  2  0
  2  7  1  0
  3  4  2  0
  3  5  1  0
  3 12  1  0
  4  6  1  0
  5  7  2  0
  6  8  2  0
  7  8  1  0
  8  9  1  0
  9 11  2  0
 10 11  1  0
 12 13  2  3
 13 14  1  0
 14 15  2  3
 15 16  1  0
 17 19  1  0
 17 18  2  0
 18 20  1  0
 19 21  2  0
 20 23  2  0
 20 22  1  0
 21 23  1  0
 22 24  2  0
 23 25  1  0
 24 26  1  0
 25 26  2  0
 26 27  1  0
 27 29  1  0
 27 28  1  1
 29 30  2  3
 30 31  1  0
 31 32  2  0
M  END
>  <vina_dock>  (537) 
-9.634

$$$$
O14757_PocketFlow_idx-in-all-generaetd-492
     RDKit          3D

 17 18  0  0  0  0  0  0  0  0999 V2000
    4.1070   -4.5820   44.9610 C   0  0  2  0  0  0  0  0  0  0  0  0
    2.8660   -5.5000   45.0820 C   0  0  0  0  0  0  0  0  0  0  0  0
    1.6360   -4.9320   44.7110 C   0  0  0  0  0  0  0  0  0  0  0  0
    0.4910   -5.7300   44.6970 C   0  0  0  0  0  0  0  0  0  0  0  0
    0.5810   -7.0760   45.0650 C   0  0  0  0  0  0  0  0  0  0  0  0
    4.1790   -3.5920   45.8690 C   0  0  0  0  0  0  0  0  0  0  0  0
    4.6540   -2.3640   45.6460 C   0  0  0  0  0  0  0  0  0  0  0  0
    1.8110   -7.6280   45.4400 C   0  0  0  0  0  0  0  0  0  0  0  0
    2.9630   -6.8410   45.4420 C   0  0  0  0  0  0  0  0  0  0  0  0
    4.7590   -1.6830   44.4970 C   0  0  0  0  0  0  0  0  0  0  0  0
    4.1750   -1.7740   43.2910 C   0  0  0  0  0  0  0  0  0  0  0  0
    3.1030   -2.3550   42.7240 C   0  0  0  0  0  0  0  0  0  0  0  0
    2.0010   -3.0340   43.0820 C   0  0  1  0  0  0  0  0  0  0  0  0
    1.5490   -3.3500   44.3070 C   0  0  0  0  0  0  0  0  0  0  0  0
    1.1060   -3.2350   42.0780 F   0  0  0  0  0  0  0  0  0  0  0  0
    3.7250   -3.8440   47.1240 F   0  0  0  0  0  0  0  0  0  0  0  0
    4.8640   -4.6210   43.8030 O   0  0  0  0  0  0  0  0  0  0  0  0
  1 17  1  6
  1  2  1  0
  1  6  1  0
  2  3  2  0
  2  9  1  0
  3 14  1  0
  3  4  1  0
  4  5  2  0
  5  8  1  0
  6  7  1  0
  6 16  1  0
  7 10  1  0
  8  9  2  0
 10 11  1  0
 11 12  2  3
 12 13  1  0
 13 15  1  1
 13 14  1  0
M  END
>  <vina_dock>  (538) 
-7.142

$$$$
O14757_PocketFlow_idx-in-all-generaetd-240
     RDKit          3D

 35 38  0  0  0  0  0  0  0  0999 V2000
    2.9680   -5.4400   44.6660 C   0  0  0  0  0  0  0  0  0  0  0  0
    4.0230   -4.3190   44.5990 C   0  0  0  0  0  0  0  0  0  0  0  0
    3.9410   -3.2070   45.6720 C   0  0  1  0  0  0  0  0  0  0  0  0
    8.8340   -3.9030   47.0160 C   0  0  0  0  0  0  0  0  0  0  0  0
    8.0940   -4.7060   47.8870 C   0  0  0  0  0  0  0  0  0  0  0  0
    8.1750   -3.0070   46.1610 C   0  0  0  0  0  0  0  0  0  0  0  0
    6.7050   -4.6380   47.8760 C   0  0  0  0  0  0  0  0  0  0  0  0
    6.7780   -2.9160   46.1380 C   0  0  0  0  0  0  0  0  0  0  0  0
    6.0470   -3.7650   46.9960 C   0  0  0  0  0  0  0  0  0  0  0  0
    6.1140   -2.0520   45.3150 N   0  0  0  0  0  0  0  0  0  0  0  0
    4.5360   -3.7010   47.0120 C   0  0  0  0  0  0  0  0  0  0  0  0
    6.6520   -1.1560   44.3160 C   0  0  0  0  0  0  0  0  0  0  0  0
    4.6620   -1.8940   45.3320 C   0  0  1  0  0  0  0  0  0  0  0  0
    5.5680   -0.3560   43.7190 N   0  0  0  0  0  0  0  0  0  0  0  0
    4.3950   -1.2430   43.9580 C   0  0  0  0  0  0  0  0  0  0  0  0
   10.3190   -4.0080   47.0480 C   0  0  0  0  0  0  0  0  0  0  0  0
   11.0180   -2.8460   46.7860 N   0  0  0  0  0  0  0  0  0  0  0  0
   10.8570   -5.0880   47.2600 O   0  0  0  0  0  0  0  0  0  0  0  0
   12.4540   -2.8690   46.6680 C   0  0  0  0  0  0  0  0  0  0  0  0
    1.5190   -5.1450   44.1860 C   0  0  2  0  0  0  0  0  0  0  0  0
    1.2820   -3.6280   43.9840 C   0  0  0  0  0  0  0  0  0  0  0  0
    0.6580   -3.2490   42.6310 C   0  0  0  0  0  0  0  0  0  0  0  0
    1.4600   -2.2260   41.8190 C   0  0  0  0  0  0  0  0  0  0  0  0
    0.7750   -0.8820   41.6490 C   0  0  0  0  0  0  0  0  0  0  0  0
    0.4750   -5.8030   45.1200 C   0  0  0  0  0  0  0  0  0  0  0  0
   -0.1450   -7.1130   44.6170 C   0  0  0  0  0  0  0  0  0  0  0  0
   -0.4430   -8.1570   45.7120 C   0  0  1  0  0  0  0  0  0  0  0  0
    0.8430   -8.6580   46.3270 C   0  0  0  0  0  0  0  0  0  0  0  0
   -1.3330   -7.6490   46.8130 C   0  0  2  0  0  0  0  0  0  0  0  0
    1.9120   -8.6270   45.7220 O   0  0  0  0  0  0  0  0  0  0  0  0
    0.7660   -9.2720   47.5230 O   0  0  0  0  0  0  0  0  0  0  0  0
   -0.7950   -6.5580   47.4080 F   0  0  0  0  0  0  0  0  0  0  0  0
   -1.5060   -8.6420   47.7960 O   0  0  0  0  0  0  0  0  0  0  0  0
   -0.2640   -8.8800   48.4160 C   0  0  1  0  0  0  0  0  0  0  0  0
   -0.4990  -10.2110   49.5760 Cl  0  0  0  0  0  0  0  0  0  0  0  0
 20  1  1  1
  1  2  1  0
  3  2  1  6
  3 13  1  0
  3 11  1  0
  4  6  2  0
  4 16  1  0
  4  5  1  0
  5  7  2  0
  6  8  1  0
  7  9  1  0
  8 10  1  0
  8  9  2  0
  9 11  1  0
 10 12  1  0
 10 13  1  0
 12 14  1  0
 13 15  1  6
 14 15  1  0
 16 17  1  0
 16 18  2  0
 17 19  1  0
 20 21  1  0
 20 25  1  0
 21 22  1  0
 22 23  1  0
 23 24  1  0
 25 26  1  0
 27 26  1  6
 27 28  1  0
 27 29  1  0
 28 30  2  0
 28 31  1  0
 29 32  1  1
 29 33  1  0
 31 34  1  0
 33 34  1  0
 34 35  1  1
M  END
>  <vina_dock>  (539) 
-8.652

$$$$
O14757_PocketFlow_idx-in-all-generaetd-461
     RDKit          3D

 12 11  0  0  0  0  0  0  0  0999 V2000
    3.6620   -4.3130   44.2940 C   0  0  0  0  0  0  0  0  0  0  0  0
    4.7160   -4.0370   45.3300 C   0  0  0  0  0  0  0  0  0  0  0  0
    5.1820   -2.8410   45.7210 C   0  0  0  0  0  0  0  0  0  0  0  0
    4.7730   -1.4870   45.2120 C   0  0  0  0  0  0  0  0  0  0  0  0
    5.4940   -1.0870   43.9220 C   0  0  0  0  0  0  0  0  0  0  0  0
    4.6170   -0.3140   42.9460 C   0  0  0  0  0  0  0  0  0  0  0  0
    2.2380   -4.3020   44.8590 C   0  0  0  0  0  0  0  0  0  0  0  0
    1.2220   -3.6240   43.9300 C   0  0  0  0  0  0  0  0  0  0  0  0
    1.8830   -2.7700   42.8390 C   0  0  0  0  0  0  0  0  0  0  0  0
    0.9300   -2.2140   41.8060 C   0  0  0  0  0  0  0  0  0  0  0  0
    1.0480   -0.9580   41.3440 C   0  0  0  0  0  0  0  0  0  0  0  0
   -0.1340   -3.1420   41.2910 C   0  0  0  0  0  0  0  0  0  0  0  0
  1  7  1  0
  1  2  1  0
  2  3  2  3
  3  4  1  0
  4  5  1  0
  5  6  1  0
  7  8  1  0
  8  9  1  0
  9 10  1  0
 10 12  1  0
 10 11  2  0
M  END
>  <vina_dock>  (540) 
-5.448

$$$$
O14757_PocketFlow_idx-in-all-generaetd-343
     RDKit          3D

 34 37  0  0  0  0  0  0  0  0999 V2000
    9.7360   -2.4560   47.2240 C   0  0  0  0  0  0  0  0  0  0  0  0
    9.9310   -3.5170   48.3340 C   0  0  1  0  0  0  0  0  0  0  0  0
   11.3630   -4.0610   48.3690 C   0  0  0  0  0  0  0  0  0  0  0  0
   11.8420   -4.5700   47.0190 C   0  0  0  0  0  0  0  0  0  0  0  0
   12.7570   -3.9860   46.4260 O   0  0  0  0  0  0  0  0  0  0  0  0
   11.0950   -5.7520   46.4230 C   0  0  0  0  0  0  0  0  0  0  0  0
   10.5240   -6.5520   47.3650 F   0  0  0  0  0  0  0  0  0  0  0  0
   10.0750   -5.3420   45.6120 F   0  0  0  0  0  0  0  0  0  0  0  0
   11.8800   -6.5600   45.6590 F   0  0  0  0  0  0  0  0  0  0  0  0
    9.6300   -3.0230   49.6440 O   0  0  0  0  0  0  0  0  0  0  0  0
    9.8010   -1.6170   49.7900 C   0  0  0  0  0  0  0  0  0  0  0  0
    8.4020   -2.4570   46.5100 C   0  0  0  0  0  0  0  0  0  0  0  0
    8.0850   -1.4310   45.6100 C   0  0  0  0  0  0  0  0  0  0  0  0
    7.4740   -3.4840   46.7040 C   0  0  0  0  0  0  0  0  0  0  0  0
    6.8620   -1.4290   44.9310 C   0  0  0  0  0  0  0  0  0  0  0  0
    6.2490   -3.4770   46.0270 C   0  0  0  0  0  0  0  0  0  0  0  0
    5.9200   -2.4510   45.1270 C   0  0  0  0  0  0  0  0  0  0  0  0
    4.6310   -2.4500   44.4090 C   0  0  0  0  0  0  0  0  0  0  0  0
    3.5190   -3.1490   44.9100 C   0  0  0  0  0  0  0  0  0  0  0  0
    4.4740   -1.7500   43.2040 C   0  0  0  0  0  0  0  0  0  0  0  0
    2.2830   -3.1550   44.2350 C   0  0  0  0  0  0  0  0  0  0  0  0
    3.2560   -1.7560   42.5170 C   0  0  0  0  0  0  0  0  0  0  0  0
    1.1090   -3.9150   44.8170 C   0  0  0  0  0  0  0  0  0  0  0  0
    2.1540   -2.4620   43.0160 C   0  0  0  0  0  0  0  0  0  0  0  0
    0.7430   -5.0690   43.9710 N   0  0  0  0  0  0  0  0  0  0  0  0
    0.8470   -2.4610   42.2510 C   0  0  0  0  0  0  0  0  0  0  0  0
    0.3100   -4.9150   42.6620 C   0  0  0  0  0  0  0  0  0  0  0  0
    0.3220   -3.8200   41.8860 C   0  0  0  0  0  0  0  0  0  0  0  0
    0.5580   -6.2760   44.6910 C   0  0  0  0  0  0  0  0  0  0  0  0
    1.6500   -6.9410   45.2750 C   0  0  0  0  0  0  0  0  0  0  0  0
   -0.7120   -6.8610   44.8300 C   0  0  0  0  0  0  0  0  0  0  0  0
    1.4780   -8.1310   45.9860 C   0  0  0  0  0  0  0  0  0  0  0  0
   -0.8870   -8.0520   45.5430 C   0  0  0  0  0  0  0  0  0  0  0  0
    0.2090   -8.6850   46.1250 C   0  0  0  0  0  0  0  0  0  0  0  0
  1 12  1  0
  2  1  1  6
  2  3  1  0
  2 10  1  0
  3  4  1  0
  4  6  1  0
  4  5  2  0
  6  8  1  0
  6  9  1  0
  6  7  1  0
 10 11  1  0
 12 13  2  0
 12 14  1  0
 13 15  1  0
 14 16  2  0
 15 17  2  0
 16 17  1  0
 17 18  1  0
 18 20  1  0
 18 19  2  0
 19 21  1  0
 20 22  2  0
 21 24  2  0
 21 23  1  0
 22 24  1  0
 23 25  1  0
 24 26  1  0
 25 27  1  0
 25 29  1  0
 26 28  1  0
 27 28  2  0
 29 31  1  0
 29 30  2  0
 30 32  1  0
 31 33  2  0
 32 34  2  0
 33 34  1  0
M  END
>  <vina_dock>  (541) 
-8.598

$$$$
O14757_PocketFlow_idx-in-all-generaetd-414
     RDKit          3D

 35 39  0  0  0  0  0  0  0  0999 V2000
    3.1990   -0.8140   42.4100 C   0  0  0  0  0  0  0  0  0  0  0  0
    3.1030   -2.0820   42.9910 C   0  0  0  0  0  0  0  0  0  0  0  0
    4.0720   -2.5250   43.8990 C   0  0  0  0  0  0  0  0  0  0  0  0
    5.1640   -1.7130   44.2480 C   0  0  0  0  0  0  0  0  0  0  0  0
    5.2540   -0.4440   43.6550 C   0  0  0  0  0  0  0  0  0  0  0  0
    4.2870    0.0010   42.7470 C   0  0  0  0  0  0  0  0  0  0  0  0
    2.1610   -0.3390   41.4200 C   0  0  0  0  0  0  0  0  0  0  0  0
    0.9790   -1.2700   41.2850 C   0  0  0  0  0  0  0  0  0  0  0  0
   -1.4290   -1.6540   41.3930 C   0  0  0  0  0  0  0  0  0  0  0  0
   -0.3250   -0.8020   41.5030 C   0  0  0  0  0  0  0  0  0  0  0  0
   -1.2260   -2.9940   41.0630 C   0  0  0  0  0  0  0  0  0  0  0  0
    0.0680   -3.4740   40.8480 C   0  0  0  0  0  0  0  0  0  0  0  0
    1.1650   -2.6200   40.9600 C   0  0  0  0  0  0  0  0  0  0  0  0
   -2.6380   -1.0580   41.6300 O   0  0  0  0  0  0  0  0  0  0  0  0
   -2.9280    0.1200   40.8890 C   0  0  0  0  0  0  0  0  0  0  0  0
    6.1830   -2.1810   45.2010 C   0  0  0  0  0  0  0  0  0  0  0  0
    7.4050   -1.5090   45.3440 C   0  0  0  0  0  0  0  0  0  0  0  0
    5.9660   -3.3180   45.9940 C   0  0  0  0  0  0  0  0  0  0  0  0
    8.3770   -1.9510   46.2500 C   0  0  0  0  0  0  0  0  0  0  0  0
    6.9330   -3.7640   46.9010 C   0  0  0  0  0  0  0  0  0  0  0  0
    8.1520   -3.0810   47.0490 C   0  0  0  0  0  0  0  0  0  0  0  0
    9.1930   -3.6160   48.0420 C   0  0  1  0  0  0  0  0  0  0  0  0
   10.0010   -4.8120   47.5190 C   0  0  0  0  0  0  0  0  0  0  0  0
   10.4100   -4.9200   46.1790 C   0  0  0  0  0  0  0  0  0  0  0  0
   10.3830   -5.8250   48.4160 C   0  0  0  0  0  0  0  0  0  0  0  0
   11.1610   -6.0160   45.7480 C   0  0  0  0  0  0  0  0  0  0  0  0
   11.1350   -6.9200   47.9830 C   0  0  0  0  0  0  0  0  0  0  0  0
   11.5220   -7.0150   46.6490 C   0  0  0  0  0  0  0  0  0  0  0  0
   10.0450   -2.5280   48.7080 C   0  0  0  0  0  0  0  0  0  0  0  0
   11.3230   -2.1810   48.2470 C   0  0  0  0  0  0  0  0  0  0  0  0
    9.5160   -1.8150   49.7990 C   0  0  0  0  0  0  0  0  0  0  0  0
   12.0590   -1.1680   48.8700 C   0  0  0  0  0  0  0  0  0  0  0  0
   10.2510   -0.8030   50.4200 C   0  0  0  0  0  0  0  0  0  0  0  0
   11.5350   -0.4800   49.9690 C   0  0  0  0  0  0  0  0  0  0  0  0
   12.3110    0.6290   50.6140 C   0  0  0  0  0  0  0  0  0  0  0  0
  1  7  1  0
  1  6  1  0
  1  2  2  0
  2  3  1  0
  3  4  2  0
  4  5  1  0
  4 16  1  0
  5  6  2  0
  7  8  1  0
  8 13  1  0
  8 10  2  0
  9 11  2  0
  9 10  1  0
  9 14  1  0
 11 12  1  0
 12 13  2  0
 14 15  1  0
 16 17  2  0
 16 18  1  0
 17 19  1  0
 18 20  2  0
 19 21  2  0
 20 21  1  0
 22 21  1  6
 22 23  1  0
 22 29  1  0
 23 24  2  0
 23 25  1  0
 24 26  1  0
 25 27  2  0
 26 28  2  0
 27 28  1  0
 29 30  2  0
 29 31  1  0
 30 32  1  0
 31 33  2  0
 32 34  2  0
 33 34  1  0
 34 35  1  0
M  END
>  <vina_dock>  (542) 
-9.487

$$$$
O14757_PocketFlow_idx-in-all-generaetd-128
     RDKit          3D

 34 39  0  0  0  0  0  0  0  0999 V2000
    5.9930   -3.0160   45.3390 C   0  0  0  0  0  0  0  0  0  0  0  0
    6.0130   -1.9390   44.4370 C   0  0  0  0  0  0  0  0  0  0  0  0
    4.9030   -1.6470   43.6370 C   0  0  0  0  0  0  0  0  0  0  0  0
    3.7330   -2.4140   43.7140 C   0  0  0  0  0  0  0  0  0  0  0  0
    3.7080   -3.4850   44.6220 C   0  0  0  0  0  0  0  0  0  0  0  0
    4.8240   -3.7950   45.4230 C   0  0  0  0  0  0  0  0  0  0  0  0
    7.1680   -3.2160   46.2010 C   0  0  0  0  0  0  0  0  0  0  0  0
    8.2510   -2.4260   46.1340 C   0  0  0  0  0  0  0  0  0  0  0  0
    9.5050   -2.5280   46.9690 C   0  0  1  0  0  0  0  0  0  0  0  0
    8.6300   -2.6720   49.4300 C   0  0  0  0  0  0  0  0  0  0  0  0
    9.2230   -3.1910   48.2950 C   0  0  0  0  0  0  0  0  0  0  0  0
    8.5130   -3.5020   50.5490 C   0  0  0  0  0  0  0  0  0  0  0  0
    9.6760   -4.5120   48.2860 C   0  0  0  0  0  0  0  0  0  0  0  0
    8.9950   -4.8280   50.5300 C   0  0  0  0  0  0  0  0  0  0  0  0
   10.6290   -3.4720   46.4490 C   0  0  0  0  0  0  0  0  0  0  0  0
   10.2770   -4.8880   46.9640 C   0  0  1  0  0  0  0  0  0  0  0  0
    9.6090   -5.3520   49.3890 C   0  0  0  0  0  0  0  0  0  0  0  0
   11.4040   -5.8780   47.1420 C   0  0  0  0  0  0  0  0  0  0  0  0
   10.1870   -6.7550   49.2260 C   0  0  1  0  0  0  0  0  0  0  0  0
   12.4380   -5.9480   46.2010 C   0  0  0  0  0  0  0  0  0  0  0  0
   11.3860   -6.7750   48.2480 C   0  0  0  0  0  0  0  0  0  0  0  0
   10.4670   -7.4350   50.5740 C   0  0  0  0  0  0  0  0  0  0  0  0
   13.4680   -6.8710   46.3530 C   0  0  0  0  0  0  0  0  0  0  0  0
   12.4350   -7.6990   48.3720 C   0  0  0  0  0  0  0  0  0  0  0  0
   13.4680   -7.7410   47.4370 C   0  0  0  0  0  0  0  0  0  0  0  0
    4.6610   -4.9550   46.3300 C   0  0  0  0  0  0  0  0  0  0  0  0
    4.8910   -4.9500   47.5260 O   0  0  0  0  0  0  0  0  0  0  0  0
    4.1300   -6.0320   45.7330 O   0  0  0  0  0  0  0  0  0  0  0  0
    2.5700   -2.1010   42.8690 C   0  0  0  0  0  0  0  0  0  0  0  0
    2.5190   -0.9170   42.1160 C   0  0  0  0  0  0  0  0  0  0  0  0
    1.4720   -2.9740   42.8020 C   0  0  0  0  0  0  0  0  0  0  0  0
    1.4080   -0.6130   41.3270 C   0  0  0  0  0  0  0  0  0  0  0  0
    0.3610   -2.6730   42.0100 C   0  0  0  0  0  0  0  0  0  0  0  0
    0.3290   -1.4920   41.2740 C   0  0  0  0  0  0  0  0  0  0  0  0
  1  2  2  0
  1  6  1  0
  1  7  1  0
  2  3  1  0
  3  4  2  0
  4 29  1  0
  4  5  1  0
  5  6  2  0
  6 26  1  0
  7  8  2  3
  8  9  1  0
  9 15  1  6
  9 11  1  0
 10 11  2  0
 10 12  1  0
 11 13  1  0
 12 14  2  0
 13 16  1  0
 13 17  2  0
 14 17  1  0
 16 15  1  1
 16 18  1  0
 17 19  1  0
 18 20  1  0
 18 21  2  0
 19 21  1  0
 19 22  1  1
 20 23  2  0
 21 24  1  0
 23 25  1  0
 24 25  2  0
 26 28  1  0
 26 27  2  0
 29 30  2  0
 29 31  1  0
 30 32  1  0
 31 33  2  0
 32 34  2  0
 33 34  1  0
M  END
>  <vina_dock>  (543) 
-8.849

$$$$
O14757_PocketFlow_idx-in-all-generaetd-704
     RDKit          3D

 21 22  0  0  0  0  0  0  0  0999 V2000
    1.3910   -3.2510   42.3070 O   0  0  0  0  0  0  0  0  0  0  0  0
    1.9540   -3.5220   43.5220 C   0  0  0  0  0  0  0  0  0  0  0  0
    1.1130   -4.2160   44.4010 C   0  0  0  0  0  0  0  0  0  0  0  0
    3.2380   -3.1840   43.9370 C   0  0  0  0  0  0  0  0  0  0  0  0
    1.5120   -4.5680   45.7010 C   0  0  0  0  0  0  0  0  0  0  0  0
    3.6720   -3.5580   45.2090 C   0  0  0  0  0  0  0  0  0  0  0  0
    2.8220   -4.2560   46.0740 C   0  0  0  0  0  0  0  0  0  0  0  0
    0.6340   -5.3160   46.4860 N   0  0  0  0  0  0  0  0  0  0  0  0
   -0.0580   -6.4750   45.9640 C   0  0  2  0  0  0  0  0  0  0  0  0
   -0.8990   -7.0450   47.0750 C   0  0  0  0  0  0  0  0  0  0  0  0
    0.9110   -7.5920   45.7130 C   0  0  0  0  0  0  0  0  0  0  0  0
   -0.4830   -8.2850   47.3770 C   0  0  0  0  0  0  0  0  0  0  0  0
    0.6320   -8.6130   46.5310 C   0  0  0  0  0  0  0  0  0  0  0  0
    1.4540  -10.0920   46.5990 Cl  0  0  0  0  0  0  0  0  0  0  0  0
    0.5790   -2.0810   42.1530 C   0  0  2  0  0  0  0  0  0  0  0  0
   -0.7750   -2.5020   41.6050 C   0  0  0  0  0  0  0  0  0  0  0  0
   -1.8080   -1.8520   41.5940 O   0  0  0  0  0  0  0  0  0  0  0  0
   -0.7570   -3.7230   41.0270 O   0  0  0  0  0  0  0  0  0  0  0  0
    1.2390   -1.0680   41.2200 C   0  0  2  0  0  0  0  0  0  0  0  0
    1.8380   -1.7130   40.1820 F   0  0  0  0  0  0  0  0  0  0  0  0
    2.4290    0.0000   42.0070 Cl  0  0  0  0  0  0  0  0  0  0  0  0
 15  1  1  6
  1  2  1  0
  2  4  2  0
  2  3  1  0
  3  5  2  0
  4  6  1  0
  5  7  1  0
  5  8  1  0
  6  7  2  0
  9  8  1  1
  9 11  1  0
  9 10  1  0
 10 12  2  0
 11 13  2  0
 12 13  1  0
 13 14  1  0
 15 19  1  0
 15 16  1  0
 16 18  1  0
 16 17  2  0
 19 20  1  6
 19 21  1  0
M  END
>  <vina_dock>  (544) 
-7.317

$$$$
O14757_PocketFlow_idx-in-all-generaetd-238
     RDKit          3D

 24 27  0  0  0  0  0  0  0  0999 V2000
    1.1810   -2.8930   42.5830 C   0  0  0  0  0  0  0  0  0  0  0  0
    2.4190   -2.2490   42.6360 C   0  0  0  0  0  0  0  0  0  0  0  0
    3.3670   -2.5800   43.6130 C   0  0  0  0  0  0  0  0  0  0  0  0
    3.0780   -3.5830   44.5690 C   0  0  0  0  0  0  0  0  0  0  0  0
    1.8120   -4.2440   44.5250 C   0  0  0  0  0  0  0  0  0  0  0  0
    0.8970   -3.8960   43.5160 C   0  0  0  0  0  0  0  0  0  0  0  0
    4.0870   -3.8690   45.5160 C   0  0  0  0  0  0  0  0  0  0  0  0
    5.3210   -3.1920   45.5250 C   0  0  0  0  0  0  0  0  0  0  0  0
    6.3180   -3.4790   46.4700 C   0  0  0  0  0  0  0  0  0  0  0  0
    7.5210   -2.7850   46.4400 C   0  0  0  0  0  0  0  0  0  0  0  0
    7.6870   -1.8230   45.4640 C   0  0  0  0  0  0  0  0  0  0  0  0
    6.7500   -1.5200   44.5380 N   0  0  0  0  0  0  0  0  0  0  0  0
    5.5870   -2.1960   44.5720 C   0  0  0  0  0  0  0  0  0  0  0  0
    4.6040   -1.9130   43.6360 C   0  0  0  0  0  0  0  0  0  0  0  0
    0.1880   -2.5530   41.5030 C   0  0  0  0  0  0  0  0  0  0  0  0
   -1.1400   -2.6210   42.0050 O   0  0  0  0  0  0  0  0  0  0  0  0
    1.4820   -5.3280   45.5450 C   0  0  0  0  0  0  0  0  0  0  0  0
    1.3780   -6.7950   45.0860 C   0  0  0  0  0  0  0  0  0  0  0  0
    0.0420   -7.4940   45.2140 C   0  0  0  0  0  0  0  0  0  0  0  0
   -0.9220   -7.2780   44.2150 C   0  0  0  0  0  0  0  0  0  0  0  0
   -0.2680   -8.3780   46.2550 C   0  0  0  0  0  0  0  0  0  0  0  0
   -2.1670   -7.9080   44.2690 C   0  0  0  0  0  0  0  0  0  0  0  0
   -1.5150   -9.0080   46.3100 C   0  0  0  0  0  0  0  0  0  0  0  0
   -2.4640   -8.7730   45.3190 C   0  0  0  0  0  0  0  0  0  0  0  0
  1 15  1  0
  1  2  2  0
  1  6  1  0
  2  3  1  0
  3 14  2  0
  3  4  1  0
  4  5  1  0
  4  7  2  0
  5  6  2  0
  5 17  1  0
  7  8  1  0
  8 13  2  0
  8  9  1  0
  9 10  2  0
 10 11  1  0
 11 12  2  0
 12 13  1  0
 13 14  1  0
 15 16  1  0
 17 18  1  0
 18 19  1  0
 19 20  2  0
 19 21  1  0
 20 22  1  0
 21 23  2  0
 22 24  2  0
 23 24  1  0
M  END
>  <vina_dock>  (545) 
-10.091

$$$$
O14757_PocketFlow_idx-in-all-generaetd-115
     RDKit          3D

 29 33  0  0  0  0  0  0  0  0999 V2000
    1.0260   -1.9920   41.8870 C   0  0  0  0  0  0  0  0  0  0  0  0
    2.1420   -2.2740   42.7040 C   0  0  0  0  0  0  0  0  0  0  0  0
    3.1860   -1.3360   42.7490 C   0  0  0  0  0  0  0  0  0  0  0  0
    3.0640   -0.1690   41.9980 C   0  0  0  0  0  0  0  0  0  0  0  0
    2.0000    0.1310   41.2270 N   0  0  0  0  0  0  0  0  0  0  0  0
    1.0080   -0.7890   41.1890 C   0  0  0  0  0  0  0  0  0  0  0  0
    4.4430   -1.5730   43.5350 C   0  0  0  0  0  0  0  0  0  0  0  0
    4.3630   -2.6700   44.5660 C   0  0  0  0  0  0  0  0  0  0  0  0
    5.3830   -2.7540   45.5320 C   0  0  0  0  0  0  0  0  0  0  0  0
    5.3960   -3.7640   46.5030 C   0  0  0  0  0  0  0  0  0  0  0  0
    4.3600   -4.7060   46.4780 C   0  0  0  0  0  0  0  0  0  0  0  0
    3.3290   -4.6590   45.5190 C   0  0  0  0  0  0  0  0  0  0  0  0
    3.3280   -3.6220   44.5540 C   0  0  0  0  0  0  0  0  0  0  0  0
    2.2330   -3.5550   43.5040 C   0  0  0  0  0  0  0  0  0  0  0  0
   -0.0970   -2.9430   41.7160 C   0  0  0  0  0  0  0  0  0  0  0  0
   -0.0180   -4.1200   41.4230 O   0  0  0  0  0  0  0  0  0  0  0  0
   -1.2940   -2.3690   41.9370 O   0  0  0  0  0  0  0  0  0  0  0  0
    2.2880   -5.6980   45.5640 C   0  0  0  0  0  0  0  0  0  0  0  0
    0.9410   -5.3510   45.7540 C   0  0  0  0  0  0  0  0  0  0  0  0
    2.6170   -7.0540   45.4290 C   0  0  0  0  0  0  0  0  0  0  0  0
   -0.0500   -6.3350   45.8010 C   0  0  0  0  0  0  0  0  0  0  0  0
    1.6270   -8.0380   45.4740 C   0  0  0  0  0  0  0  0  0  0  0  0
    0.2940   -7.6770   45.6590 C   0  0  0  0  0  0  0  0  0  0  0  0
    6.4680   -3.8360   47.5100 C   0  0  0  0  0  0  0  0  0  0  0  0
    7.7690   -3.3950   47.2160 C   0  0  0  0  0  0  0  0  0  0  0  0
    6.2210   -4.3490   48.7940 C   0  0  0  0  0  0  0  0  0  0  0  0
    8.7870   -3.4630   48.1700 C   0  0  0  0  0  0  0  0  0  0  0  0
    7.2380   -4.4180   49.7510 C   0  0  0  0  0  0  0  0  0  0  0  0
    8.5200   -3.9750   49.4380 C   0  0  0  0  0  0  0  0  0  0  0  0
  1  6  2  0
  1 15  1  0
  1  2  1  0
  2  3  2  0
  2 14  1  0
  3  4  1  0
  3  7  1  0
  4  5  2  0
  5  6  1  0
  7  8  2  0
  8 13  1  0
  8  9  1  0
  9 10  2  0
 10 11  1  0
 10 24  1  0
 11 12  2  0
 12 13  1  0
 12 18  1  0
 13 14  2  0
 15 16  2  0
 15 17  1  0
 18 20  1  0
 18 19  2  0
 19 21  1  0
 20 22  2  0
 21 23  2  0
 22 23  1  0
 24 25  2  0
 24 26  1  0
 25 27  1  0
 26 28  2  0
 27 29  2  0
 28 29  1  0
M  END
>  <vina_dock>  (546) 
-9.933

$$$$
O14757_PocketFlow_idx-in-all-generaetd-297
     RDKit          3D

  7  7  0  0  0  0  0  0  0  0999 V2000
    2.1080   -3.6500   43.8790 C   0  0  0  0  0  0  0  0  0  0  0  0
    3.4300   -3.2470   44.0440 C   0  0  0  0  0  0  0  0  0  0  0  0
    3.9160   -2.1940   43.2790 C   0  0  0  0  0  0  0  0  0  0  0  0
    3.0530   -1.5950   42.3790 C   0  0  0  0  0  0  0  0  0  0  0  0
    1.3130   -2.9820   42.9580 C   0  0  0  0  0  0  0  0  0  0  0  0
    1.7650   -1.9670   42.2040 N   0  0  0  0  0  0  0  0  0  0  0  0
   -0.0090   -3.3690   42.7520 N   0  0  0  0  0  0  0  0  0  0  0  0
  1  5  2  0
  1  2  1  0
  2  3  2  0
  3  4  1  0
  4  6  2  0
  5  6  1  0
  5  7  1  0
M  END
>  <vina_dock>  (547) 
-4.141

$$$$
O14757_PocketFlow_idx-in-all-generaetd-160
     RDKit          3D

 10 10  0  0  0  0  0  0  0  0999 V2000
    3.2030   -4.3360   44.2100 C   0  0  0  0  0  0  0  0  0  0  0  0
    4.0720   -3.1050   44.0770 C   0  0  0  0  0  0  0  0  0  0  0  0
    4.6190   -1.0220   42.9550 C   0  0  0  0  0  0  0  0  0  0  0  0
    3.8090   -2.1520   43.0830 C   0  0  0  0  0  0  0  0  0  0  0  0
    5.7000   -0.8360   43.8140 C   0  0  0  0  0  0  0  0  0  0  0  0
    5.9750   -1.7810   44.8020 C   0  0  0  0  0  0  0  0  0  0  0  0
    5.1670   -2.9110   44.9330 C   0  0  0  0  0  0  0  0  0  0  0  0
    1.7150   -4.1070   44.4060 C   0  0  0  0  0  0  0  0  0  0  0  0
    0.8630   -3.6570   43.4680 C   0  0  0  0  0  0  0  0  0  0  0  0
    1.2200   -4.4290   45.7910 C   0  0  0  0  0  0  0  0  0  0  0  0
  1  2  1  0
  1  8  1  0
  2  4  2  0
  2  7  1  0
  3  4  1  0
  3  5  2  0
  5  6  1  0
  6  7  2  0
  8  9  2  0
  8 10  1  0
M  END
>  <vina_dock>  (548) 
-5.674

$$$$
O14757_PocketFlow_idx-in-all-generaetd-529
     RDKit          3D

 27 30  0  0  0  0  0  0  0  0999 V2000
    7.4140   -1.6890   45.3150 C   0  0  0  0  0  0  0  0  0  0  0  0
    8.4430   -1.9500   46.2310 C   0  0  0  0  0  0  0  0  0  0  0  0
    6.2330   -2.4510   45.3090 C   0  0  0  0  0  0  0  0  0  0  0  0
    6.0740   -3.4890   46.2510 C   0  0  0  0  0  0  0  0  0  0  0  0
    4.8920   -4.2510   46.2450 C   0  0  0  0  0  0  0  0  0  0  0  0
    3.8640   -4.0010   45.3200 C   0  0  0  0  0  0  0  0  0  0  0  0
    2.6810   -4.7640   45.3140 C   0  0  0  0  0  0  0  0  0  0  0  0
    1.6530   -4.5110   44.3910 C   0  0  0  0  0  0  0  0  0  0  0  0
    1.8210   -3.4840   43.4590 C   0  0  0  0  0  0  0  0  0  0  0  0
    2.9900   -2.7260   43.4610 C   0  0  0  0  0  0  0  0  0  0  0  0
    4.0230   -2.9640   44.3800 C   0  0  0  0  0  0  0  0  0  0  0  0
    5.2050   -2.2020   44.3860 C   0  0  0  0  0  0  0  0  0  0  0  0
    3.1130   -1.7470   42.5500 F   0  0  0  0  0  0  0  0  0  0  0  0
    7.0980   -3.7360   47.1760 C   0  0  0  0  0  0  0  0  0  0  0  0
    8.2690   -2.9710   47.1690 C   0  0  0  0  0  0  0  0  0  0  0  0
    9.6430   -1.1060   46.2090 C   0  0  0  0  0  0  0  0  0  0  0  0
   10.8650   -1.5200   46.5740 C   0  0  0  0  0  0  0  0  0  0  0  0
   11.9420   -0.6750   46.5190 N   0  0  0  0  0  0  0  0  0  0  0  0
   12.7570   -0.7310   47.5170 C   0  0  0  0  0  0  0  0  0  0  0  0
    0.4010   -5.3520   44.3880 C   0  0  0  0  0  0  0  0  0  0  0  0
    0.6950   -6.8020   44.7820 C   0  0  0  0  0  0  0  0  0  0  0  0
   -0.5770   -7.5870   44.9930 C   0  0  0  0  0  0  0  0  0  0  0  0
   -0.7350   -8.3880   46.1330 C   0  0  0  0  0  0  0  0  0  0  0  0
   -1.6030   -7.5490   44.0400 C   0  0  0  0  0  0  0  0  0  0  0  0
   -1.9040   -9.1290   46.3180 C   0  0  0  0  0  0  0  0  0  0  0  0
   -2.7700   -8.2900   44.2270 C   0  0  0  0  0  0  0  0  0  0  0  0
   -2.9200   -9.0800   45.3660 C   0  0  0  0  0  0  0  0  0  0  0  0
  1  3  2  0
  1  2  1  0
  2 16  1  0
  2 15  2  0
  3 12  1  0
  3  4  1  0
  4  5  1  0
  4 14  2  0
  5  6  2  0
  6 11  1  0
  6  7  1  0
  7  8  2  0
  8  9  1  0
  8 20  1  0
  9 10  2  0
 10 13  1  0
 10 11  1  0
 11 12  2  0
 14 15  1  0
 16 17  2  3
 17 18  1  0
 18 19  2  0
 20 21  1  0
 21 22  1  0
 22 24  1  0
 22 23  2  0
 23 25  1  0
 24 26  2  0
 25 27  2  0
 26 27  1  0
M  END
>  <vina_dock>  (549) 
-9.778

$$$$
O14757_PocketFlow_idx-in-all-generaetd-121
     RDKit          3D

 35 39  0  0  0  0  0  0  0  0999 V2000
    5.5130   -3.5150   45.5430 C   0  0  0  0  0  0  0  0  0  0  0  0
    5.2680   -4.7790   46.0810 C   0  0  0  0  0  0  0  0  0  0  0  0
    4.5620   -2.9230   44.7090 C   0  0  0  0  0  0  0  0  0  0  0  0
    3.3560   -3.5820   44.4200 C   0  0  0  0  0  0  0  0  0  0  0  0
    2.4200   -2.9890   43.5690 C   0  0  0  0  0  0  0  0  0  0  0  0
    1.2400   -3.6580   43.2540 C   0  0  0  0  0  0  0  0  0  0  0  0
    0.9790   -4.9170   43.8150 C   0  0  0  0  0  0  0  0  0  0  0  0
    1.8650   -5.5340   44.7190 C   0  0  0  0  0  0  0  0  0  0  0  0
    3.0880   -4.8570   44.9820 C   0  0  0  0  0  0  0  0  0  0  0  0
    4.0790   -5.4550   45.7860 C   0  0  0  0  0  0  0  0  0  0  0  0
    1.6010   -6.8650   45.3770 C   0  0  0  0  0  0  0  0  0  0  0  0
    0.3800   -7.5740   45.3310 C   0  0  0  0  0  0  0  0  0  0  0  0
    0.2390   -8.8450   45.9000 C   0  0  0  0  0  0  0  0  0  0  0  0
    1.2880   -9.4200   46.6010 C   0  0  0  0  0  0  0  0  0  0  0  0
    2.5000   -8.7320   46.7430 C   0  0  0  0  0  0  0  0  0  0  0  0
    2.6590   -7.4660   46.1300 C   0  0  0  0  0  0  0  0  0  0  0  0
    3.8340   -6.7120   46.3650 N   0  0  0  0  0  0  0  0  0  0  0  0
    6.7800   -2.8200   45.8570 C   0  0  0  0  0  0  0  0  0  0  0  0
    7.1240   -1.6730   45.3390 N   0  0  0  0  0  0  0  0  0  0  0  0
    7.6770   -3.3990   46.7520 N   0  0  0  0  0  0  0  0  0  0  0  0
    8.3460   -1.4240   45.9060 C   0  0  0  0  0  0  0  0  0  0  0  0
    8.6580   -2.5670   46.8090 C   0  0  0  0  0  0  0  0  0  0  0  0
    9.0950   -0.4810   45.7540 O   0  0  0  0  0  0  0  0  0  0  0  0
    0.2320   -3.0760   42.3340 C   0  0  0  0  0  0  0  0  0  0  0  0
   -0.0460   -1.8950   42.2310 O   0  0  0  0  0  0  0  0  0  0  0  0
   -0.3860   -4.0030   41.5810 O   0  0  0  0  0  0  0  0  0  0  0  0
    3.5780   -9.3610   47.5890 C   0  0  0  0  0  0  0  0  0  0  0  0
    4.6750   -9.7590   46.8790 F   0  0  0  0  0  0  0  0  0  0  0  0
    4.0460   -8.5180   48.5490 F   0  0  0  0  0  0  0  0  0  0  0  0
    3.1530  -10.4760   48.2500 F   0  0  0  0  0  0  0  0  0  0  0  0
   -0.7430   -7.0770   44.7200 O   0  0  0  0  0  0  0  0  0  0  0  0
   -1.9340   -7.4820   45.4140 C   0  0  0  0  0  0  0  0  0  0  0  0
   -2.9590   -7.8730   44.3920 C   0  0  0  0  0  0  0  0  0  0  0  0
   -3.7370   -8.9690   44.3740 C   0  0  0  0  0  0  0  0  0  0  0  0
   -3.7610  -10.0880   45.3630 C   0  0  0  0  0  0  0  0  0  0  0  0
  1  3  1  0
  1 18  1  0
  1  2  2  0
  2 10  1  0
  3  4  2  0
  4  5  1  0
  4  9  1  0
  5  6  2  0
  6 24  1  0
  6  7  1  0
  7  8  2  0
  8  9  1  0
  8 11  1  0
  9 10  2  0
 10 17  1  0
 11 12  2  0
 11 16  1  0
 12 31  1  0
 12 13  1  0
 13 14  2  0
 14 15  1  0
 15 16  2  0
 15 27  1  0
 16 17  1  0
 18 19  2  0
 18 20  1  0
 19 21  1  0
 20 22  2  0
 21 23  2  0
 21 22  1  0
 24 26  1  0
 24 25  2  0
 27 28  1  0
 27 30  1  0
 27 29  1  0
 31 32  1  0
 32 33  1  0
 33 34  2  3
 34 35  1  0
M  END
>  <vina_dock>  (550) 
-9.467

$$$$
O14757_PocketFlow_idx-in-all-generaetd-465
     RDKit          3D

 21 24  0  0  0  0  0  0  0  0999 V2000
    0.6800   -3.5800   43.1090 C   0  0  0  0  0  0  0  0  0  0  0  0
    0.0540   -2.9770   42.0200 C   0  0  0  0  0  0  0  0  0  0  0  0
    1.9830   -3.2070   43.4680 C   0  0  0  0  0  0  0  0  0  0  0  0
    2.6670   -2.2280   42.7370 C   0  0  0  0  0  0  0  0  0  0  0  0
    4.0650   -1.7980   43.0900 C   0  0  0  0  0  0  0  0  0  0  0  0
    4.6870   -2.4940   44.2710 C   0  0  0  0  0  0  0  0  0  0  0  0
    4.0050   -3.4690   45.0020 C   0  0  0  0  0  0  0  0  0  0  0  0
    4.6190   -4.0860   46.0980 C   0  0  0  0  0  0  0  0  0  0  0  0
    2.6270   -3.8620   44.6290 C   0  0  0  0  0  0  0  0  0  0  0  0
    0.7250   -2.0020   41.2860 C   0  0  0  0  0  0  0  0  0  0  0  0
    2.0230   -1.6290   41.6410 C   0  0  0  0  0  0  0  0  0  0  0  0
    5.9180   -3.7330   46.4690 C   0  0  0  0  0  0  0  0  0  0  0  0
    6.6310   -2.7590   45.7540 C   0  0  0  0  0  0  0  0  0  0  0  0
    5.9980   -2.1500   44.6560 C   0  0  0  0  0  0  0  0  0  0  0  0
    2.0300   -4.7170   45.2730 O   0  0  0  0  0  0  0  0  0  0  0  0
    7.9980   -2.3840   46.1420 C   0  0  0  0  0  0  0  0  0  0  0  0
    8.8290   -3.2540   46.8590 C   0  0  0  0  0  0  0  0  0  0  0  0
    8.5430   -1.1410   45.8150 C   0  0  0  0  0  0  0  0  0  0  0  0
   10.1200   -2.8640   47.2120 C   0  0  0  0  0  0  0  0  0  0  0  0
    9.7950   -0.7320   46.1420 N   0  0  0  0  0  0  0  0  0  0  0  0
   10.5530   -1.6060   46.8340 C   0  0  0  0  0  0  0  0  0  0  0  0
  1  2  2  0
  1  3  1  0
  2 10  1  0
  3  4  2  0
  3  9  1  0
  4 11  1  0
  4  5  1  0
  5  6  1  0
  6 14  2  0
  6  7  1  0
  7  9  1  0
  7  8  2  0
  8 12  1  0
  9 15  2  0
 10 11  2  0
 12 13  2  0
 13 14  1  0
 13 16  1  0
 16 18  1  0
 16 17  2  0
 17 19  1  0
 18 20  2  0
 19 21  2  0
 20 21  1  0
M  END
>  <vina_dock>  (551) 
-9.991

$$$$
O14757_PocketFlow_idx-in-all-generaetd-224
     RDKit          3D

 32 36  0  0  0  0  0  0  0  0999 V2000
    3.2850   -1.0530   42.5970 C   0  0  0  0  0  0  0  0  0  0  0  0
    4.5660   -0.5160   42.7470 C   0  0  0  0  0  0  0  0  0  0  0  0
    5.5190   -1.1750   43.5220 C   0  0  0  0  0  0  0  0  0  0  0  0
    5.2150   -2.3910   44.1500 C   0  0  0  0  0  0  0  0  0  0  0  0
    3.9350   -2.9700   43.9850 C   0  0  0  0  0  0  0  0  0  0  0  0
    2.9840   -2.2780   43.2160 C   0  0  0  0  0  0  0  0  0  0  0  0
    6.2530   -3.0540   45.0310 C   0  0  0  0  0  0  0  0  0  0  0  0
    5.8890   -3.0080   46.5350 C   0  0  1  0  0  0  0  0  0  0  0  0
    4.5480   -3.5900   46.9530 C   0  0  0  0  0  0  0  0  0  0  0  0
    3.5880   -4.1310   46.1830 C   0  0  0  0  0  0  0  0  0  0  0  0
    3.6260   -4.3040   44.6750 C   0  0  1  0  0  0  0  0  0  0  0  0
    2.2420   -0.3350   41.7690 C   0  0  0  0  0  0  0  0  0  0  0  0
    0.9840   -1.1390   41.5200 C   0  0  0  0  0  0  0  0  0  0  0  0
   -1.4250   -1.2870   41.3520 C   0  0  0  0  0  0  0  0  0  0  0  0
   -0.2780   -0.5330   41.5860 C   0  0  0  0  0  0  0  0  0  0  0  0
   -1.3410   -2.6370   41.0390 C   0  0  0  0  0  0  0  0  0  0  0  0
   -0.0920   -3.2470   40.9680 C   0  0  0  0  0  0  0  0  0  0  0  0
    1.0650   -2.5030   41.2080 C   0  0  0  0  0  0  0  0  0  0  0  0
   -2.6660   -0.7310   41.4220 O   0  0  0  0  0  0  0  0  0  0  0  0
    2.3510   -5.0210   44.1440 C   0  0  0  0  0  0  0  0  0  0  0  0
    1.9920   -6.2920   44.8870 C   0  0  0  0  0  0  0  0  0  0  0  0
    0.6500   -6.6460   45.0900 C   0  0  0  0  0  0  0  0  0  0  0  0
    2.9980   -7.1390   45.3730 C   0  0  0  0  0  0  0  0  0  0  0  0
    0.3230   -7.8200   45.7710 C   0  0  0  0  0  0  0  0  0  0  0  0
    2.6680   -8.3120   46.0550 C   0  0  0  0  0  0  0  0  0  0  0  0
    1.3320   -8.6500   46.2550 C   0  0  0  0  0  0  0  0  0  0  0  0
    7.0210   -3.6350   47.3460 C   0  0  0  0  0  0  0  0  0  0  0  0
    8.3070   -3.7430   46.7960 C   0  0  0  0  0  0  0  0  0  0  0  0
    6.7990   -4.1260   48.6430 C   0  0  0  0  0  0  0  0  0  0  0  0
    9.3430   -4.3290   47.5260 C   0  0  0  0  0  0  0  0  0  0  0  0
    7.8370   -4.7090   49.3720 C   0  0  0  0  0  0  0  0  0  0  0  0
    9.1080   -4.8100   48.8130 C   0  0  0  0  0  0  0  0  0  0  0  0
  1 12  1  0
  1  2  2  0
  1  6  1  0
  2  3  1  0
  3  4  2  0
  4  5  1  0
  4  7  1  0
  5  6  2  0
  5 11  1  0
  7  8  1  0
  8  9  1  0
  8 27  1  1
  9 10  2  0
 10 11  1  0
 11 20  1  6
 12 13  1  0
 13 18  1  0
 13 15  2  0
 14 16  2  0
 14 19  1  0
 14 15  1  0
 16 17  1  0
 17 18  2  0
 20 21  1  0
 21 22  2  0
 21 23  1  0
 22 24  1  0
 23 25  2  0
 24 26  2  0
 25 26  1  0
 27 28  2  0
 27 29  1  0
 28 30  1  0
 29 31  2  0
 30 32  2  0
 31 32  1  0
M  END
>  <vina_dock>  (552) 
-10.818

$$$$
O14757_PocketFlow_idx-in-all-generaetd-341
     RDKit          3D

 35 38  0  0  0  0  0  0  0  0999 V2000
    9.8220   -4.1720   47.4620 C   0  0  0  0  0  0  0  0  0  0  0  0
    9.9040   -4.6980   46.1710 C   0  0  0  0  0  0  0  0  0  0  0  0
   10.9590   -5.5510   45.8320 C   0  0  0  0  0  0  0  0  0  0  0  0
   11.9450   -5.8760   46.7740 C   0  0  0  0  0  0  0  0  0  0  0  0
   11.8650   -5.3340   48.0630 C   0  0  0  0  0  0  0  0  0  0  0  0
   10.8100   -4.4820   48.4010 C   0  0  0  0  0  0  0  0  0  0  0  0
    8.8380   -3.3090   47.8990 O   0  0  0  0  0  0  0  0  0  0  0  0
    7.6460   -3.3090   47.2120 C   0  0  0  0  0  0  0  0  0  0  0  0
    3.7760   -2.4140   43.9550 C   0  0  0  0  0  0  0  0  0  0  0  0
    4.8050   -1.5300   43.6060 C   0  0  0  0  0  0  0  0  0  0  0  0
    4.0150   -3.2680   45.0480 C   0  0  0  0  0  0  0  0  0  0  0  0
    6.0160   -1.5110   44.3100 C   0  0  0  0  0  0  0  0  0  0  0  0
    5.2260   -3.2640   45.7660 C   0  0  0  0  0  0  0  0  0  0  0  0
    6.2620   -2.3760   45.4010 C   0  0  0  0  0  0  0  0  0  0  0  0
    5.4010   -4.1360   46.8510 C   0  0  0  0  0  0  0  0  0  0  0  0
    7.4710   -2.4060   46.1480 C   0  0  0  0  0  0  0  0  0  0  0  0
    6.5970   -4.1560   47.5820 C   0  0  0  0  0  0  0  0  0  0  0  0
    8.7810   -1.3290   45.7460 Cl  0  0  0  0  0  0  0  0  0  0  0  0
    2.4880   -2.4570   43.2310 C   0  0  0  0  0  0  0  0  0  0  0  0
    2.3170   -1.5170   42.2720 N   0  0  0  0  0  0  0  0  0  0  0  0
    1.4940   -3.3830   43.4980 C   0  0  0  0  0  0  0  0  0  0  0  0
    1.1470   -1.5650   41.6130 C   0  0  0  0  0  0  0  0  0  0  0  0
    0.3350   -3.3890   42.8100 N   0  0  0  0  0  0  0  0  0  0  0  0
    0.9440   -0.6480   40.6560 F   0  0  0  0  0  0  0  0  0  0  0  0
    0.1610   -2.4570   41.8430 N   0  0  0  0  0  0  0  0  0  0  0  0
    6.7110   -5.0400   48.7650 C   0  0  0  0  0  0  0  0  0  0  0  0
    7.0060   -6.2180   48.7780 O   0  0  0  0  0  0  0  0  0  0  0  0
    6.4310   -4.3750   49.9010 O   0  0  0  0  0  0  0  0  0  0  0  0
   13.0430   -6.7890   46.3560 C   0  0  0  0  0  0  0  0  0  0  0  0
   14.0070   -6.4270   45.6990 O   0  0  0  0  0  0  0  0  0  0  0  0
   12.8160   -8.0480   46.8070 O   0  0  0  0  0  0  0  0  0  0  0  0
   12.3970   -8.9710   45.7910 C   0  0  0  0  0  0  0  0  0  0  0  0
   11.2200   -9.7690   46.3420 C   0  0  0  0  0  0  0  0  0  0  0  0
    9.8660   -9.1000   46.1120 C   0  0  0  0  0  0  0  0  0  0  0  0
    9.2980   -8.4410   47.3600 C   0  0  0  0  0  0  0  0  0  0  0  0
  1  2  2  0
  1  7  1  0
  1  6  1  0
  2  3  1  0
  3  4  2  0
  4 29  1  0
  4  5  1  0
  5  6  2  0
  7  8  1  0
  8 16  2  0
  8 17  1  0
  9 19  1  0
  9 10  2  0
  9 11  1  0
 10 12  1  0
 11 13  2  0
 12 14  2  0
 13 14  1  0
 13 15  1  0
 14 16  1  0
 15 17  2  0
 16 18  1  0
 17 26  1  0
 19 20  1  0
 19 21  1  0
 20 22  2  0
 21 23  2  0
 22 24  1  0
 22 25  1  0
 23 25  1  0
 26 27  2  0
 26 28  1  0
 29 30  2  0
 29 31  1  0
 31 32  1  0
 32 33  1  0
 33 34  1  0
 34 35  1  0
M  END
>  <vina_dock>  (553) 
-7.849

$$$$
O14757_PocketFlow_idx-in-all-generaetd-950
     RDKit          3D

 35 39  0  0  0  0  0  0  0  0999 V2000
    0.3400   -3.3140   42.8200 N   0  0  0  0  0  0  0  0  0  0  0  0
    1.6110   -3.1760   43.3910 C   0  0  0  0  0  0  0  0  0  0  0  0
    1.9870   -3.9080   44.5270 C   0  0  0  0  0  0  0  0  0  0  0  0
    3.2800   -3.7150   45.0510 C   0  0  0  0  0  0  0  0  0  0  0  0
    4.1930   -2.8210   44.4680 C   0  0  0  0  0  0  0  0  0  0  0  0
    3.7830   -2.1040   43.3350 C   0  0  0  0  0  0  0  0  0  0  0  0
    2.5030   -2.2810   42.7930 C   0  0  0  0  0  0  0  0  0  0  0  0
   -0.0430   -2.7540   41.6420 C   0  0  0  0  0  0  0  0  0  0  0  0
    0.8720   -1.9910   40.9920 N   0  0  0  0  0  0  0  0  0  0  0  0
    2.0420   -1.4540   41.6330 C   0  0  0  0  0  0  0  0  0  0  0  0
   -1.1560   -2.9540   41.1660 O   0  0  0  0  0  0  0  0  0  0  0  0
    1.0630   -4.8750   45.2320 C   0  0  0  0  0  0  0  0  0  0  0  0
    1.2140   -6.2990   44.6930 C   0  0  0  0  0  0  0  0  0  0  0  0
   -0.0090   -6.7100   43.8720 C   0  0  0  0  0  0  0  0  0  0  0  0
   -1.0040   -7.4770   44.7060 C   0  0  0  0  0  0  0  0  0  0  0  0
   -0.6930   -7.8450   46.0230 C   0  0  0  0  0  0  0  0  0  0  0  0
   -2.2360   -7.8590   44.1680 C   0  0  0  0  0  0  0  0  0  0  0  0
   -1.5990   -8.5800   46.8060 C   0  0  0  0  0  0  0  0  0  0  0  0
   -3.1480   -8.5880   44.9340 C   0  0  0  0  0  0  0  0  0  0  0  0
   -1.2950   -8.9510   48.1260 C   0  0  0  0  0  0  0  0  0  0  0  0
   -2.8440   -8.9570   46.2540 C   0  0  0  0  0  0  0  0  0  0  0  0
   -2.2050   -9.6830   48.8900 C   0  0  0  0  0  0  0  0  0  0  0  0
   -3.7490   -9.6930   47.0350 C   0  0  0  0  0  0  0  0  0  0  0  0
   -3.4310  -10.0540   48.3460 C   0  0  0  0  0  0  0  0  0  0  0  0
    5.5390   -2.6390   45.0370 C   0  0  0  0  0  0  0  0  0  0  0  0
    6.3600   -1.5760   44.6290 C   0  0  0  0  0  0  0  0  0  0  0  0
    6.0350   -3.5240   46.0080 C   0  0  0  0  0  0  0  0  0  0  0  0
    7.6350   -1.4060   45.1710 C   0  0  0  0  0  0  0  0  0  0  0  0
    7.3150   -3.3620   46.5630 C   0  0  0  0  0  0  0  0  0  0  0  0
    8.1110   -2.2950   46.1330 C   0  0  0  0  0  0  0  0  0  0  0  0
    7.8260   -4.3360   47.5970 C   0  0  0  0  0  0  0  0  0  0  0  0
    7.1990   -4.1510   48.9860 C   0  0  0  0  0  0  0  0  0  0  0  0
    5.9660   -5.0230   49.2620 C   0  0  0  0  0  0  0  0  0  0  0  0
    5.7850   -6.2800   48.4530 C   0  0  0  0  0  0  0  0  0  0  0  0
    5.5600   -7.5210   48.9050 C   0  0  0  0  0  0  0  0  0  0  0  0
  1  8  1  0
  1  2  1  0
  2  7  2  0
  2  3  1  0
  3  4  2  0
  3 12  1  0
  4  5  1  0
  5  6  2  0
  5 25  1  0
  6  7  1  0
  7 10  1  0
  8  9  1  0
  8 11  2  0
  9 10  1  0
 12 13  1  0
 13 14  1  0
 14 15  1  0
 15 17  1  0
 15 16  2  0
 16 18  1  0
 17 19  2  0
 18 21  2  0
 18 20  1  0
 19 21  1  0
 20 22  2  0
 21 23  1  0
 22 24  1  0
 23 24  2  0
 25 26  2  0
 25 27  1  0
 26 28  1  0
 27 29  2  0
 28 30  2  0
 29 30  1  0
 29 31  1  0
 31 32  1  0
 32 33  1  0
 33 34  1  0
 34 35  2  0
M  END
>  <vina_dock>  (554) 
-10.464

$$$$
O14757_PocketFlow_idx-in-all-generaetd-170
     RDKit          3D

 13 14  0  0  0  0  0  0  0  0999 V2000
    3.4980   -2.6140   43.7420 C   0  0  0  0  0  0  0  0  0  0  0  0
    3.5260   -1.5360   42.8420 C   0  0  0  0  0  0  0  0  0  0  0  0
    4.6120   -2.7960   44.5780 C   0  0  0  0  0  0  0  0  0  0  0  0
    5.7120   -1.9310   44.5190 C   0  0  0  0  0  0  0  0  0  0  0  0
    4.6210   -0.6700   42.7790 C   0  0  0  0  0  0  0  0  0  0  0  0
    5.7150   -0.8670   43.6190 C   0  0  0  0  0  0  0  0  0  0  0  0
    2.3430   -3.5220   43.7920 C   0  0  0  0  0  0  0  0  0  0  0  0
    0.2870   -4.4150   43.4720 N   0  0  0  0  0  0  0  0  0  0  0  0
    0.8830   -5.2990   44.4720 C   0  0  0  0  0  0  0  0  0  0  0  0
    1.1360   -3.3590   43.2310 C   0  0  0  0  0  0  0  0  0  0  0  0
    2.3560   -4.8440   44.5280 C   0  0  0  0  0  0  0  0  0  0  0  0
    6.8340   -2.1400   45.3810 C   0  0  0  0  0  0  0  0  0  0  0  0
    7.7750   -2.3160   46.1050 C   0  0  0  0  0  0  0  0  0  0  0  0
  1  2  2  0
  1  7  1  0
  1  3  1  0
  2  5  1  0
  3  4  2  0
  4  6  1  0
  4 12  1  0
  5  6  2  0
  7 10  1  0
  7 11  1  0
  8 10  1  0
  8  9  1  0
  9 11  1  0
 12 13  3  0
M  END
>  <vina_dock>  (555) 
-7.048

$$$$
O14757_PocketFlow_idx-in-all-generaetd-812
     RDKit          3D

 35 38  0  0  0  0  0  0  0  0999 V2000
    2.6320   -0.2090   42.3430 C   0  0  0  0  0  0  0  0  0  0  0  0
    3.8780   -1.0880   42.2050 C   0  0  0  0  0  0  0  0  0  0  0  0
    4.0430   -2.0080   43.3880 C   0  0  0  0  0  0  0  0  0  0  0  0
    5.7630   -4.5030   47.4880 C   0  0  0  0  0  0  0  0  0  0  0  0
    6.7200   -3.5400   47.1700 C   0  0  0  0  0  0  0  0  0  0  0  0
    4.6060   -4.6140   46.7040 C   0  0  0  0  0  0  0  0  0  0  0  0
    6.5180   -2.6950   46.0780 C   0  0  0  0  0  0  0  0  0  0  0  0
    4.3760   -3.7690   45.5910 C   0  0  0  0  0  0  0  0  0  0  0  0
    5.3610   -2.7970   45.2870 C   0  0  0  0  0  0  0  0  0  0  0  0
    3.2160   -3.8520   44.7690 C   0  0  0  0  0  0  0  0  0  0  0  0
    5.1830   -1.9350   44.1940 C   0  0  0  0  0  0  0  0  0  0  0  0
    3.0720   -2.9700   43.6800 C   0  0  0  0  0  0  0  0  0  0  0  0
    5.9260   -5.4220   48.6390 C   0  0  0  0  0  0  0  0  0  0  0  0
    5.6210   -6.6000   48.6630 O   0  0  0  0  0  0  0  0  0  0  0  0
    6.4650   -4.8220   49.7160 O   0  0  0  0  0  0  0  0  0  0  0  0
    2.1490   -4.8310   45.0060 C   0  0  0  0  0  0  0  0  0  0  0  0
    1.0620   -4.5450   45.8350 C   0  0  0  0  0  0  0  0  0  0  0  0
    2.1670   -6.0890   44.4130 C   0  0  0  0  0  0  0  0  0  0  0  0
    0.0640   -5.5020   46.0310 C   0  0  0  0  0  0  0  0  0  0  0  0
    1.2120   -7.0340   44.5850 N   0  0  0  0  0  0  0  0  0  0  0  0
    0.1600   -6.7370   45.3890 C   0  0  0  0  0  0  0  0  0  0  0  0
   -0.8540   -7.8030   45.5430 C   0  0  0  0  0  0  0  0  0  0  0  0
   -2.0030   -7.8670   44.7340 C   0  0  0  0  0  0  0  0  0  0  0  0
   -0.6950   -8.8080   46.5160 C   0  0  0  0  0  0  0  0  0  0  0  0
   -2.9540   -8.8810   44.8990 C   0  0  0  0  0  0  0  0  0  0  0  0
   -1.6430   -9.8220   46.6850 C   0  0  0  0  0  0  0  0  0  0  0  0
   -2.7750   -9.8560   45.8750 C   0  0  0  0  0  0  0  0  0  0  0  0
    1.6090   -0.5240   41.2450 C   0  0  0  0  0  0  0  0  0  0  0  0
    0.5170   -1.5150   41.6980 C   0  0  2  0  0  0  0  0  0  0  0  0
    0.7090   -2.9060   41.0830 C   0  0  0  0  0  0  0  0  0  0  0  0
   -0.9030   -0.9710   41.4180 C   0  0  0  0  0  0  0  0  0  0  0  0
   -1.9320   -2.0190   41.0810 C   0  0  0  0  0  0  0  0  0  0  0  0
   -3.1390   -1.8530   40.5200 C   0  0  0  0  0  0  0  0  0  0  0  0
   -3.7430   -0.5980   40.1390 C   0  0  0  0  0  0  0  0  0  0  0  0
   -3.7590    0.4710   40.9440 C   0  0  0  0  0  0  0  0  0  0  0  0
  1 28  1  0
  1  2  1  0
  2  3  1  0
  3 12  2  0
  3 11  1  0
  4  6  2  0
  4  5  1  0
  4 13  1  0
  5  7  2  0
  6  8  1  0
  7  9  1  0
  8 10  2  0
  8  9  1  0
  9 11  2  0
 10 12  1  0
 10 16  1  0
 13 14  2  0
 13 15  1  0
 16 18  1  0
 16 17  2  0
 17 19  1  0
 18 20  2  0
 19 21  2  0
 20 21  1  0
 21 22  1  0
 22 23  2  0
 22 24  1  0
 23 25  1  0
 24 26  2  0
 25 27  2  0
 26 27  1  0
 28 29  1  0
 29 30  1  6
 29 31  1  0
 31 32  1  0
 32 33  2  3
 33 34  1  0
 34 35  2  0
M  END
>  <vina_dock>  (556) 
-10.217

$$$$
O14757_PocketFlow_idx-in-all-generaetd-451
     RDKit          3D

 14 15  0  0  0  0  0  0  0  0999 V2000
    0.6980   -5.3680   45.7380 C   0  0  0  0  0  0  0  0  0  0  0  0
    1.8390   -4.5640   45.7610 C   0  0  0  0  0  0  0  0  0  0  0  0
    3.0340   -5.0210   45.2040 C   0  0  0  0  0  0  0  0  0  0  0  0
    2.9970   -6.3010   44.6560 C   0  0  0  0  0  0  0  0  0  0  0  0
    0.7760   -6.6280   45.1670 C   0  0  0  0  0  0  0  0  0  0  0  0
    1.9030   -7.1070   44.6220 N   0  0  0  0  0  0  0  0  0  0  0  0
   -0.3430   -7.4530   45.1110 N   0  0  0  0  0  0  0  0  0  0  0  0
    4.1820   -4.2180   45.2770 N   0  0  0  0  0  0  0  0  0  0  0  0
    4.5270   -3.0200   44.6280 C   0  0  0  0  0  0  0  0  0  0  0  0
    3.7550   -2.5890   43.5390 C   0  0  0  0  0  0  0  0  0  0  0  0
    5.6410   -2.2540   44.9890 C   0  0  0  0  0  0  0  0  0  0  0  0
    4.0810   -1.4250   42.8380 C   0  0  0  0  0  0  0  0  0  0  0  0
    5.9700   -1.0870   44.2920 C   0  0  0  0  0  0  0  0  0  0  0  0
    5.1910   -0.6730   43.2150 C   0  0  0  0  0  0  0  0  0  0  0  0
  1  5  2  0
  1  2  1  0
  2  3  2  0
  3  4  1  0
  3  8  1  0
  4  6  2  0
  5  6  1  0
  5  7  1  0
  8  9  1  0
  9 10  2  0
  9 11  1  0
 10 12  1  0
 11 13  2  0
 12 14  2  0
 13 14  1  0
M  END
>  <vina_dock>  (557) 
-6.165

$$$$
O14757_PocketFlow_idx-in-all-generaetd-476
     RDKit          3D

 14 15  0  0  0  0  0  0  0  0999 V2000
    4.8260   -1.0200   43.1360 C   0  0  0  0  0  0  0  0  0  0  0  0
    3.4170   -1.3960   42.7400 C   0  0  0  0  0  0  0  0  0  0  0  0
    1.5500   -2.9490   42.7880 C   0  0  0  0  0  0  0  0  0  0  0  0
    2.8560   -2.6130   43.1510 C   0  0  0  0  0  0  0  0  0  0  0  0
    0.7920   -2.0700   42.0160 C   0  0  0  0  0  0  0  0  0  0  0  0
    1.3350   -0.8530   41.6090 C   0  0  0  0  0  0  0  0  0  0  0  0
    2.6400   -0.5160   41.9700 C   0  0  0  0  0  0  0  0  0  0  0  0
    4.8700   -0.7690   44.5700 N   0  0  0  0  0  0  0  0  0  0  0  0
    5.4890   -1.6950   45.4150 C   0  0  0  0  0  0  0  0  0  0  0  0
    6.8810   -1.8440   45.3380 C   0  0  0  0  0  0  0  0  0  0  0  0
    4.7870   -2.5850   46.2390 C   0  0  0  0  0  0  0  0  0  0  0  0
    7.5570   -2.7950   46.1080 C   0  0  0  0  0  0  0  0  0  0  0  0
    5.4580   -3.5390   47.0120 C   0  0  0  0  0  0  0  0  0  0  0  0
    6.8440   -3.6400   46.9510 C   0  0  0  0  0  0  0  0  0  0  0  0
  1  2  1  0
  1  8  1  0
  2  7  1  0
  2  4  2  0
  3  5  2  0
  3  4  1  0
  5  6  1  0
  6  7  2  0
  8  9  1  0
  9 10  2  0
  9 11  1  0
 10 12  1  0
 11 13  2  0
 12 14  2  0
 13 14  1  0
M  END
>  <vina_dock>  (558) 
-6.439

$$$$
O14757_PocketFlow_idx-in-all-generaetd-9
     RDKit          3D

 35 38  0  0  0  0  0  0  0  0999 V2000
    4.9040   -5.6950   47.2470 C   0  0  0  0  0  0  0  0  0  0  0  0
    5.4360   -6.7690   47.9860 C   0  0  0  0  0  0  0  0  0  0  0  0
    6.2580   -6.4740   49.0850 C   0  0  0  0  0  0  0  0  0  0  0  0
    6.5030   -5.1510   49.4170 C   0  0  0  0  0  0  0  0  0  0  0  0
    5.9920   -4.1050   48.7410 N   0  0  0  0  0  0  0  0  0  0  0  0
    5.2110   -4.4000   47.6800 C   0  0  0  0  0  0  0  0  0  0  0  0
    4.0560   -5.8540   46.0040 C   0  0  0  0  0  0  0  0  0  0  0  0
    3.9020   -4.6010   45.1670 C   0  0  0  0  0  0  0  0  0  0  0  0
    1.2130   -3.0250   43.1230 C   0  0  2  0  0  0  0  0  0  0  0  0
    2.5860   -3.1280   43.7330 C   0  0  0  0  0  0  0  0  0  0  0  0
    0.6910   -4.4680   43.2810 C   0  0  0  0  0  0  0  0  0  0  0  0
    2.7070   -4.2920   44.5100 C   0  0  0  0  0  0  0  0  0  0  0  0
    3.6310   -2.2220   43.6310 C   0  0  0  0  0  0  0  0  0  0  0  0
    1.4070   -5.0620   44.5120 C   0  0  1  0  0  0  0  0  0  0  0  0
    4.8370   -2.4940   44.2930 C   0  0  0  0  0  0  0  0  0  0  0  0
    0.6160   -4.8430   45.7980 C   0  0  0  0  0  0  0  0  0  0  0  0
    4.9590   -3.6730   45.0570 C   0  0  0  0  0  0  0  0  0  0  0  0
    1.1240   -2.4760   41.6980 C   0  0  0  0  0  0  0  0  0  0  0  0
    0.8090   -1.0040   41.5800 C   0  0  0  0  0  0  0  0  0  0  0  0
    1.5800   -0.0700   41.4470 O   0  0  0  0  0  0  0  0  0  0  0  0
   -0.5230   -0.7840   41.6030 O   0  0  0  0  0  0  0  0  0  0  0  0
    5.9650   -1.5110   44.1670 C   0  0  0  0  0  0  0  0  0  0  0  0
    7.4650   -1.7780   45.0330 Cl  0  0  0  0  0  0  0  0  0  0  0  0
    5.7830   -0.5350   43.4380 O   0  0  0  0  0  0  0  0  0  0  0  0
    5.1640   -8.2220   47.6650 C   0  0  0  0  0  0  0  0  0  0  0  0
    4.6350   -9.0490   48.8480 C   0  0  0  0  0  0  0  0  0  0  0  0
    3.1280   -9.3850   48.8100 C   0  0  2  0  0  0  0  0  0  0  0  0
    2.7110  -10.3050   49.9630 C   0  0  0  0  0  0  0  0  0  0  0  0
    2.6960   -9.9520   47.4350 C   0  0  0  0  0  0  0  0  0  0  0  0
    1.2870   -9.6390   46.9880 C   0  0  0  0  0  0  0  0  0  0  0  0
    0.2230  -10.4890   47.3220 C   0  0  0  0  0  0  0  0  0  0  0  0
    1.0220   -8.4950   46.2200 C   0  0  0  0  0  0  0  0  0  0  0  0
   -1.0770  -10.1970   46.9040 C   0  0  0  0  0  0  0  0  0  0  0  0
   -0.2780   -8.2050   45.8030 C   0  0  0  0  0  0  0  0  0  0  0  0
   -1.3270   -9.0550   46.1460 C   0  0  0  0  0  0  0  0  0  0  0  0
  1  7  1  0
  1  6  2  0
  1  2  1  0
  2 25  1  0
  2  3  2  0
  3  4  1  0
  4  5  2  0
  5  6  1  0
  7  8  1  0
  8 12  2  0
  8 17  1  0
  9 18  1  6
  9 11  1  0
  9 10  1  0
 10 13  2  0
 10 12  1  0
 11 14  1  0
 12 14  1  0
 13 15  1  0
 14 16  1  1
 15 22  1  0
 15 17  2  0
 18 19  1  0
 19 20  2  0
 19 21  1  0
 22 24  2  0
 22 23  1  0
 25 26  1  0
 26 27  1  0
 27 29  1  0
 27 28  1  1
 29 30  1  0
 30 32  1  0
 30 31  2  0
 31 33  1  0
 32 34  2  0
 33 35  2  0
 34 35  1  0
M  END
>  <vina_dock>  (559) 
-8.575

$$$$
O14757_PocketFlow_idx-in-all-generaetd-247
     RDKit          3D

 35 39  0  0  0  0  0  0  0  0999 V2000
    5.2610   -3.2420   46.5230 N   0  0  0  0  0  0  0  0  0  0  0  0
    5.0450   -3.6950   45.1520 C   0  0  1  0  0  0  0  0  0  0  0  0
    0.4790   -3.2370   42.7360 C   0  0  0  0  0  0  0  0  0  0  0  0
    1.7230   -2.4390   42.7470 C   0  0  0  0  0  0  0  0  0  0  0  0
    0.4430   -4.4030   43.4660 N   0  0  0  0  0  0  0  0  0  0  0  0
   -0.4860   -2.8580   42.0750 O   0  0  0  0  0  0  0  0  0  0  0  0
    2.8120   -2.9080   43.4920 C   0  0  0  0  0  0  0  0  0  0  0  0
    1.8340   -1.2670   41.9910 C   0  0  0  0  0  0  0  0  0  0  0  0
    1.5030   -4.8840   44.2620 C   0  0  0  0  0  0  0  0  0  0  0  0
    2.6990   -4.1350   44.2750 C   0  0  0  0  0  0  0  0  0  0  0  0
    4.0300   -2.2060   43.4630 C   0  0  0  0  0  0  0  0  0  0  0  0
    3.0360   -0.5720   41.9570 C   0  0  0  0  0  0  0  0  0  0  0  0
    1.3810   -6.0690   45.0220 C   0  0  0  0  0  0  0  0  0  0  0  0
    3.7920   -4.5600   45.0450 C   0  0  0  0  0  0  0  0  0  0  0  0
    5.1710   -2.7190   44.0800 N   0  0  0  0  0  0  0  0  0  0  0  0
    4.1340   -1.0540   42.6720 C   0  0  0  0  0  0  0  0  0  0  0  0
    2.5210   -6.5130   45.7260 C   0  0  0  0  0  0  0  0  0  0  0  0
    3.6980   -5.7660   45.7510 C   0  0  0  0  0  0  0  0  0  0  0  0
    0.8090   -0.7550   41.2430 O   0  0  0  0  0  0  0  0  0  0  0  0
    0.0880   -6.8610   45.0720 C   0  0  2  0  0  0  0  0  0  0  0  0
   -1.1410   -6.1500   46.1530 Cl  0  0  0  0  0  0  0  0  0  0  0  0
    0.3010   -8.1850   45.5700 N   0  0  0  0  0  0  0  0  0  0  0  0
   -0.5750   -8.7670   46.4420 C   0  0  0  0  0  0  0  0  0  0  0  0
   -0.0290   -8.6720   48.0820 Cl  0  0  0  0  0  0  0  0  0  0  0  0
   -1.6150   -9.2890   46.0540 O   0  0  0  0  0  0  0  0  0  0  0  0
    6.3060   -3.9890   47.2170 C   0  0  0  0  0  0  0  0  0  0  0  0
    7.6610   -3.3830   46.9210 C   0  0  0  0  0  0  0  0  0  0  0  0
    8.8230   -4.1610   47.0450 C   0  0  0  0  0  0  0  0  0  0  0  0
    7.7750   -2.0510   46.5020 C   0  0  0  0  0  0  0  0  0  0  0  0
   10.0780   -3.6150   46.7650 C   0  0  0  0  0  0  0  0  0  0  0  0
    9.0300   -1.5040   46.2200 C   0  0  0  0  0  0  0  0  0  0  0  0
   10.1860   -2.2830   46.3510 C   0  0  0  0  0  0  0  0  0  0  0  0
   11.4940   -1.6580   46.0390 C   0  0  0  0  0  0  0  0  0  0  0  0
   12.4040   -2.1800   45.4220 O   0  0  0  0  0  0  0  0  0  0  0  0
   11.6030   -0.4040   46.5140 O   0  0  0  0  0  0  0  0  0  0  0  0
  2  1  1  1
  1 26  1  0
  2 15  1  0
  2 14  1  0
  3  6  2  0
  3  4  1  0
  3  5  1  0
  4  8  2  0
  4  7  1  0
  5  9  1  0
  7 11  2  0
  7 10  1  0
  8 19  1  0
  8 12  1  0
  9 10  2  0
  9 13  1  0
 10 14  1  0
 11 16  1  0
 11 15  1  0
 12 16  2  0
 13 20  1  0
 13 17  2  0
 14 18  2  0
 17 18  1  0
 20 22  1  0
 20 21  1  1
 22 23  1  0
 23 25  2  0
 23 24  1  0
 26 27  1  0
 27 29  1  0
 27 28  2  0
 28 30  1  0
 29 31  2  0
 30 32  2  0
 31 32  1  0
 32 33  1  0
 33 34  2  0
 33 35  1  0
M  END
>  <vina_dock>  (560) 
-9.305

$$$$
O14757_PocketFlow_idx-in-all-generaetd-941
     RDKit          3D

 35 39  0  0  0  0  0  0  0  0999 V2000
    7.6220   -3.3990   45.7650 O   0  0  0  0  0  0  0  0  0  0  0  0
    7.1590   -2.1230   45.7480 C   0  0  0  0  0  0  0  0  0  0  0  0
    7.6320   -1.1130   46.2380 O   0  0  0  0  0  0  0  0  0  0  0  0
    5.9130   -2.0930   44.9130 C   0  0  0  0  0  0  0  0  0  0  0  0
    1.5140   -1.7540   42.6090 N   0  0  0  0  0  0  0  0  0  0  0  0
    0.3100   -1.7700   41.9640 C   0  0  2  0  0  0  0  0  0  0  0  0
    1.7820   -3.1660   42.8940 C   0  0  1  0  0  0  0  0  0  0  0  0
   -0.4040   -2.8600   41.9780 N   0  0  0  0  0  0  0  0  0  0  0  0
    2.6750   -3.4720   44.0670 C   0  0  2  0  0  0  0  0  0  0  0  0
    0.3460   -3.6990   42.9530 C   0  0  1  0  0  0  0  0  0  0  0  0
    3.8640   -2.7220   44.1910 C   0  0  0  0  0  0  0  0  0  0  0  0
    2.4900   -4.6000   44.9330 C   0  0  0  0  0  0  0  0  0  0  0  0
    0.3570   -5.1170   42.6850 N   0  0  0  0  0  0  0  0  0  0  0  0
    4.3750   -1.5500   43.4020 C   0  0  0  0  0  0  0  0  0  0  0  0
    4.8440   -3.0530   45.1080 C   0  0  0  0  0  0  0  0  0  0  0  0
    1.2870   -5.5370   44.9800 C   0  0  0  0  0  0  0  0  0  0  0  0
    3.5750   -4.8990   45.8280 C   0  0  0  0  0  0  0  0  0  0  0  0
    0.3840   -5.8260   43.9160 C   0  0  0  0  0  0  0  0  0  0  0  0
    5.7170   -1.2090   43.9700 N   0  0  0  0  0  0  0  0  0  0  0  0
    4.7410   -4.1360   45.9360 C   0  0  0  0  0  0  0  0  0  0  0  0
    1.0110   -6.2170   46.1960 C   0  0  0  0  0  0  0  0  0  0  0  0
   -0.5810   -6.8590   44.0600 C   0  0  0  0  0  0  0  0  0  0  0  0
    0.0230   -7.1970   46.3150 C   0  0  0  0  0  0  0  0  0  0  0  0
   -1.3940   -7.1370   43.0280 F   0  0  0  0  0  0  0  0  0  0  0  0
   -0.7630   -7.5490   45.2430 C   0  0  0  0  0  0  0  0  0  0  0  0
   -0.1560   -7.8060   47.4950 F   0  0  0  0  0  0  0  0  0  0  0  0
    0.0000   -0.6490   41.3000 N   0  0  0  0  0  0  0  0  0  0  0  0
    7.9930   -3.8440   47.0340 C   0  0  0  0  0  0  0  0  0  0  0  0
    9.1060   -4.5640   47.2710 C   0  0  0  0  0  0  0  0  0  0  0  0
   10.0660   -4.8790   46.1600 C   0  0  0  0  0  0  0  0  0  0  0  0
    9.3830   -4.9750   48.6450 C   0  0  0  0  0  0  0  0  0  0  0  0
    9.0340   -6.0510   49.3720 C   0  0  0  0  0  0  0  0  0  0  0  0
    8.1770   -7.1630   49.0360 C   0  0  0  0  0  0  0  0  0  0  0  0
    6.8410   -7.1220   48.9030 C   0  0  0  0  0  0  0  0  0  0  0  0
    5.9110   -5.9680   49.1040 C   0  0  0  0  0  0  0  0  0  0  0  0
  1  2  1  0
  1 28  1  0
  2  4  1  0
  2  3  2  0
  4 19  2  0
  4 15  1  0
  5  6  1  0
  7  5  1  1
  6 27  1  6
  6  8  1  0
  7 10  1  0
  7  9  1  0
 10  8  1  6
  9 11  1  6
  9 12  1  0
 10 13  1  0
 11 14  2  0
 11 15  1  0
 12 16  1  0
 12 17  2  0
 13 18  1  0
 14 19  1  0
 15 20  2  0
 16 18  2  0
 16 21  1  0
 17 20  1  0
 18 22  1  0
 21 23  2  0
 22 24  1  0
 22 25  2  0
 23 25  1  0
 23 26  1  0
 28 29  2  3
 29 30  1  0
 29 31  1  0
 31 32  2  3
 32 33  1  0
 33 34  2  3
 34 35  1  0
M  END
>  <vina_dock>  (561) 
-9.038

$$$$
O14757_PocketFlow_idx-in-all-generaetd-352
     RDKit          3D

 35 38  0  0  0  0  0  0  0  0999 V2000
    4.5190   -3.7760   46.2000 C   0  0  0  0  0  0  0  0  0  0  0  0
    4.0060   -4.5710   45.2470 C   0  0  0  0  0  0  0  0  0  0  0  0
    5.8440   -3.1620   46.0670 C   0  0  0  0  0  0  0  0  0  0  0  0
    6.0170   -1.8970   45.4760 C   0  0  0  0  0  0  0  0  0  0  0  0
    7.3150   -1.3690   45.3830 C   0  0  0  0  0  0  0  0  0  0  0  0
    8.4160   -2.0780   45.8690 C   0  0  0  0  0  0  0  0  0  0  0  0
    6.9610   -3.8630   46.5550 C   0  0  0  0  0  0  0  0  0  0  0  0
    8.2610   -3.3380   46.4630 C   0  0  0  0  0  0  0  0  0  0  0  0
    4.8690   -1.1040   44.8850 C   0  0  0  0  0  0  0  0  0  0  0  0
    5.2350   -0.4830   43.5620 C   0  0  0  0  0  0  0  0  0  0  0  0
    4.4840   -0.4410   42.4490 C   0  0  0  0  0  0  0  0  0  0  0  0
    3.1490   -1.0280   42.3330 C   0  0  0  0  0  0  0  0  0  0  0  0
    1.6390   -2.8960   42.6450 C   0  0  0  0  0  0  0  0  0  0  0  0
    2.9080   -2.3300   42.7840 C   0  0  0  0  0  0  0  0  0  0  0  0
    0.6080   -2.1630   42.0590 C   0  0  0  0  0  0  0  0  0  0  0  0
    0.8440   -0.8630   41.6110 C   0  0  0  0  0  0  0  0  0  0  0  0
    2.1120   -0.2970   41.7480 C   0  0  0  0  0  0  0  0  0  0  0  0
    9.4230   -4.0910   46.9630 C   0  0  0  0  0  0  0  0  0  0  0  0
    9.9930   -5.1330   46.2120 C   0  0  0  0  0  0  0  0  0  0  0  0
    9.9930   -3.7960   48.2130 C   0  0  0  0  0  0  0  0  0  0  0  0
   11.0880   -5.8560   46.6930 C   0  0  0  0  0  0  0  0  0  0  0  0
   11.0870   -4.5180   48.6970 C   0  0  0  0  0  0  0  0  0  0  0  0
   11.6340   -5.5480   47.9370 C   0  0  0  0  0  0  0  0  0  0  0  0
    2.6690   -5.1760   45.3200 C   0  0  0  0  0  0  0  0  0  0  0  0
    2.4210   -6.4870   44.8950 C   0  0  0  0  0  0  0  0  0  0  0  0
    1.6220   -4.4470   45.8930 C   0  0  0  0  0  0  0  0  0  0  0  0
    1.1460   -7.0480   45.0190 C   0  0  0  0  0  0  0  0  0  0  0  0
    0.3450   -5.0080   46.0140 C   0  0  0  0  0  0  0  0  0  0  0  0
    0.0890   -6.3100   45.5650 C   0  0  0  0  0  0  0  0  0  0  0  0
   -1.2820   -6.9220   45.7410 C   0  0  0  0  0  0  0  0  0  0  0  0
   -1.3710   -8.1460   45.0000 O   0  0  0  0  0  0  0  0  0  0  0  0
   -2.4790   -8.8960   45.3520 C   0  0  0  0  0  0  0  0  0  0  0  0
   -3.5910   -8.8660   44.6000 C   0  0  0  0  0  0  0  0  0  0  0  0
   -2.4160   -9.6190   46.6660 C   0  0  0  0  0  0  0  0  0  0  0  0
   -3.7510   -8.1180   43.3140 C   0  0  0  0  0  0  0  0  0  0  0  0
  1  2  2  3
  1  3  1  0
  2 24  1  0
  3  4  1  0
  3  7  2  0
  4  9  1  0
  4  5  2  0
  5  6  1  0
  6  8  2  0
  7  8  1  0
  8 18  1  0
  9 10  1  0
 10 11  2  3
 11 12  1  0
 12 17  1  0
 12 14  2  0
 13 15  2  0
 13 14  1  0
 15 16  1  0
 16 17  2  0
 18 19  2  0
 18 20  1  0
 19 21  1  0
 20 22  2  0
 21 23  2  0
 22 23  1  0
 24 25  2  0
 24 26  1  0
 25 27  1  0
 26 28  2  0
 27 29  2  0
 28 29  1  0
 29 30  1  0
 30 31  1  0
 31 32  1  0
 32 33  2  3
 32 34  1  0
 33 35  1  0
M  END
>  <vina_dock>  (562) 
-9.93

$$$$
O14757_PocketFlow_idx-in-all-generaetd-359
     RDKit          3D

 15 17  0  0  0  0  0  0  0  0999 V2000
    2.3090   -3.7180   44.1260 C   0  0  0  0  0  0  0  0  0  0  0  0
    3.4420   -2.8580   44.0190 C   0  0  0  0  0  0  0  0  0  0  0  0
    3.4510   -1.8680   43.0100 C   0  0  0  0  0  0  0  0  0  0  0  0
    2.3420   -1.7790   42.1710 C   0  0  0  0  0  0  0  0  0  0  0  0
    1.2640   -3.5070   43.2240 C   0  0  0  0  0  0  0  0  0  0  0  0
    1.2520   -2.5670   42.2550 N   0  0  0  0  0  0  0  0  0  0  0  0
    4.5460   -0.9990   42.8600 C   0  0  0  0  0  0  0  0  0  0  0  0
    5.6470   -1.0890   43.7080 C   0  0  0  0  0  0  0  0  0  0  0  0
    5.6610   -2.0480   44.7110 C   0  0  0  0  0  0  0  0  0  0  0  0
    4.5770   -2.9190   44.8650 C   0  0  0  0  0  0  0  0  0  0  0  0
    2.2270   -4.7990   45.1970 C   0  0  1  0  0  0  0  0  0  0  0  0
   -0.0220   -5.5900   45.1880 N   0  0  0  0  0  0  0  0  0  0  0  0
    0.7890   -6.6840   44.6420 C   0  0  0  0  0  0  0  0  0  0  0  0
    0.9010   -4.7430   45.9580 C   0  0  0  0  0  0  0  0  0  0  0  0
    2.2500   -6.2580   44.7340 C   0  0  0  0  0  0  0  0  0  0  0  0
  1  5  1  0
  1  2  2  0
 11  1  1  6
  2  3  1  0
  2 10  1  0
  3  4  2  0
  3  7  1  0
  4  6  1  0
  5  6  2  0
  7  8  2  0
  8  9  1  0
  9 10  2  0
 11 15  1  0
 11 14  1  0
 12 13  1  0
 12 14  1  0
 13 15  1  0
M  END
>  <vina_dock>  (563) 
-7.733

$$$$
O14757_PocketFlow_idx-in-all-generaetd-594
     RDKit          3D

 11 11  0  0  0  0  0  0  0  0999 V2000
    3.3930   -3.0340   43.9130 C   0  0  0  0  0  0  0  0  0  0  0  0
    2.0800   -3.0510   43.3940 C   0  0  0  0  0  0  0  0  0  0  0  0
    3.6770   -3.7660   45.0820 C   0  0  0  0  0  0  0  0  0  0  0  0
    2.6830   -4.4890   45.7390 C   0  0  0  0  0  0  0  0  0  0  0  0
    1.3870   -4.4940   45.2390 C   0  0  0  0  0  0  0  0  0  0  0  0
    1.0890   -3.7810   44.0780 C   0  0  0  0  0  0  0  0  0  0  0  0
    4.5300   -2.2830   43.2540 C   0  0  0  0  0  0  0  0  0  0  0  0
    5.0910   -1.1900   44.1660 C   0  0  0  0  0  0  0  0  0  0  0  0
    6.4910   -1.5320   44.6470 C   0  0  0  0  0  0  0  0  0  0  0  0
    1.6800   -2.3050   42.1510 C   0  0  0  0  0  0  0  0  0  0  0  0
    0.0630   -3.0910   41.4080 Br  0  0  0  0  0  0  0  0  0  0  0  0
  1  7  1  0
  1  2  2  0
  1  3  1  0
  2 10  1  0
  2  6  1  0
  3  4  2  0
  4  5  1  0
  5  6  2  0
  7  8  1  0
  8  9  1  0
 10 11  1  0
M  END
>  <vina_dock>  (564) 
-5.815

$$$$
O14757_PocketFlow_idx-in-all-generaetd-233
     RDKit          3D

 33 36  0  0  0  0  0  0  0  0999 V2000
    2.2790   -3.8340   44.1920 C   0  0  0  0  0  0  0  0  0  0  0  0
    2.4850   -4.7320   45.2550 C   0  0  0  0  0  0  0  0  0  0  0  0
    3.6800   -4.6480   45.9850 C   0  0  0  0  0  0  0  0  0  0  0  0
    4.6840   -3.7030   45.6890 C   0  0  0  0  0  0  0  0  0  0  0  0
    4.4880   -2.8110   44.6130 C   0  0  0  0  0  0  0  0  0  0  0  0
    3.2990   -2.9150   43.8670 C   0  0  0  0  0  0  0  0  0  0  0  0
    1.0070   -3.8390   43.3740 C   0  0  0  0  0  0  0  0  0  0  0  0
    0.5860   -2.5130   43.0970 O   0  0  0  0  0  0  0  0  0  0  0  0
    0.2880   -2.1540   41.5670 P   0  0  0  0  0  0  0  0  0  0  0  0
    1.4110   -2.1830   40.5940 O   0  0  0  0  0  0  0  0  0  0  0  0
   -0.8730   -3.1760   41.1620 O   0  0  0  0  0  0  0  0  0  0  0  0
   -0.5410   -0.7900   41.6300 O   0  0  0  0  0  0  0  0  0  0  0  0
    1.5020   -5.7630   45.6150 C   0  0  0  0  0  0  0  0  0  0  0  0
    0.2480   -5.4130   46.1440 C   0  0  0  0  0  0  0  0  0  0  0  0
    1.7920   -7.1200   45.4160 C   0  0  0  0  0  0  0  0  0  0  0  0
   -0.6880   -6.3960   46.4730 C   0  0  0  0  0  0  0  0  0  0  0  0
    0.8550   -8.1070   45.7350 C   0  0  0  0  0  0  0  0  0  0  0  0
   -0.3800   -7.7490   46.2850 C   0  0  0  0  0  0  0  0  0  0  0  0
   -1.4080   -8.7680   46.6120 C   0  0  0  0  0  0  0  0  0  0  0  0
   -2.1200   -9.1870   45.7010 O   0  0  0  0  0  0  0  0  0  0  0  0
   -1.6470   -9.2960   47.8920 N   0  0  0  0  0  0  0  0  0  0  0  0
   -2.8680   -9.3350   48.5260 C   0  0  0  0  0  0  0  0  0  0  0  0
   -0.7510   -9.8450   48.7860 C   0  0  0  0  0  0  0  0  0  0  0  0
   -2.8080   -9.9180   49.7030 N   0  0  0  0  0  0  0  0  0  0  0  0
   -1.4910  -10.2260   49.8790 C   0  0  0  0  0  0  0  0  0  0  0  0
    5.5660   -1.8010   44.2430 C   0  0  0  0  0  0  0  0  0  0  0  0
    5.1410   -0.6420   43.3480 C   0  0  0  0  0  0  0  0  0  0  0  0
    5.8960   -3.6890   46.5170 C   0  0  0  0  0  0  0  0  0  0  0  0
    7.1390   -3.3360   45.9720 C   0  0  0  0  0  0  0  0  0  0  0  0
    5.8360   -4.0310   47.8750 C   0  0  0  0  0  0  0  0  0  0  0  0
    8.2880   -3.3230   46.7640 C   0  0  0  0  0  0  0  0  0  0  0  0
    6.9830   -4.0120   48.6680 C   0  0  0  0  0  0  0  0  0  0  0  0
    8.2090   -3.6560   48.1130 C   0  0  0  0  0  0  0  0  0  0  0  0
  1  7  1  0
  1  6  2  0
  1  2  1  0
  2 13  1  0
  2  3  2  0
  3  4  1  0
  4  5  2  0
  4 28  1  0
  5  6  1  0
  5 26  1  0
  7  8  1  0
  8  9  1  0
  9 10  2  0
  9 11  1  0
  9 12  1  0
 13 15  1  0
 13 14  2  0
 14 16  1  0
 15 17  2  0
 16 18  2  0
 17 18  1  0
 18 19  1  0
 19 20  2  0
 19 21  1  0
 21 22  1  0
 21 23  1  0
 22 24  2  0
 23 25  2  0
 24 25  1  0
 26 27  1  0
 28 29  2  0
 28 30  1  0
 29 31  1  0
 30 32  2  0
 31 33  2  0
 32 33  1  0
M  END
>  <vina_dock>  (565) 
-9.446

$$$$
O14757_PocketFlow_idx-in-all-generaetd-265
     RDKit          3D

 20 21  0  0  0  0  0  0  0  0999 V2000
    1.6420   -4.9150   45.4420 C   0  0  0  0  0  0  0  0  0  0  0  0
    1.7750   -3.9540   44.2870 C   0  0  0  0  0  0  0  0  0  0  0  0
    3.1220   -2.3930   42.9780 C   0  0  0  0  0  0  0  0  0  0  0  0
    2.0230   -2.1620   42.1420 C   0  0  0  0  0  0  0  0  0  0  0  0
    2.9900   -3.2950   44.0440 C   0  0  0  0  0  0  0  0  0  0  0  0
    0.8130   -2.8150   42.3730 C   0  0  0  0  0  0  0  0  0  0  0  0
    0.6890   -3.7060   43.4390 C   0  0  0  0  0  0  0  0  0  0  0  0
    4.4430   -1.7000   42.7190 C   0  0  0  0  0  0  0  0  0  0  0  0
    4.5890   -0.3710   43.4570 C   0  0  1  0  0  0  0  0  0  0  0  0
    5.8950   -0.0950   43.6920 F   0  0  0  0  0  0  0  0  0  0  0  0
    4.0870    0.7150   42.7020 O   0  0  0  0  0  0  0  0  0  0  0  0
    2.0460   -6.3570   45.1070 C   0  0  0  0  0  0  0  0  0  0  0  0
    0.9140   -7.3900   45.1780 C   0  0  0  0  0  0  0  0  0  0  0  0
   -0.3380   -6.9730   44.4030 C   0  0  0  0  0  0  0  0  0  0  0  0
   -1.5130   -7.8630   44.7240 C   0  0  0  0  0  0  0  0  0  0  0  0
   -1.5070   -8.6510   45.8840 C   0  0  0  0  0  0  0  0  0  0  0  0
   -2.6140   -7.9320   43.8600 C   0  0  0  0  0  0  0  0  0  0  0  0
   -2.5870   -9.4830   46.1780 C   0  0  0  0  0  0  0  0  0  0  0  0
   -3.6930   -8.7650   44.1570 C   0  0  0  0  0  0  0  0  0  0  0  0
   -3.6800   -9.5400   45.3150 C   0  0  0  0  0  0  0  0  0  0  0  0
  1  2  1  0
  1 12  1  0
  2  7  1  0
  2  5  2  0
  3  4  2  0
  3  8  1  0
  3  5  1  0
  4  6  1  0
  6  7  2  0
  8  9  1  0
  9 11  1  6
  9 10  1  0
 12 13  1  0
 13 14  1  0
 14 15  1  0
 15 17  1  0
 15 16  2  0
 16 18  1  0
 17 19  2  0
 18 20  2  0
 19 20  1  0
M  END
>  <vina_dock>  (566) 
-8.018

$$$$
O14757_PocketFlow_idx-in-all-generaetd-36
     RDKit          3D

 11 11  0  0  0  0  0  0  0  0999 V2000
    2.0780   -4.7950   44.9190 C   0  0  0  0  0  0  0  0  0  0  0  0
    0.9250   -4.5870   45.9000 C   0  0  0  0  0  0  0  0  0  0  0  0
    0.0530   -5.8090   45.9850 C   0  0  0  0  0  0  0  0  0  0  0  0
   -1.0740   -5.8290   46.6160 N   0  0  0  0  0  0  0  0  0  0  0  0
    2.2540   -3.6760   43.8820 C   0  0  0  0  0  0  0  0  0  0  0  0
    3.5550   -2.9230   44.0060 C   0  0  0  0  0  0  0  0  0  0  0  0
    4.5040   -3.2910   44.9690 C   0  0  0  0  0  0  0  0  0  0  0  0
    3.8350   -1.8440   43.1560 C   0  0  0  0  0  0  0  0  0  0  0  0
    5.7050   -2.5890   45.0860 C   0  0  0  0  0  0  0  0  0  0  0  0
    5.0360   -1.1430   43.2750 C   0  0  0  0  0  0  0  0  0  0  0  0
    5.9690   -1.5140   44.2400 C   0  0  0  0  0  0  0  0  0  0  0  0
  1  5  1  0
  1  2  1  0
  2  3  1  0
  3  4  2  3
  5  6  1  0
  6  8  2  0
  6  7  1  0
  7  9  2  0
  8 10  1  0
  9 11  1  0
 10 11  2  0
M  END
>  <vina_dock>  (567) 
-5.688

$$$$
O14757_PocketFlow_idx-in-all-generaetd-147
     RDKit          3D

 29 33  0  0  0  0  0  0  0  0999 V2000
    1.3880   -1.3880   41.9350 C   0  0  0  0  0  0  0  0  0  0  0  0
    0.4620   -2.4520   41.3300 C   0  0  1  0  0  0  0  0  0  0  0  0
    2.4020   -2.0070   42.8600 C   0  0  0  0  0  0  0  0  0  0  0  0
    2.1030   -3.1860   43.5530 C   0  0  0  0  0  0  0  0  0  0  0  0
    3.0270   -3.7370   44.4490 C   0  0  0  0  0  0  0  0  0  0  0  0
    4.2680   -3.1190   44.6690 C   0  0  0  0  0  0  0  0  0  0  0  0
    4.5780   -1.9270   43.9820 C   0  0  0  0  0  0  0  0  0  0  0  0
    3.6320   -1.3900   43.0930 C   0  0  0  0  0  0  0  0  0  0  0  0
    1.1400   -3.2270   40.2000 C   0  0  0  0  0  0  0  0  0  0  0  0
    5.2060   -3.6630   45.5620 C   0  0  0  0  0  0  0  0  0  0  0  0
    6.4470   -3.0460   45.7840 C   0  0  0  0  0  0  0  0  0  0  0  0
    7.3830   -3.5920   46.6760 C   0  0  0  0  0  0  0  0  0  0  0  0
    8.6200   -2.9690   46.8730 C   0  0  0  0  0  0  0  0  0  0  0  0
    8.9210   -1.7740   46.2170 C   0  0  0  0  0  0  0  0  0  0  0  0
    7.9960   -1.2230   45.3290 C   0  0  0  0  0  0  0  0  0  0  0  0
    6.7600   -1.8490   45.1000 C   0  0  0  0  0  0  0  0  0  0  0  0
    5.8210   -1.3070   44.2090 C   0  0  0  0  0  0  0  0  0  0  0  0
    0.7920   -3.8590   43.3500 C   0  0  0  0  0  0  0  0  0  0  0  0
   -0.0170   -3.3590   42.3590 N   0  0  0  0  0  0  0  0  0  0  0  0
    0.4420   -4.8120   44.0360 O   0  0  0  0  0  0  0  0  0  0  0  0
    3.9130   -0.2470   42.4420 F   0  0  0  0  0  0  0  0  0  0  0  0
    9.5730   -3.5660   47.8360 C   0  0  0  0  0  0  0  0  0  0  0  0
   10.5040   -4.4970   47.3780 N   0  0  0  0  0  0  0  0  0  0  0  0
    9.4980   -3.2070   49.0090 O   0  0  0  0  0  0  0  0  0  0  0  0
   10.4060   -5.1980   46.0930 C   0  0  0  0  0  0  0  0  0  0  0  0
   11.5050   -4.9760   48.3270 C   0  0  0  0  0  0  0  0  0  0  0  0
   10.9080   -6.6350   46.1900 C   0  0  0  0  0  0  0  0  0  0  0  0
   12.7230   -5.5530   47.6180 C   0  0  0  0  0  0  0  0  0  0  0  0
   12.3520   -6.7070   46.6870 C   0  0  0  0  0  0  0  0  0  0  0  0
  1  2  1  0
  1  3  1  0
  2  9  1  6
  2 19  1  0
  3  8  2  0
  3  4  1  0
  4 18  1  0
  4  5  2  0
  5  6  1  0
  6  7  2  0
  6 10  1  0
  7  8  1  0
  7 17  1  0
  8 21  1  0
 10 11  2  0
 11 16  1  0
 11 12  1  0
 12 13  2  0
 13 14  1  0
 13 22  1  0
 14 15  2  0
 15 16  1  0
 16 17  2  0
 18 19  1  0
 18 20  2  0
 22 23  1  0
 22 24  2  0
 23 25  1  0
 23 26  1  0
 25 27  1  0
 26 28  1  0
 27 29  1  0
 28 29  1  0
M  END
>  <vina_dock>  (568) 
-10.853

$$$$
O14757_PocketFlow_idx-in-all-generaetd-965
     RDKit          3D

 12 12  0  0  0  0  0  0  0  0999 V2000
    3.1710   -2.4620   43.4090 C   0  0  0  0  0  0  0  0  0  0  0  0
    3.7320   -1.4010   42.6840 C   0  0  0  0  0  0  0  0  0  0  0  0
    3.9290   -3.0310   44.4440 C   0  0  0  0  0  0  0  0  0  0  0  0
    5.1900   -2.5210   44.7630 C   0  0  0  0  0  0  0  0  0  0  0  0
    5.7250   -1.4520   44.0520 C   0  0  0  0  0  0  0  0  0  0  0  0
    4.9960   -0.8960   43.0060 C   0  0  0  0  0  0  0  0  0  0  0  0
    6.1790   -3.2920   46.1790 Br  0  0  0  0  0  0  0  0  0  0  0  0
    1.8910   -3.0000   43.0690 N   0  0  0  0  0  0  0  0  0  0  0  0
    1.1100   -2.6240   41.9750 C   0  0  0  0  0  0  0  0  0  0  0  0
    1.3480   -4.0400   43.9410 C   0  0  0  0  0  0  0  0  0  0  0  0
    1.4150   -1.3210   41.2720 C   0  0  0  0  0  0  0  0  0  0  0  0
    0.1360   -3.2830   41.5970 O   0  0  0  0  0  0  0  0  0  0  0  0
  1  2  2  0
  1  8  1  0
  1  3  1  0
  2  6  1  0
  3  4  2  0
  4  5  1  0
  4  7  1  0
  5  6  2  0
  8  9  1  0
  8 10  1  0
  9 11  1  0
  9 12  2  0
M  END
>  <vina_dock>  (569) 
-6.17

$$$$
O14757_PocketFlow_idx-in-all-generaetd-931
     RDKit          3D

 11 10  0  0  0  0  0  0  0  0999 V2000
    1.1760   -3.6700   43.8250 C   0  0  0  0  0  0  0  0  0  0  0  0
    2.0960   -4.3890   44.4900 C   0  0  0  0  0  0  0  0  0  0  0  0
    1.3880   -2.8000   42.6160 C   0  0  0  0  0  0  0  0  0  0  0  0
    0.3380   -3.0790   41.5340 C   0  0  0  0  0  0  0  0  0  0  0  0
   -0.9740   -2.5690   41.9290 N   0  0  0  0  0  0  0  0  0  0  0  0
    3.5770   -4.4690   44.2180 C   0  0  0  0  0  0  0  0  0  0  0  0
    4.3900   -3.6600   45.2360 C   0  0  2  0  0  0  0  0  0  0  0  0
    3.7360   -3.6950   46.4350 F   0  0  0  0  0  0  0  0  0  0  0  0
    4.5320   -2.2250   44.8110 C   0  0  0  0  0  0  0  0  0  0  0  0
    4.8220   -1.8230   43.5630 C   0  0  0  0  0  0  0  0  0  0  0  0
    4.9770   -0.3910   43.1630 C   0  0  0  0  0  0  0  0  0  0  0  0
  1  3  1  0
  1  2  2  3
  2  6  1  0
  3  4  1  0
  4  5  1  0
  6  7  1  0
  7  9  1  0
  7  8  1  1
  9 10  2  3
 10 11  1  0
M  END
>  <vina_dock>  (570) 
-5.101

$$$$
O14757_PocketFlow_idx-in-all-generaetd-25
     RDKit          3D

 35 38  0  0  0  0  0  0  0  0999 V2000
    0.3860   -5.7840   44.5450 C   0  0  0  0  0  0  0  0  0  0  0  0
   -0.0110   -6.6730   43.8100 O   0  0  0  0  0  0  0  0  0  0  0  0
    1.1800   -4.6190   44.0700 C   0  0  0  0  0  0  0  0  0  0  0  0
    3.2420   -3.3090   44.2700 C   0  0  0  0  0  0  0  0  0  0  0  0
    2.4300   -4.3860   44.6650 C   0  0  0  0  0  0  0  0  0  0  0  0
    2.7600   -2.4610   43.2590 C   0  0  0  0  0  0  0  0  0  0  0  0
    1.5100   -2.6790   42.6610 C   0  0  0  0  0  0  0  0  0  0  0  0
    0.7190   -3.7580   43.0680 C   0  0  0  0  0  0  0  0  0  0  0  0
    4.5550   -3.0780   44.8950 C   0  0  0  0  0  0  0  0  0  0  0  0
   10.9240   -2.0750   48.0800 C   0  0  0  0  0  0  0  0  0  0  0  0
    9.8750   -2.7580   48.7050 C   0  0  0  0  0  0  0  0  0  0  0  0
   10.7250   -1.5750   46.7900 C   0  0  0  0  0  0  0  0  0  0  0  0
    8.6520   -2.9540   48.0430 C   0  0  0  0  0  0  0  0  0  0  0  0
    9.5000   -1.7540   46.1340 C   0  0  0  0  0  0  0  0  0  0  0  0
    7.5330   -3.6930   48.7380 C   0  0  0  0  0  0  0  0  0  0  0  0
    8.4340   -2.4300   46.7490 C   0  0  0  0  0  0  0  0  0  0  0  0
    6.6820   -4.4880   47.7460 C   0  0  2  0  0  0  0  0  0  0  0  0
    7.1160   -2.6300   46.0950 C   0  0  0  0  0  0  0  0  0  0  0  0
    6.2400   -3.6210   46.5870 C   0  0  0  0  0  0  0  0  0  0  0  0
    5.6310   -5.0220   48.4390 F   0  0  0  0  0  0  0  0  0  0  0  0
    6.6710   -1.8580   45.0120 C   0  0  0  0  0  0  0  0  0  0  0  0
    4.9880   -3.8450   45.9850 C   0  0  0  0  0  0  0  0  0  0  0  0
    5.4170   -2.0800   44.4240 C   0  0  0  0  0  0  0  0  0  0  0  0
   12.2280   -1.8460   48.8000 C   0  0  0  0  0  0  0  0  0  0  0  0
   12.1070   -1.0160   49.8740 F   0  0  0  0  0  0  0  0  0  0  0  0
   13.1830   -1.2840   48.0050 F   0  0  0  0  0  0  0  0  0  0  0  0
    1.0690   -1.7400   41.6000 C   0  0  0  0  0  0  0  0  0  0  0  0
    1.5860   -1.6080   40.5070 O   0  0  0  0  0  0  0  0  0  0  0  0
   -0.0010   -1.0110   41.9600 O   0  0  0  0  0  0  0  0  0  0  0  0
    0.1620   -5.6920   45.8780 O   0  0  0  0  0  0  0  0  0  0  0  0
   -0.9410   -6.4680   46.3770 C   0  0  0  0  0  0  0  0  0  0  0  0
   -0.4580   -7.6420   47.2490 C   0  0  0  0  0  0  0  0  0  0  0  0
   -0.0690   -8.8520   46.4930 N   0  0  0  0  0  0  0  0  0  0  0  0
    1.3830   -9.0270   46.4460 C   0  0  0  0  0  0  0  0  0  0  0  0
   -0.6940  -10.0360   47.0890 C   0  0  0  0  0  0  0  0  0  0  0  0
  1  2  2  0
  1  3  1  0
  1 30  1  0
  3  8  2  0
  3  5  1  0
  4  6  1  0
  4  5  2  0
  4  9  1  0
  6  7  2  0
  7 27  1  0
  7  8  1  0
  9 23  2  0
  9 22  1  0
 10 12  2  0
 10 11  1  0
 10 24  1  0
 11 13  2  0
 12 14  1  0
 13 16  1  0
 13 15  1  0
 14 16  2  0
 15 17  1  0
 16 18  1  0
 17 19  1  0
 17 20  1  1
 18 21  2  0
 18 19  1  0
 19 22  2  0
 21 23  1  0
 24 26  1  0
 24 25  1  0
 27 28  2  0
 27 29  1  0
 30 31  1  0
 31 32  1  0
 32 33  1  0
 33 34  1  0
 33 35  1  0
M  END
>  <vina_dock>  (571) 
-9.075

$$$$
O14757_PocketFlow_idx-in-all-generaetd-5
     RDKit          3D

 18 18  0  0  0  0  0  0  0  0999 V2000
    2.6530   -1.8700   42.4580 C   0  0  0  0  0  0  0  0  0  0  0  0
    2.1050   -2.9590   43.1490 C   0  0  0  0  0  0  0  0  0  0  0  0
    0.7760   -3.3740   42.9580 C   0  0  0  0  0  0  0  0  0  0  0  0
    1.8670   -1.1870   41.5350 C   0  0  0  0  0  0  0  0  0  0  0  0
    0.0240   -2.6970   41.9940 C   0  0  0  0  0  0  0  0  0  0  0  0
    0.5580   -1.6060   41.3000 C   0  0  0  0  0  0  0  0  0  0  0  0
    3.9540   -1.5930   42.7820 O   0  0  0  0  0  0  0  0  0  0  0  0
    4.5360   -2.2930   43.8690 C   0  0  0  0  0  0  0  0  0  0  0  0
    5.5140   -1.4880   44.7090 C   0  0  0  0  0  0  0  0  0  0  0  0
    6.7290   -1.4880   44.5850 O   0  0  0  0  0  0  0  0  0  0  0  0
    4.9190   -0.7030   45.6300 O   0  0  0  0  0  0  0  0  0  0  0  0
    0.3390   -4.5140   43.6320 N   0  0  0  0  0  0  0  0  0  0  0  0
    0.9470   -4.9350   44.8670 C   0  0  2  0  0  0  0  0  0  0  0  0
    1.5660   -6.1230   44.6350 F   0  0  0  0  0  0  0  0  0  0  0  0
    0.0660   -5.1940   45.9860 N   0  0  0  0  0  0  0  0  0  0  0  0
   -0.1480   -6.6170   46.2300 C   0  0  0  0  0  0  0  0  0  0  0  0
   -1.5360   -7.1080   45.8090 C   0  0  0  0  0  0  0  0  0  0  0  0
   -1.5060   -7.7150   44.4130 C   0  0  0  0  0  0  0  0  0  0  0  0
  1  4  2  0
  1  7  1  0
  1  2  1  0
  2  3  2  0
  3  5  1  0
  3 12  1  0
  4  6  1  0
  5  6  2  0
  7  8  1  0
  8  9  1  0
  9 10  2  0
  9 11  1  0
 12 13  1  0
 13 14  1  6
 13 15  1  0
 15 16  1  0
 16 17  1  0
 17 18  1  0
M  END
>  <vina_dock>  (572) 
-6.349

$$$$
O14757_PocketFlow_idx-in-all-generaetd-273
     RDKit          3D

 18 20  0  0  0  0  0  0  0  0999 V2000
    2.7410   -4.5260   46.1310 C   0  0  0  0  0  0  0  0  0  0  0  0
    3.8070   -3.6060   46.0600 C   0  0  0  0  0  0  0  0  0  0  0  0
    4.0300   -2.8980   44.8610 C   0  0  0  0  0  0  0  0  0  0  0  0
    3.2220   -3.1970   43.7430 C   0  0  0  0  0  0  0  0  0  0  0  0
    1.9360   -4.7730   45.0210 C   0  0  0  0  0  0  0  0  0  0  0  0
    2.1800   -4.1240   43.8200 C   0  0  0  0  0  0  0  0  0  0  0  0
    5.0490   -1.8130   44.7230 C   0  0  0  0  0  0  0  0  0  0  0  0
    6.2890   -1.9410   45.2410 C   0  0  0  0  0  0  0  0  0  0  0  0
    6.8350   -3.0150   46.0870 C   0  0  0  0  0  0  0  0  0  0  0  0
    8.2170   -3.2680   46.0030 C   0  0  0  0  0  0  0  0  0  0  0  0
    8.8370   -4.1680   46.8690 C   0  0  0  0  0  0  0  0  0  0  0  0
    8.0890   -4.8120   47.8470 C   0  0  0  0  0  0  0  0  0  0  0  0
    6.7190   -4.5650   47.9480 C   0  0  0  0  0  0  0  0  0  0  0  0
    6.0740   -3.6740   47.0690 C   0  0  0  0  0  0  0  0  0  0  0  0
    4.6700   -3.5110   47.1830 N   0  0  0  0  0  0  0  0  0  0  0  0
    0.5240   -6.0240   45.1430 Br  0  0  0  0  0  0  0  0  0  0  0  0
    4.7840   -0.5590   44.0030 C   0  0  0  0  0  0  0  0  0  0  0  0
    5.0630   -0.3230   42.7140 C   0  0  0  0  0  0  0  0  0  0  0  0
  1  5  2  0
  1  2  1  0
  2  3  2  0
  2 15  1  0
  3  4  1  0
  3  7  1  0
  4  6  2  0
  5  6  1  0
  5 16  1  0
  7 17  1  0
  7  8  2  0
  8  9  1  0
  9 10  1  0
  9 14  2  0
 10 11  2  0
 11 12  1  0
 12 13  2  0
 13 14  1  0
 14 15  1  0
 17 18  2  0
M  END
>  <vina_dock>  (573) 
-7.643

$$$$
O14757_PocketFlow_idx-in-all-generaetd-179
     RDKit          3D

 35 38  0  0  0  0  0  0  0  0999 V2000
    1.7260   -9.4830   47.5880 C   0  0  0  0  0  0  0  0  0  0  0  0
    0.6310   -8.7130   46.8350 C   0  0  2  0  0  0  0  0  0  0  0  0
    3.4160   -2.8250   44.3260 C   0  0  0  0  0  0  0  0  0  0  0  0
    3.3700   -1.8810   43.2790 C   0  0  0  0  0  0  0  0  0  0  0  0
    2.4150   -3.8460   44.4200 C   0  0  0  0  0  0  0  0  0  0  0  0
    4.5600   -0.6340   43.0930 Cl  0  0  0  0  0  0  0  0  0  0  0  0
    2.3530   -1.9240   42.3340 C   0  0  0  0  0  0  0  0  0  0  0  0
    2.4910   -4.8290   45.5850 C   0  0  1  0  0  0  0  0  0  0  0  0
    1.4180   -3.9070   43.4160 C   0  0  0  0  0  0  0  0  0  0  0  0
    1.3900   -2.9230   42.4060 C   0  0  0  0  0  0  0  0  0  0  0  0
    1.1860   -5.4690   46.0910 C   0  0  0  0  0  0  0  0  0  0  0  0
    0.3290   -4.9560   43.3290 C   0  0  0  0  0  0  0  0  0  0  0  0
    0.5450   -6.6350   45.2680 C   0  0  1  0  0  0  0  0  0  0  0  0
    0.7410   -6.3610   43.7570 C   0  0  0  0  0  0  0  0  0  0  0  0
    1.2100   -8.0060   45.5960 C   0  0  0  0  0  0  0  0  0  0  0  0
   -0.9710   -6.7320   45.6830 C   0  0  2  0  0  0  0  0  0  0  0  0
   -1.1250   -7.1560   47.1610 C   0  0  0  0  0  0  0  0  0  0  0  0
   -1.8220   -7.6500   44.7900 C   0  0  0  0  0  0  0  0  0  0  0  0
    0.0440   -7.7600   47.7120 O   0  0  0  0  0  0  0  0  0  0  0  0
    4.5130   -2.7670   45.3140 C   0  0  0  0  0  0  0  0  0  0  0  0
    5.8010   -2.8880   44.9540 C   0  0  0  0  0  0  0  0  0  0  0  0
    6.9260   -2.8430   45.8900 C   0  0  0  0  0  0  0  0  0  0  0  0
    7.8630   -1.8290   45.8360 C   0  0  0  0  0  0  0  0  0  0  0  0
    7.1310   -3.7300   46.9270 C   0  0  0  0  0  0  0  0  0  0  0  0
    8.9040   -1.7050   46.6880 N   0  0  0  0  0  0  0  0  0  0  0  0
    8.1540   -3.6510   47.8070 N   0  0  0  0  0  0  0  0  0  0  0  0
    9.0160   -2.6470   47.6280 C   0  0  0  0  0  0  0  0  0  0  0  0
   10.0630   -2.5360   48.5180 N   0  0  0  0  0  0  0  0  0  0  0  0
    3.4810   -5.8070   45.2880 O   0  0  0  0  0  0  0  0  0  0  0  0
    3.1090   -9.4330   46.9250 C   0  0  0  0  0  0  0  0  0  0  0  0
    4.3060   -9.6910   47.8480 C   0  0  0  0  0  0  0  0  0  0  0  0
    5.5030   -8.7650   47.6320 C   0  0  0  0  0  0  0  0  0  0  0  0
    5.3770   -7.4560   48.3640 C   0  0  0  0  0  0  0  0  0  0  0  0
    5.6050   -7.2380   49.5410 O   0  0  0  0  0  0  0  0  0  0  0  0
    4.9940   -6.4560   47.5450 O   0  0  0  0  0  0  0  0  0  0  0  0
  2  1  1  1
  1 30  1  0
  2 15  1  0
  2 19  1  0
  3  4  2  0
  3  5  1  0
  3 20  1  0
  4  7  1  0
  4  6  1  0
  5  9  2  0
  5  8  1  0
  7 10  2  0
  8 29  1  6
  8 11  1  0
  9 10  1  0
  9 12  1  0
 13 11  1  1
 12 14  1  0
 13 14  1  0
 13 15  1  0
 13 16  1  0
 16 18  1  6
 16 17  1  0
 17 19  1  0
 20 21  2  3
 21 22  1  0
 22 23  2  0
 22 24  1  0
 23 25  1  0
 24 26  2  0
 25 27  2  0
 26 27  1  0
 27 28  1  0
 30 31  1  0
 31 32  1  0
 32 33  1  0
 33 35  1  0
 33 34  2  0
M  END
>  <vina_dock>  (574) 
-8.416

$$$$
O14757_PocketFlow_idx-in-all-generaetd-55
     RDKit          3D

 35 38  0  0  0  0  0  0  0  0999 V2000
    2.4680   -6.0940   45.1940 C   0  0  0  0  0  0  0  0  0  0  0  0
    1.2050   -5.5200   44.9750 C   0  0  0  0  0  0  0  0  0  0  0  0
    0.0280   -6.2670   45.1170 C   0  0  0  0  0  0  0  0  0  0  0  0
    0.0830   -7.6230   45.4720 C   0  0  0  0  0  0  0  0  0  0  0  0
    2.5230   -7.4510   45.5350 C   0  0  0  0  0  0  0  0  0  0  0  0
    1.3480   -8.2010   45.6710 C   0  0  0  0  0  0  0  0  0  0  0  0
    3.7520   -5.3110   45.0520 C   0  0  0  0  0  0  0  0  0  0  0  0
    4.0530   -4.4750   46.3000 C   0  0  0  0  0  0  0  0  0  0  0  0
    5.2970   -3.6260   46.1370 C   0  0  0  0  0  0  0  0  0  0  0  0
    7.5230   -1.9760   45.7350 C   0  0  0  0  0  0  0  0  0  0  0  0
    8.5920   -1.1930   45.5390 F   0  0  0  0  0  0  0  0  0  0  0  0
    7.5070   -2.8500   46.8130 C   0  0  0  0  0  0  0  0  0  0  0  0
    6.4500   -1.8980   44.8590 C   0  0  0  0  0  0  0  0  0  0  0  0
    6.3910   -3.6710   47.0310 C   0  0  0  0  0  0  0  0  0  0  0  0
    5.3400   -2.7190   45.0600 C   0  0  0  0  0  0  0  0  0  0  0  0
    6.4080   -4.5800   48.2110 C   0  0  0  0  0  0  0  0  0  0  0  0
    6.9810   -5.8080   48.0200 N   0  0  0  0  0  0  0  0  0  0  0  0
    5.9720   -4.2570   49.3070 O   0  0  0  0  0  0  0  0  0  0  0  0
    1.0760   -4.1100   44.5510 C   0  0  0  0  0  0  0  0  0  0  0  0
    1.7230   -3.8560   43.3610 N   0  0  0  0  0  0  0  0  0  0  0  0
    0.4590   -3.3370   45.2690 O   0  0  0  0  0  0  0  0  0  0  0  0
    1.8790   -2.6130   42.7030 C   0  0  0  0  0  0  0  0  0  0  0  0
    3.0140   -1.8120   42.8680 C   0  0  0  0  0  0  0  0  0  0  0  0
    0.8510   -2.1690   41.8400 C   0  0  0  0  0  0  0  0  0  0  0  0
    3.1310   -0.5910   42.1980 C   0  0  0  0  0  0  0  0  0  0  0  0
    0.9790   -0.9370   41.1780 C   0  0  0  0  0  0  0  0  0  0  0  0
    2.1160   -0.1530   41.3550 C   0  0  0  0  0  0  0  0  0  0  0  0
   -0.3610   -2.9580   41.5880 C   0  0  0  0  0  0  0  0  0  0  0  0
   -1.4920   -2.3960   41.1430 C   0  0  0  0  0  0  0  0  0  0  0  0
   -1.1470   -8.4160   45.6300 C   0  0  0  0  0  0  0  0  0  0  0  0
   -2.2660   -8.1840   44.8130 C   0  0  0  0  0  0  0  0  0  0  0  0
   -1.2400   -9.4290   46.6010 C   0  0  0  0  0  0  0  0  0  0  0  0
   -3.4350   -8.9360   44.9580 C   0  0  0  0  0  0  0  0  0  0  0  0
   -2.4080  -10.1820   46.7480 C   0  0  0  0  0  0  0  0  0  0  0  0
   -3.5050   -9.9350   45.9260 C   0  0  0  0  0  0  0  0  0  0  0  0
  1  2  1  0
  1  7  1  0
  1  5  2  0
  2 19  1  0
  2  3  2  0
  3  4  1  0
  4 30  1  0
  4  6  2  0
  5  6  1  0
  7  8  1  0
  8  9  1  0
  9 15  2  0
  9 14  1  0
 10 13  2  0
 10 11  1  0
 10 12  1  0
 12 14  2  0
 13 15  1  0
 14 16  1  0
 16 17  1  0
 16 18  2  0
 19 20  1  0
 19 21  2  0
 20 22  1  0
 22 24  1  0
 22 23  2  0
 23 25  1  0
 24 26  2  0
 24 28  1  0
 25 27  2  0
 26 27  1  0
 28 29  2  0
 30 31  2  0
 30 32  1  0
 31 33  1  0
 32 34  2  0
 33 35  2  0
 34 35  1  0
M  END
>  <vina_dock>  (575) 
-10.535

$$$$
O14757_PocketFlow_idx-in-all-generaetd-563
     RDKit          3D

 20 20  0  0  0  0  0  0  0  0999 V2000
    5.2850   -3.0490   45.5060 C   0  0  0  0  0  0  0  0  0  0  0  0
    5.6960   -1.7810   45.3250 C   0  0  0  0  0  0  0  0  0  0  0  0
    4.8450   -4.0330   44.4580 C   0  0  0  0  0  0  0  0  0  0  0  0
    3.3910   -4.4110   44.6050 C   0  0  0  0  0  0  0  0  0  0  0  0
    1.0420   -3.8110   44.4950 C   0  0  0  0  0  0  0  0  0  0  0  0
    0.6860   -5.1110   44.8520 C   0  0  0  0  0  0  0  0  0  0  0  0
    2.3850   -3.4630   44.3680 C   0  0  0  0  0  0  0  0  0  0  0  0
    1.6730   -6.0790   45.0800 C   0  0  0  0  0  0  0  0  0  0  0  0
    3.0230   -5.7180   44.9560 C   0  0  0  0  0  0  0  0  0  0  0  0
    1.2910   -7.4820   45.4780 C   0  0  0  0  0  0  0  0  0  0  0  0
   -0.2250   -7.6380   45.6130 C   0  0  0  0  0  0  0  0  0  0  0  0
   -0.6680   -7.5220   47.0630 C   0  0  0  0  0  0  0  0  0  0  0  0
    5.8580   -1.0430   44.0280 C   0  0  0  0  0  0  0  0  0  0  0  0
    4.5540   -0.4490   43.5810 C   0  0  0  0  0  0  0  0  0  0  0  0
    3.8830   -0.8490   42.4900 C   0  0  0  0  0  0  0  0  0  0  0  0
    2.6240   -0.2580   42.0880 C   0  0  0  0  0  0  0  0  0  0  0  0
    1.6100   -0.8500   41.4360 C   0  0  0  0  0  0  0  0  0  0  0  0
    1.5420   -2.2210   40.9800 C   0  0  0  0  0  0  0  0  0  0  0  0
    0.4460   -2.9990   40.9490 C   0  0  0  0  0  0  0  0  0  0  0  0
   -0.9520   -2.6660   41.3600 C   0  0  0  0  0  0  0  0  0  0  0  0
  1  3  1  0
  1  2  2  3
  2 13  1  0
  3  4  1  0
  4  7  2  0
  4  9  1  0
  5  7  1  0
  5  6  2  0
  6  8  1  0
  8  9  2  0
  8 10  1  0
 10 11  1  0
 11 12  1  0
 13 14  1  0
 14 15  2  3
 15 16  1  0
 16 17  2  3
 17 18  1  0
 18 19  2  3
 19 20  1  0
M  END
>  <vina_dock>  (576) 
-7.14

$$$$
O14757_PocketFlow_idx-in-all-generaetd-807
     RDKit          3D

 21 22  0  0  0  0  0  0  0  0999 V2000
    3.4850   -2.9530   43.5460 C   0  0  0  0  0  0  0  0  0  0  0  0
    4.7730   -2.7070   44.3180 C   0  0  0  0  0  0  0  0  0  0  0  0
    7.1810   -2.2500   45.7770 C   0  0  0  0  0  0  0  0  0  0  0  0
    6.3790   -3.3640   46.0460 C   0  0  0  0  0  0  0  0  0  0  0  0
    6.7690   -1.3630   44.7770 C   0  0  0  0  0  0  0  0  0  0  0  0
    5.1950   -3.5860   45.3330 C   0  0  0  0  0  0  0  0  0  0  0  0
    5.5800   -1.5780   44.0580 C   0  0  0  0  0  0  0  0  0  0  0  0
    8.3650   -1.9760   46.4340 N   0  0  0  0  0  0  0  0  0  0  0  0
    8.5750   -0.7740   46.6370 O   0  0  0  0  0  0  0  0  0  0  0  0
    5.2470   -0.5430   43.0420 C   0  0  0  0  0  0  0  0  0  0  0  0
    4.4570    0.3710   43.2260 O   0  0  0  0  0  0  0  0  0  0  0  0
    2.5670   -4.0110   44.1050 C   0  0  0  0  0  0  0  0  0  0  0  0
    1.2390   -4.1240   43.9000 C   0  0  0  0  0  0  0  0  0  0  0  0
    0.5310   -5.2580   44.5290 C   0  0  0  0  0  0  0  0  0  0  0  0
    0.3930   -5.3200   45.9220 C   0  0  0  0  0  0  0  0  0  0  0  0
   -0.0120   -6.2860   43.7460 C   0  0  0  0  0  0  0  0  0  0  0  0
   -0.2740   -6.3910   46.5220 C   0  0  0  0  0  0  0  0  0  0  0  0
   -0.6790   -7.3560   44.3460 C   0  0  0  0  0  0  0  0  0  0  0  0
   -0.8100   -7.4080   45.7330 C   0  0  0  0  0  0  0  0  0  0  0  0
    0.3920   -3.1430   43.1220 C   0  0  0  0  0  0  0  0  0  0  0  0
    0.3950   -3.4460   41.6290 C   0  0  0  0  0  0  0  0  0  0  0  0
  1 12  1  0
  1  2  1  0
  2  7  2  0
  2  6  1  0
  3  5  2  0
  3  4  1  0
  3  8  1  0
  4  6  2  0
  5  7  1  0
  7 10  1  0
  8  9  1  0
 10 11  2  0
 12 13  2  3
 13 20  1  0
 13 14  1  0
 14 16  1  0
 14 15  2  0
 15 17  1  0
 16 18  2  0
 17 19  2  0
 18 19  1  0
 20 21  1  0
M  END
>  <vina_dock>  (577) 
-8.059

$$$$
O14757_PocketFlow_idx-in-all-generaetd-846
     RDKit          3D

 16 17  0  0  0  0  0  0  0  0999 V2000
    0.7590   -7.5010   45.0010 N   0  0  0  0  0  0  0  0  0  0  0  0
    1.5050   -6.3620   44.6980 C   0  0  0  0  0  0  0  0  0  0  0  0
    2.8990   -6.4300   44.8230 C   0  0  0  0  0  0  0  0  0  0  0  0
    3.7140   -5.3130   44.6010 C   0  0  0  0  0  0  0  0  0  0  0  0
    3.1580   -4.0720   44.2670 C   0  0  0  0  0  0  0  0  0  0  0  0
    0.9510   -5.1140   44.4010 C   0  0  0  0  0  0  0  0  0  0  0  0
    1.7630   -3.9920   44.1760 C   0  0  0  0  0  0  0  0  0  0  0  0
    4.0070   -2.8930   44.0320 C   0  0  0  0  0  0  0  0  0  0  0  0
    3.6670   -1.9370   43.0600 C   0  0  0  0  0  0  0  0  0  0  0  0
    5.1840   -2.6870   44.7720 C   0  0  0  0  0  0  0  0  0  0  0  0
    4.4730   -0.8170   42.8360 C   0  0  0  0  0  0  0  0  0  0  0  0
    5.9900   -1.5670   44.5510 C   0  0  0  0  0  0  0  0  0  0  0  0
    5.6340   -0.6330   43.5810 C   0  0  0  0  0  0  0  0  0  0  0  0
   -0.0290   -7.5980   46.2300 C   0  0  0  0  0  0  0  0  0  0  0  0
   -1.5210   -7.4280   45.9420 C   0  0  0  0  0  0  0  0  0  0  0  0
   -1.8860   -7.8730   44.2560 Cl  0  0  0  0  0  0  0  0  0  0  0  0
  1  2  1  0
  1 14  1  0
  2  6  2  0
  2  3  1  0
  3  4  2  0
  4  5  1  0
  5  8  1  0
  5  7  2  0
  6  7  1  0
  8  9  2  0
  8 10  1  0
  9 11  1  0
 10 12  2  0
 11 13  2  0
 12 13  1  0
 14 15  1  0
 15 16  1  0
M  END
>  <vina_dock>  (578) 
-7.32

$$$$
O14757_PocketFlow_idx-in-all-generaetd-963
     RDKit          3D

 35 38  0  0  0  0  0  0  0  0999 V2000
    6.2070   -9.6230   48.1460 C   0  0  0  0  0  0  0  0  0  0  0  0
    5.0910   -9.3520   47.3390 C   0  0  0  0  0  0  0  0  0  0  0  0
    3.7950   -9.6550   47.7810 C   0  0  0  0  0  0  0  0  0  0  0  0
    3.6070  -10.2280   49.0440 C   0  0  0  0  0  0  0  0  0  0  0  0
    5.9950  -10.1890   49.4150 C   0  0  0  0  0  0  0  0  0  0  0  0
    4.7070  -10.4920   49.8600 C   0  0  0  0  0  0  0  0  0  0  0  0
    7.5640   -9.2930   47.6930 C   0  0  0  0  0  0  0  0  0  0  0  0
    6.3830   -5.7670   48.3040 N   0  0  0  0  0  0  0  0  0  0  0  0
    7.1920   -5.9110   49.3740 C   0  0  0  0  0  0  0  0  0  0  0  0
    6.4990   -4.6380   47.6040 C   0  0  0  0  0  0  0  0  0  0  0  0
    7.1000   -7.1980   50.1440 C   0  0  0  0  0  0  0  0  0  0  0  0
    8.0870   -4.9340   49.7560 C   0  0  0  0  0  0  0  0  0  0  0  0
    7.3410   -3.6410   47.8930 N   0  0  0  0  0  0  0  0  0  0  0  0
    8.2660   -8.1630   49.8940 C   0  0  0  0  0  0  0  0  0  0  0  0
    8.1420   -3.8050   48.9660 C   0  0  0  0  0  0  0  0  0  0  0  0
    8.5260   -8.6170   48.4710 C   0  0  0  0  0  0  0  0  0  0  0  0
    9.1620   -2.7290   49.2310 C   0  0  0  0  0  0  0  0  0  0  0  0
    9.8090   -8.4070   48.0390 N   0  0  0  0  0  0  0  0  0  0  0  0
   10.4710   -2.9580   48.4650 C   0  0  0  0  0  0  0  0  0  0  0  0
   10.1490   -8.8880   46.8160 C   0  0  0  0  0  0  0  0  0  0  0  0
    7.9560   -9.7230   46.4150 C   0  0  0  0  0  0  0  0  0  0  0  0
   11.3320   -4.0880   49.0520 C   0  0  0  0  0  0  0  0  0  0  0  0
   11.5850   -8.8380   46.4050 C   0  0  0  0  0  0  0  0  0  0  0  0
    9.2590   -9.5350   45.9730 C   0  0  0  0  0  0  0  0  0  0  0  0
   11.8870   -5.1640   48.1580 C   0  0  0  0  0  0  0  0  0  0  0  0
   12.4230   -7.8990   46.9600 N   0  0  0  0  0  0  0  0  0  0  0  0
   12.0300   -9.6660   45.6120 O   0  0  0  0  0  0  0  0  0  0  0  0
   11.4680   -5.6720   46.9830 C   0  0  0  0  0  0  0  0  0  0  0  0
   12.3780   -6.6720   46.3650 C   0  0  0  0  0  0  0  0  0  0  0  0
   10.2640   -5.3380   46.1700 C   0  0  0  0  0  0  0  0  0  0  0  0
   13.1260   -6.3560   45.4470 O   0  0  0  0  0  0  0  0  0  0  0  0
    5.6590   -4.4670   46.5240 N   0  0  0  0  0  0  0  0  0  0  0  0
    2.6590   -9.3590   46.8750 C   0  0  0  0  0  0  0  0  0  0  0  0
    2.6530   -9.5170   45.6690 O   0  0  0  0  0  0  0  0  0  0  0  0
    1.5850   -8.8790   47.5240 O   0  0  0  0  0  0  0  0  0  0  0  0
  1  2  2  0
  1  7  1  0
  1  5  1  0
  2  3  1  0
  3 33  1  0
  3  4  2  0
  4  6  1  0
  5  6  2  0
  7 21  1  0
  7 16  2  0
  8 10  2  0
  8  9  1  0
  9 12  2  0
  9 11  1  0
 10 32  1  0
 10 13  1  0
 11 14  1  0
 12 15  1  0
 13 15  2  0
 14 16  1  0
 15 17  1  0
 16 18  1  0
 17 19  1  0
 18 20  2  0
 19 22  1  0
 20 24  1  0
 20 23  1  0
 21 24  2  0
 22 25  1  0
 23 27  2  0
 23 26  1  0
 25 28  2  3
 26 29  1  0
 28 30  1  0
 28 29  1  0
 29 31  2  0
 33 34  2  0
 33 35  1  0
M  END
>  <vina_dock>  (579) 
-6.17

$$$$
O14757_PocketFlow_idx-in-all-generaetd-140
     RDKit          3D

 35 39  0  0  0  0  0  0  0  0999 V2000
    6.0510   -2.4350   45.3780 C   0  0  0  0  0  0  0  0  0  0  0  0
    5.6600   -3.4190   46.2960 C   0  0  0  0  0  0  0  0  0  0  0  0
    6.5460   -3.8870   47.2720 C   0  0  0  0  0  0  0  0  0  0  0  0
    7.8520   -3.3800   47.3670 C   0  0  0  0  0  0  0  0  0  0  0  0
    7.3590   -1.9380   45.4630 C   0  0  0  0  0  0  0  0  0  0  0  0
    8.2490   -2.4020   46.4410 C   0  0  0  0  0  0  0  0  0  0  0  0
    5.1160   -1.9430   44.3540 C   0  0  0  0  0  0  0  0  0  0  0  0
    3.3190   -1.0050   42.3710 C   0  0  0  0  0  0  0  0  0  0  0  0
    4.4250   -0.2350   42.7540 C   0  0  0  0  0  0  0  0  0  0  0  0
    3.1130   -2.2420   42.9940 C   0  0  0  0  0  0  0  0  0  0  0  0
    5.3100   -0.7010   43.7320 C   0  0  0  0  0  0  0  0  0  0  0  0
    4.0020   -2.7040   43.9700 C   0  0  0  0  0  0  0  0  0  0  0  0
    2.3610   -0.5030   41.3150 C   0  0  0  0  0  0  0  0  0  0  0  0
    1.0350   -1.2200   41.2940 C   0  0  0  0  0  0  0  0  0  0  0  0
   -1.3760   -1.2120   41.2550 C   0  0  0  0  0  0  0  0  0  0  0  0
   -2.8720   -0.3710   41.2380 Cl  0  0  0  0  0  0  0  0  0  0  0  0
   -0.1720   -0.5150   41.2850 C   0  0  0  0  0  0  0  0  0  0  0  0
   -1.3370   -2.5950   41.2300 C   0  0  0  0  0  0  0  0  0  0  0  0
   -0.1900   -3.3150   41.2310 N   0  0  0  0  0  0  0  0  0  0  0  0
    0.9660   -2.6130   41.2650 C   0  0  0  0  0  0  0  0  0  0  0  0
    8.7940   -3.9350   48.4470 C   0  0  1  0  0  0  0  0  0  0  0  0
    9.4070   -5.3070   48.0980 C   0  0  0  0  0  0  0  0  0  0  0  0
    9.5510   -6.3310   49.0700 C   0  0  0  0  0  0  0  0  0  0  0  0
    9.8900   -5.5510   46.7940 C   0  0  0  0  0  0  0  0  0  0  0  0
   10.1370   -7.5580   48.6950 C   0  0  0  0  0  0  0  0  0  0  0  0
   10.4720   -6.7710   46.4490 C   0  0  0  0  0  0  0  0  0  0  0  0
   10.5940   -7.7750   47.3980 C   0  0  0  0  0  0  0  0  0  0  0  0
    9.0650   -6.1980   50.4970 C   0  0  0  0  0  0  0  0  0  0  0  0
    7.6790   -6.6390   50.6250 N   0  0  0  0  0  0  0  0  0  0  0  0
    9.8080   -2.9100   48.9770 C   0  0  0  0  0  0  0  0  0  0  0  0
    9.3660   -1.9040   49.8570 C   0  0  0  0  0  0  0  0  0  0  0  0
   11.1600   -2.9140   48.5990 C   0  0  0  0  0  0  0  0  0  0  0  0
   10.2500   -0.9440   50.3510 C   0  0  0  0  0  0  0  0  0  0  0  0
   12.0440   -1.9530   49.0960 C   0  0  0  0  0  0  0  0  0  0  0  0
   11.5900   -0.9700   49.9720 C   0  0  0  0  0  0  0  0  0  0  0  0
  1  7  1  0
  1  5  1  0
  1  2  2  0
  2  3  1  0
  3  4  2  0
  4  6  1  0
 21  4  1  6
  5  6  2  0
  7 11  2  0
  7 12  1  0
  8 13  1  0
  8  9  2  0
  8 10  1  0
  9 11  1  0
 10 12  2  0
 13 14  1  0
 14 20  1  0
 14 17  2  0
 15 18  2  0
 15 16  1  0
 15 17  1  0
 18 19  1  0
 19 20  2  0
 21 22  1  0
 21 30  1  0
 22 24  1  0
 22 23  2  0
 23 25  1  0
 23 28  1  0
 24 26  2  0
 25 27  2  0
 26 27  1  0
 28 29  1  0
 30 32  1  0
 30 31  2  0
 31 33  1  0
 32 34  2  0
 33 35  2  0
 34 35  1  0
M  END
>  <vina_dock>  (580) 
-8.528

$$$$
O14757_PocketFlow_idx-in-all-generaetd-69
     RDKit          3D

 17 18  0  0  0  0  0  0  0  0999 V2000
    6.1370   -2.4750   45.3080 C   0  0  0  0  0  0  0  0  0  0  0  0
    5.5150   -3.5310   45.9820 C   0  0  0  0  0  0  0  0  0  0  0  0
    5.4730   -1.8390   44.2510 C   0  0  0  0  0  0  0  0  0  0  0  0
    4.1880   -2.2530   43.8600 C   0  0  0  0  0  0  0  0  0  0  0  0
    3.5100   -1.6260   42.8000 C   0  0  0  0  0  0  0  0  0  0  0  0
    2.2290   -2.0440   42.4060 C   0  0  0  0  0  0  0  0  0  0  0  0
    4.2390   -3.9500   45.6020 C   0  0  0  0  0  0  0  0  0  0  0  0
    3.5640   -3.3220   44.5440 C   0  0  0  0  0  0  0  0  0  0  0  0
    1.6190   -3.0970   43.0980 C   0  0  0  0  0  0  0  0  0  0  0  0
    2.2810   -3.7310   44.1530 C   0  0  0  0  0  0  0  0  0  0  0  0
    7.4910   -2.0640   45.7470 C   0  0  0  0  0  0  0  0  0  0  0  0
    8.3610   -2.8060   46.1640 O   0  0  0  0  0  0  0  0  0  0  0  0
    7.6960   -0.7390   45.6420 O   0  0  0  0  0  0  0  0  0  0  0  0
    1.5080   -1.3420   41.2810 C   0  0  0  0  0  0  0  0  0  0  0  0
    0.1530   -1.3760   41.4140 F   0  0  0  0  0  0  0  0  0  0  0  0
    1.7800   -1.8970   40.0670 F   0  0  0  0  0  0  0  0  0  0  0  0
    1.8370   -0.0250   41.1730 F   0  0  0  0  0  0  0  0  0  0  0  0
  1  3  2  0
  1 11  1  0
  1  2  1  0
  2  7  2  0
  3  4  1  0
  4  5  2  0
  4  8  1  0
  5  6  1  0
  6 14  1  0
  6  9  2  0
  7  8  1  0
  8 10  2  0
  9 10  1  0
 11 13  1  0
 11 12  2  0
 14 16  1  0
 14 17  1  0
 14 15  1  0
M  END
>  <vina_dock>  (581) 
-8.314

$$$$
O14757_PocketFlow_idx-in-all-generaetd-117
     RDKit          3D

 10 10  0  0  0  0  0  0  0  0999 V2000
    3.0870   -1.3970   42.3640 C   0  0  0  0  0  0  0  0  0  0  0  0
    1.8640   -2.2720   42.3400 C   0  0  0  0  0  0  0  0  0  0  0  0
    1.0990   -2.4700   41.2550 C   0  0  0  0  0  0  0  0  0  0  0  0
   -0.1160   -3.3390   41.2390 C   0  0  0  0  0  0  0  0  0  0  0  0
    4.1170   -1.8780   43.3590 C   0  0  0  0  0  0  0  0  0  0  0  0
    5.2380   -1.0900   43.6550 C   0  0  0  0  0  0  0  0  0  0  0  0
    3.9570   -3.1060   44.0170 C   0  0  0  0  0  0  0  0  0  0  0  0
    6.1860   -1.5270   44.5820 C   0  0  0  0  0  0  0  0  0  0  0  0
    4.9050   -3.5400   44.9440 C   0  0  0  0  0  0  0  0  0  0  0  0
    6.0200   -2.7520   45.2250 C   0  0  0  0  0  0  0  0  0  0  0  0
  1  2  1  0
  1  5  1  0
  2  3  2  3
  3  4  1  0
  5  6  2  0
  5  7  1  0
  6  8  1  0
  7  9  2  0
  8 10  2  0
  9 10  1  0
M  END
>  <vina_dock>  (582) 
-5.778

$$$$
O14757_PocketFlow_idx-in-all-generaetd-751
     RDKit          3D

 22 25  0  0  0  0  0  0  0  0999 V2000
   -0.4050   -6.8470   44.4530 C   0  0  0  0  0  0  0  0  0  0  0  0
   -0.8050   -7.6420   45.4570 C   0  0  0  0  0  0  0  0  0  0  0  0
    0.7700   -5.9680   44.5180 C   0  0  0  0  0  0  0  0  0  0  0  0
    5.3160   -1.3100   43.8070 C   0  0  0  0  0  0  0  0  0  0  0  0
    4.1560   -2.1390   43.7560 C   0  0  0  0  0  0  0  0  0  0  0  0
    6.4450   -1.6190   44.5630 C   0  0  0  0  0  0  0  0  0  0  0  0
    3.0020   -1.8040   42.9720 C   0  0  0  0  0  0  0  0  0  0  0  0
    4.1720   -3.3340   44.5220 C   0  0  0  0  0  0  0  0  0  0  0  0
    6.4600   -2.7770   45.3050 C   0  0  0  0  0  0  0  0  0  0  0  0
    2.9280   -0.6190   42.1840 C   0  0  0  0  0  0  0  0  0  0  0  0
    1.8740   -2.6690   42.9620 C   0  0  0  0  0  0  0  0  0  0  0  0
    3.0330   -4.2090   44.5110 C   0  0  0  0  0  0  0  0  0  0  0  0
    5.3440   -3.6130   45.2820 C   0  0  0  0  0  0  0  0  0  0  0  0
    1.8170   -0.2760   41.4170 C   0  0  0  0  0  0  0  0  0  0  0  0
    1.8910   -3.8790   43.7360 C   0  0  0  0  0  0  0  0  0  0  0  0
    0.7570   -2.2820   42.1660 C   0  0  0  0  0  0  0  0  0  0  0  0
    2.9930   -5.4220   45.2510 C   0  0  0  0  0  0  0  0  0  0  0  0
    0.7250   -1.1120   41.4080 C   0  0  0  0  0  0  0  0  0  0  0  0
    0.7890   -4.7870   43.7660 C   0  0  0  0  0  0  0  0  0  0  0  0
    1.8960   -6.2850   45.2540 C   0  0  0  0  0  0  0  0  0  0  0  0
   -2.0150   -8.5280   45.3850 C   0  0  0  0  0  0  0  0  0  0  0  0
   -2.8940   -8.1690   44.1970 C   0  0  0  0  0  0  0  0  0  0  0  0
  1  3  1  0
  1  2  2  3
  2 21  1  0
  3 19  2  0
  3 20  1  0
  4  5  1  0
  4  6  2  0
  5  7  2  0
  5  8  1  0
  6  9  1  0
  7 10  1  0
  7 11  1  0
  8 12  2  0
  8 13  1  0
  9 13  2  0
 10 14  2  0
 11 16  1  0
 11 15  2  0
 12 15  1  0
 12 17  1  0
 14 18  1  0
 15 19  1  0
 16 18  2  0
 17 20  2  0
 21 22  1  0
M  END
>  <vina_dock>  (583) 
-10.85

$$$$
O14757_PocketFlow_idx-in-all-generaetd-415
     RDKit          3D

 34 37  0  0  0  0  0  0  0  0999 V2000
    4.2430   -1.1850   42.5860 C   0  0  0  0  0  0  0  0  0  0  0  0
    3.0820   -2.0740   42.9580 C   0  0  0  0  0  0  0  0  0  0  0  0
    0.8230   -2.8780   42.5330 C   0  0  0  0  0  0  0  0  0  0  0  0
    1.9110   -2.0650   42.1890 C   0  0  0  0  0  0  0  0  0  0  0  0
    0.9040   -3.7100   43.6560 C   0  0  0  0  0  0  0  0  0  0  0  0
    2.0720   -3.7420   44.4330 C   0  0  0  0  0  0  0  0  0  0  0  0
    3.1550   -2.9270   44.0700 C   0  0  0  0  0  0  0  0  0  0  0  0
   -0.3890   -2.8230   41.6810 C   0  0  0  0  0  0  0  0  0  0  0  0
   -1.1880   -1.9080   41.6370 O   0  0  0  0  0  0  0  0  0  0  0  0
   -0.5450   -3.9200   40.9190 O   0  0  0  0  0  0  0  0  0  0  0  0
    2.1620   -4.6370   45.6500 C   0  0  0  0  0  0  0  0  0  0  0  0
    2.9040   -5.9150   45.3630 C   0  0  0  0  0  0  0  0  0  0  0  0
    2.3890   -7.1500   45.2400 C   0  0  0  0  0  0  0  0  0  0  0  0
    0.9720   -7.4840   45.3830 C   0  0  0  0  0  0  0  0  0  0  0  0
    0.0410   -7.0920   44.4140 C   0  0  0  0  0  0  0  0  0  0  0  0
    0.5420   -8.2110   46.5010 C   0  0  0  0  0  0  0  0  0  0  0  0
   -1.3070   -7.4190   44.5610 C   0  0  0  0  0  0  0  0  0  0  0  0
   -0.8060   -8.5360   46.6400 C   0  0  0  0  0  0  0  0  0  0  0  0
   -1.7340   -8.1410   45.6760 C   0  0  0  0  0  0  0  0  0  0  0  0
   -1.3310   -9.4370   48.0110 Cl  0  0  0  0  0  0  0  0  0  0  0  0
    4.9440   -0.5230   43.7800 C   0  0  0  0  0  0  0  0  0  0  0  0
    6.2880   -1.1410   44.1860 C   0  0  0  0  0  0  0  0  0  0  0  0
    6.3510   -1.7560   45.5850 C   0  0  0  0  0  0  0  0  0  0  0  0
    6.3150   -3.2850   45.5850 C   0  0  0  0  0  0  0  0  0  0  0  0
    6.7470   -3.8520   46.9230 C   0  0  0  0  0  0  0  0  0  0  0  0
    8.1140   -4.0810   47.2570 C   0  0  0  0  0  0  0  0  0  0  0  0
    5.7390   -4.1880   47.8450 C   0  0  0  0  0  0  0  0  0  0  0  0
    9.1960   -3.7930   46.3930 C   0  0  0  0  0  0  0  0  0  0  0  0
    8.4210   -4.6350   48.5270 C   0  0  0  0  0  0  0  0  0  0  0  0
    6.0570   -4.7310   49.0850 C   0  0  0  0  0  0  0  0  0  0  0  0
   10.5210   -4.0380   46.7640 C   0  0  0  0  0  0  0  0  0  0  0  0
    9.7590   -4.8740   48.8860 C   0  0  0  0  0  0  0  0  0  0  0  0
    7.3900   -4.9490   49.4230 C   0  0  0  0  0  0  0  0  0  0  0  0
   10.8020   -4.5780   48.0120 C   0  0  0  0  0  0  0  0  0  0  0  0
  1  2  1  0
  1 21  1  0
  2  4  1  0
  2  7  2  0
  3  8  1  0
  3  4  2  0
  3  5  1  0
  5  6  2  0
  6  7  1  0
  6 11  1  0
  8 10  1  0
  8  9  2  0
 11 12  1  0
 12 13  2  3
 13 14  1  0
 14 15  2  0
 14 16  1  0
 15 17  1  0
 16 18  2  0
 17 19  2  0
 18 19  1  0
 18 20  1  0
 21 22  1  0
 22 23  1  0
 23 24  1  0
 24 25  1  0
 25 26  1  0
 25 27  2  0
 26 28  2  0
 26 29  1  0
 27 30  1  0
 28 31  1  0
 29 32  2  0
 29 33  1  0
 30 33  2  0
 31 34  2  0
 32 34  1  0
M  END
>  <vina_dock>  (584) 
-9.494

$$$$
O14757_PocketFlow_idx-in-all-generaetd-974
     RDKit          3D

 21 22  0  0  0  0  0  0  0  0999 V2000
    3.4410   -4.6650   45.0810 C   0  0  0  0  0  0  0  0  0  0  0  0
    3.3720   -5.9760   44.5940 C   0  0  0  0  0  0  0  0  0  0  0  0
    2.1960   -6.7220   44.7210 C   0  0  0  0  0  0  0  0  0  0  0  0
    1.0600   -6.1670   45.3230 C   0  0  0  0  0  0  0  0  0  0  0  0
    1.1320   -4.8610   45.8180 C   0  0  0  0  0  0  0  0  0  0  0  0
    2.3070   -4.1120   45.6920 C   0  0  0  0  0  0  0  0  0  0  0  0
    4.7050   -3.8530   44.9270 C   0  0  0  0  0  0  0  0  0  0  0  0
    4.5050   -2.5750   44.1570 C   0  0  0  0  0  0  0  0  0  0  0  0
    3.2910   -1.2180   42.5620 C   0  0  0  0  0  0  0  0  0  0  0  0
    4.2370   -0.2240   42.7640 C   0  0  0  0  0  0  0  0  0  0  0  0
    3.4310   -2.4140   43.2720 C   0  0  0  0  0  0  0  0  0  0  0  0
    5.2910   -0.3440   43.6100 N   0  0  0  0  0  0  0  0  0  0  0  0
    5.4010   -1.5150   44.2790 C   0  0  0  0  0  0  0  0  0  0  0  0
    2.1930   -0.9650   41.6120 C   0  0  0  0  0  0  0  0  0  0  0  0
    1.5570   -1.8130   41.0160 O   0  0  0  0  0  0  0  0  0  0  0  0
    1.9400    0.3470   41.4470 O   0  0  0  0  0  0  0  0  0  0  0  0
   -0.1850   -6.9280   45.5010 C   0  0  0  0  0  0  0  0  0  0  0  0
   -0.9630   -7.3380   44.4860 C   0  0  0  0  0  0  0  0  0  0  0  0
   -2.2520   -8.1140   44.5800 C   0  0  0  0  0  0  0  0  0  0  0  0
   -2.7360   -8.5630   45.9630 C   0  0  0  0  0  0  0  0  0  0  0  0
   -2.2800   -9.9700   46.3300 C   0  0  0  0  0  0  0  0  0  0  0  0
  1  2  2  0
  1  7  1  0
  1  6  1  0
  2  3  1  0
  3  4  2  0
  4 17  1  0
  4  5  1  0
  5  6  2  0
  7  8  1  0
  8 11  2  0
  8 13  1  0
  9 14  1  0
  9 10  2  0
  9 11  1  0
 10 12  1  0
 12 13  2  0
 14 15  2  0
 14 16  1  0
 17 18  2  3
 18 19  1  0
 19 20  1  0
 20 21  1  0
M  END
>  <vina_dock>  (585) 
-7.766

$$$$
O14757_PocketFlow_idx-in-all-generaetd-823
     RDKit          3D

 35 39  0  0  0  0  0  0  0  0999 V2000
    0.9730   -6.1140   44.2630 C   0  0  0  0  0  0  0  0  0  0  0  0
    1.9470   -6.7970   44.9720 C   0  0  0  0  0  0  0  0  0  0  0  0
    1.2740   -4.8070   43.8910 C   0  0  0  0  0  0  0  0  0  0  0  0
    2.5160   -4.2520   44.2360 C   0  0  0  0  0  0  0  0  0  0  0  0
    3.4420   -5.0280   44.9540 C   0  0  0  0  0  0  0  0  0  0  0  0
    3.1500   -6.2810   45.3110 N   0  0  0  0  0  0  0  0  0  0  0  0
    4.6310   -4.5360   45.2990 N   0  0  0  0  0  0  0  0  0  0  0  0
    4.9730   -3.2680   44.9570 C   0  0  0  0  0  0  0  0  0  0  0  0
    4.1020   -2.4430   44.2550 C   0  0  0  0  0  0  0  0  0  0  0  0
    2.8590   -2.9410   43.8870 C   0  0  0  0  0  0  0  0  0  0  0  0
   -0.3490   -6.7520   43.9320 C   0  0  0  0  0  0  0  0  0  0  0  0
   -0.8920   -7.6200   45.0440 C   0  0  0  0  0  0  0  0  0  0  0  0
   -0.5930   -8.7510   47.1810 C   0  0  0  0  0  0  0  0  0  0  0  0
   -0.0990   -7.9300   46.1590 C   0  0  0  0  0  0  0  0  0  0  0  0
   -1.8910   -9.2670   47.0920 C   0  0  0  0  0  0  0  0  0  0  0  0
   -2.6850   -8.9650   45.9850 C   0  0  0  0  0  0  0  0  0  0  0  0
   -2.1890   -8.1490   44.9670 C   0  0  0  0  0  0  0  0  0  0  0  0
    0.2950   -9.0480   48.3310 C   0  0  0  0  0  0  0  0  0  0  0  0
   -0.0720   -9.3460   49.4530 O   0  0  0  0  0  0  0  0  0  0  0  0
    1.6000   -8.9580   48.0230 O   0  0  0  0  0  0  0  0  0  0  0  0
    6.3150   -2.8290   45.3940 C   0  0  0  0  0  0  0  0  0  0  0  0
    6.7930   -1.5300   45.1500 C   0  0  0  0  0  0  0  0  0  0  0  0
    7.1730   -3.7180   46.0730 C   0  0  0  0  0  0  0  0  0  0  0  0
    8.0650   -1.1340   45.5730 C   0  0  0  0  0  0  0  0  0  0  0  0
    8.4540   -3.3380   46.5140 C   0  0  0  0  0  0  0  0  0  0  0  0
    8.8870   -2.0330   46.2500 C   0  0  0  0  0  0  0  0  0  0  0  0
    9.3220   -4.3010   47.2140 C   0  0  0  0  0  0  0  0  0  0  0  0
   10.0500   -5.2320   46.4440 C   0  0  0  0  0  0  0  0  0  0  0  0
    9.4730   -4.3290   48.6210 C   0  0  0  0  0  0  0  0  0  0  0  0
   10.9060   -6.1580   47.0400 C   0  0  0  0  0  0  0  0  0  0  0  0
   10.3380   -5.2700   49.2070 C   0  0  0  0  0  0  0  0  0  0  0  0
   11.0520   -6.1760   48.4220 C   0  0  0  0  0  0  0  0  0  0  0  0
    8.7320   -3.4250   49.5290 C   0  0  0  0  0  0  0  0  0  0  0  0
    7.5020   -3.7570   49.9500 C   0  0  0  0  0  0  0  0  0  0  0  0
    9.4340   -2.1700   49.9580 C   0  0  0  0  0  0  0  0  0  0  0  0
  1  3  1  0
  1 11  1  0
  1  2  2  0
  2  6  1  0
  3  4  2  0
  4 10  1  0
  4  5  1  0
  5  7  1  0
  5  6  2  0
  7  8  2  0
  8  9  1  0
  8 21  1  0
  9 10  2  0
 11 12  1  0
 12 17  2  0
 12 14  1  0
 13 14  2  0
 13 15  1  0
 13 18  1  0
 15 16  2  0
 16 17  1  0
 18 20  1  0
 18 19  2  0
 21 22  2  0
 21 23  1  0
 22 24  1  0
 23 25  2  0
 24 26  2  0
 25 26  1  0
 25 27  1  0
 27 28  2  0
 27 29  1  0
 28 30  1  0
 29 31  2  0
 29 33  1  0
 30 32  2  0
 31 32  1  0
 33 34  2  0
 33 35  1  0
M  END
>  <vina_dock>  (586) 
-9.339

$$$$
O14757_PocketFlow_idx-in-all-generaetd-7
     RDKit          3D

  5  4  0  0  0  0  0  0  0  0999 V2000
    6.6740   -1.3490   44.2690 F   0  0  0  0  0  0  0  0  0  0  0  0
    5.3930   -1.1340   43.9260 C   0  0  0  0  0  0  0  0  0  0  0  0
    5.3130   -0.0300   43.1630 F   0  0  0  0  0  0  0  0  0  0  0  0
    4.6530   -0.9660   45.0360 F   0  0  0  0  0  0  0  0  0  0  0  0
    4.9300   -2.1900   43.2350 F   0  0  0  0  0  0  0  0  0  0  0  0
  1  2  1  0
  2  3  1  0
  2  5  1  0
  2  4  1  0
M  END
>  <vina_dock>  (587) 
-3.003

$$$$
O14757_PocketFlow_idx-in-all-generaetd-169
     RDKit          3D

 21 23  0  0  0  0  0  0  0  0999 V2000
    1.5310   -4.5530   45.5180 C   0  0  0  0  0  0  0  0  0  0  0  0
    0.8110   -5.6730   45.3380 C   0  0  0  0  0  0  0  0  0  0  0  0
    2.0000   -3.6570   44.4550 C   0  0  0  0  0  0  0  0  0  0  0  0
    4.9390   -1.4520   43.4890 C   0  0  0  0  0  0  0  0  0  0  0  0
    3.6340   -2.1680   43.4550 C   0  0  0  0  0  0  0  0  0  0  0  0
    5.8470   -1.8800   44.4060 O   0  0  0  0  0  0  0  0  0  0  0  0
    5.1720   -0.5130   42.7400 O   0  0  0  0  0  0  0  0  0  0  0  0
    2.7550   -1.9120   42.3950 C   0  0  0  0  0  0  0  0  0  0  0  0
    3.2690   -3.0520   44.4850 C   0  0  0  0  0  0  0  0  0  0  0  0
    5.6500   -3.1480   45.0490 C   0  0  0  0  0  0  0  0  0  0  0  0
    1.5070   -2.5300   42.3580 C   0  0  0  0  0  0  0  0  0  0  0  0
    4.2460   -3.2630   45.6100 C   0  0  0  0  0  0  0  0  0  0  0  0
    1.1320   -3.3960   43.3850 C   0  0  0  0  0  0  0  0  0  0  0  0
    0.3680   -6.2100   44.0670 C   0  0  0  0  0  0  0  0  0  0  0  0
   -0.5770   -7.1470   43.8900 C   0  0  0  0  0  0  0  0  0  0  0  0
   -1.3340   -7.8170   44.9500 C   0  0  0  0  0  0  0  0  0  0  0  0
   -0.6750   -8.3750   46.0510 C   0  0  0  0  0  0  0  0  0  0  0  0
   -2.7270   -7.9040   44.8630 C   0  0  0  0  0  0  0  0  0  0  0  0
   -1.4050   -9.0110   47.0570 C   0  0  0  0  0  0  0  0  0  0  0  0
   -3.4540   -8.5410   45.8700 C   0  0  0  0  0  0  0  0  0  0  0  0
   -2.7930   -9.0930   46.9660 C   0  0  0  0  0  0  0  0  0  0  0  0
  1  3  1  0
  1  2  2  3
  2 14  1  0
  3 13  1  0
  3  9  2  0
  4  7  2  0
  4  5  1  0
  4  6  1  0
  5  8  2  0
  5  9  1  0
  6 10  1  0
  8 11  1  0
  9 12  1  0
 10 12  1  0
 11 13  2  0
 14 15  2  3
 15 16  1  0
 16 18  1  0
 16 17  2  0
 17 19  1  0
 18 20  2  0
 19 21  2  0
 20 21  1  0
M  END
>  <vina_dock>  (588) 
-8.878

$$$$
O14757_PocketFlow_idx-in-all-generaetd-871
     RDKit          3D

 15 16  0  0  0  0  0  0  0  0999 V2000
    0.7360   -5.4330   44.8280 C   0  0  0  0  0  0  0  0  0  0  0  0
    0.0500   -6.3620   44.1410 C   0  0  0  0  0  0  0  0  0  0  0  0
    0.7030   -5.4940   46.1830 F   0  0  0  0  0  0  0  0  0  0  0  0
    1.5360   -4.3330   44.2480 C   0  0  0  0  0  0  0  0  0  0  0  0
    5.2330   -0.9530   43.3200 C   0  0  0  0  0  0  0  0  0  0  0  0
    5.6700   -1.7160   44.3980 C   0  0  0  0  0  0  0  0  0  0  0  0
    3.9910   -1.2150   42.7390 C   0  0  0  0  0  0  0  0  0  0  0  0
    4.8670   -2.7420   44.8980 C   0  0  0  0  0  0  0  0  0  0  0  0
    3.1720   -2.2450   43.2310 C   0  0  0  0  0  0  0  0  0  0  0  0
    3.6140   -3.0180   44.3250 C   0  0  0  0  0  0  0  0  0  0  0  0
    1.9220   -2.5230   42.6620 C   0  0  0  0  0  0  0  0  0  0  0  0
    2.7900   -4.0490   44.8160 C   0  0  0  0  0  0  0  0  0  0  0  0
    1.1160   -3.5520   43.1630 C   0  0  0  0  0  0  0  0  0  0  0  0
   -0.7130   -7.4140   44.7780 C   0  0  0  0  0  0  0  0  0  0  0  0
   -1.8970   -7.8400   44.3240 C   0  0  0  0  0  0  0  0  0  0  0  0
  1  2  2  3
  1  4  1  0
  1  3  1  0
  2 14  1  0
  4 13  2  0
  4 12  1  0
  5  7  2  0
  5  6  1  0
  6  8  2  0
  7  9  1  0
  8 10  1  0
  9 11  2  0
  9 10  1  0
 10 12  2  0
 11 13  1  0
 14 15  2  0
M  END
>  <vina_dock>  (589) 
-7.981

$$$$
O14757_PocketFlow_idx-in-all-generaetd-278
     RDKit          3D

 35 39  0  0  0  0  0  0  0  0999 V2000
    0.7230   -2.6090   42.2980 C   0  0  0  0  0  0  0  0  0  0  0  0
    1.9010   -1.8880   42.1560 C   0  0  0  0  0  0  0  0  0  0  0  0
    3.0140   -2.2190   42.9330 C   0  0  0  0  0  0  0  0  0  0  0  0
    2.9960   -3.2750   43.8780 C   0  0  0  0  0  0  0  0  0  0  0  0
    4.1310   -3.6130   44.6830 C   0  0  0  0  0  0  0  0  0  0  0  0
    4.0460   -4.7080   45.5610 C   0  0  0  0  0  0  0  0  0  0  0  0
    2.8660   -5.4360   45.6830 C   0  0  0  0  0  0  0  0  0  0  0  0
    1.7320   -5.1080   44.9280 C   0  0  0  0  0  0  0  0  0  0  0  0
    1.7900   -4.0240   44.0110 C   0  0  0  0  0  0  0  0  0  0  0  0
    0.6750   -3.6630   43.2140 C   0  0  0  0  0  0  0  0  0  0  0  0
    5.3870   -5.2350   46.5230 Cl  0  0  0  0  0  0  0  0  0  0  0  0
   -0.4910   -2.3030   41.5020 C   0  0  0  0  0  0  0  0  0  0  0  0
   -1.0080   -1.2080   41.3820 O   0  0  0  0  0  0  0  0  0  0  0  0
   -1.0030   -3.3860   40.8940 O   0  0  0  0  0  0  0  0  0  0  0  0
    0.5240   -5.9270   45.1210 C   0  0  0  0  0  0  0  0  0  0  0  0
    0.0100   -6.7020   44.0690 C   0  0  0  0  0  0  0  0  0  0  0  0
   -0.1420   -5.9410   46.3570 C   0  0  0  0  0  0  0  0  0  0  0  0
   -1.1390   -7.4780   44.2500 C   0  0  0  0  0  0  0  0  0  0  0  0
   -1.2920   -6.7170   46.5410 C   0  0  0  0  0  0  0  0  0  0  0  0
   -1.7940   -7.4870   45.4880 C   0  0  0  0  0  0  0  0  0  0  0  0
   -3.0090   -8.3250   45.6330 C   0  0  0  0  0  0  0  0  0  0  0  0
   -3.4810   -9.0510   44.7780 O   0  0  0  0  0  0  0  0  0  0  0  0
   -3.5790   -8.2120   46.8450 O   0  0  0  0  0  0  0  0  0  0  0  0
    5.4270   -2.8250   44.5800 C   0  0  0  0  0  0  0  0  0  0  0  0
    5.8140   -2.1920   45.9180 C   0  0  0  0  0  0  0  0  0  0  0  0
    7.3090   -2.2110   46.1030 C   0  0  0  0  0  0  0  0  0  0  0  0
    8.0470   -1.0380   46.0160 C   0  0  0  0  0  0  0  0  0  0  0  0
    7.8790   -3.4220   46.3170 N   0  0  0  0  0  0  0  0  0  0  0  0
    9.4270   -1.1090   46.1710 C   0  0  0  0  0  0  0  0  0  0  0  0
    9.2140   -3.4890   46.4670 C   0  0  0  0  0  0  0  0  0  0  0  0
   10.0380   -2.3480   46.4010 C   0  0  0  0  0  0  0  0  0  0  0  0
    9.8160   -4.7200   46.6940 C   0  0  0  0  0  0  0  0  0  0  0  0
   11.4300   -2.4670   46.5630 C   0  0  0  0  0  0  0  0  0  0  0  0
   11.1990   -4.8430   46.8550 C   0  0  0  0  0  0  0  0  0  0  0  0
   12.0080   -3.7140   46.7890 C   0  0  0  0  0  0  0  0  0  0  0  0
  1 12  1  0
  1  2  2  0
  1 10  1  0
  2  3  1  0
  3  4  2  0
  4  9  1  0
  4  5  1  0
  5 24  1  0
  5  6  2  0
  6  7  1  0
  6 11  1  0
  7  8  2  0
  8  9  1  0
  8 15  1  0
  9 10  2  0
 12 14  1  0
 12 13  2  0
 15 16  2  0
 15 17  1  0
 16 18  1  0
 17 19  2  0
 18 20  2  0
 19 20  1  0
 20 21  1  0
 21 22  2  0
 21 23  1  0
 24 25  1  0
 25 26  1  0
 26 27  2  0
 26 28  1  0
 27 29  1  0
 28 30  2  0
 29 31  2  0
 30 31  1  0
 30 32  1  0
 31 33  1  0
 32 34  2  0
 33 35  2  0
 34 35  1  0
M  END
>  <vina_dock>  (590) 
-10.17

$$$$
O14757_PocketFlow_idx-in-all-generaetd-763
     RDKit          3D

 35 38  0  0  0  0  0  0  0  0999 V2000
    2.8330   -9.4110   47.0120 C   0  0  2  0  0  0  0  0  0  0  0  0
    1.5040   -9.9420   46.4770 C   0  0  0  0  0  0  0  0  0  0  0  0
    0.4660   -8.9590   46.5600 O   0  0  0  0  0  0  0  0  0  0  0  0
    0.8100   -7.7180   46.0960 C   0  0  0  0  0  0  0  0  0  0  0  0
    2.1290   -7.3140   45.8680 C   0  0  0  0  0  0  0  0  0  0  0  0
    2.3740   -6.0230   45.3760 C   0  0  0  0  0  0  0  0  0  0  0  0
    1.3190   -5.1300   45.1440 C   0  0  0  0  0  0  0  0  0  0  0  0
   -0.2440   -6.8320   45.8800 C   0  0  0  0  0  0  0  0  0  0  0  0
    0.0070   -5.5450   45.4060 C   0  0  0  0  0  0  0  0  0  0  0  0
    3.2760   -8.2540   46.1120 C   0  0  0  0  0  0  0  0  0  0  0  0
    3.9130  -10.4950   47.1780 C   0  0  0  0  0  0  0  0  0  0  0  0
    4.8260  -10.3420   48.4020 C   0  0  0  0  0  0  0  0  0  0  0  0
    5.6910   -9.1090   48.4400 C   0  0  0  0  0  0  0  0  0  0  0  0
    5.3910   -7.9250   48.9950 C   0  0  0  0  0  0  0  0  0  0  0  0
    6.3410   -6.7840   48.9440 C   0  0  0  0  0  0  0  0  0  0  0  0
    7.4580   -6.8220   48.2920 N   0  0  0  0  0  0  0  0  0  0  0  0
    6.0800   -5.6410   49.6310 N   0  0  0  0  0  0  0  0  0  0  0  0
    1.5880   -3.7540   44.5780 C   0  0  0  0  0  0  0  0  0  0  0  0
    2.5790   -3.7620   43.4070 C   0  0  0  0  0  0  0  0  0  0  0  0
    3.6450   -2.6930   43.5200 C   0  0  0  0  0  0  0  0  0  0  0  0
    4.6730   -2.8480   44.4690 C   0  0  0  0  0  0  0  0  0  0  0  0
    3.6680   -1.5820   42.6660 C   0  0  0  0  0  0  0  0  0  0  0  0
    5.7150   -1.9160   44.5900 C   0  0  0  0  0  0  0  0  0  0  0  0
    4.6720   -0.6220   42.8050 C   0  0  0  0  0  0  0  0  0  0  0  0
    5.6890   -0.7930   43.7510 C   0  0  0  0  0  0  0  0  0  0  0  0
    2.6470   -1.4720   41.7590 O   0  0  0  0  0  0  0  0  0  0  0  0
    1.6920   -0.4380   42.0110 C   0  0  0  0  0  0  0  0  0  0  0  0
    0.2930   -0.8430   41.6350 C   0  0  0  0  0  0  0  0  0  0  0  0
   -0.1810   -2.0940   41.5410 C   0  0  0  0  0  0  0  0  0  0  0  0
    6.8050   -2.1220   45.5580 C   0  0  0  0  0  0  0  0  0  0  0  0
    6.7920   -3.2110   46.4460 C   0  0  0  0  0  0  0  0  0  0  0  0
    7.8900   -1.2310   45.6230 C   0  0  0  0  0  0  0  0  0  0  0  0
    7.8280   -3.4010   47.3660 C   0  0  0  0  0  0  0  0  0  0  0  0
    8.9230   -1.4190   46.5430 C   0  0  0  0  0  0  0  0  0  0  0  0
    8.8920   -2.5040   47.4140 C   0  0  0  0  0  0  0  0  0  0  0  0
  1 10  1  0
  1  2  1  0
  1 11  1  6
  2  3  1  0
  3  4  1  0
  4  5  2  0
  4  8  1  0
  5  6  1  0
  5 10  1  0
  6  7  2  0
  7 18  1  0
  7  9  1  0
  8  9  2  0
 11 12  1  0
 12 13  1  0
 13 14  2  3
 14 15  1  0
 15 16  2  3
 15 17  1  0
 18 19  1  0
 19 20  1  0
 20 22  1  0
 20 21  2  0
 21 23  1  0
 22 26  1  0
 22 24  2  0
 23 25  2  0
 23 30  1  0
 24 25  1  0
 26 27  1  0
 27 28  1  0
 28 29  2  0
 30 32  1  0
 30 31  2  0
 31 33  1  0
 32 34  2  0
 33 35  2  0
 34 35  1  0
M  END
>  <vina_dock>  (591) 
-8.037

$$$$
O14757_PocketFlow_idx-in-all-generaetd-450
     RDKit          3D

 22 25  0  0  0  0  0  0  0  0999 V2000
    7.7920   -3.1770   46.4910 C   0  0  0  0  0  0  0  0  0  0  0  0
    8.2630   -2.1120   46.8540 O   0  0  0  0  0  0  0  0  0  0  0  0
    6.4690   -3.4240   45.7720 C   0  0  2  0  0  0  0  0  0  0  0  0
    6.1520   -2.2070   44.8910 C   0  0  0  0  0  0  0  0  0  0  0  0
    5.3580   -3.6840   46.7580 C   0  0  0  0  0  0  0  0  0  0  0  0
    4.8610   -2.1210   44.0770 C   0  0  0  0  0  0  0  0  0  0  0  0
    4.1410   -4.0710   46.3410 C   0  0  0  0  0  0  0  0  0  0  0  0
    4.7510   -0.9470   43.3030 C   0  0  0  0  0  0  0  0  0  0  0  0
    3.7980   -3.0640   44.0490 C   0  0  0  0  0  0  0  0  0  0  0  0
    3.8310   -4.3470   44.8880 C   0  0  2  0  0  0  0  0  0  0  0  0
    3.6270   -0.6800   42.5320 C   0  0  0  0  0  0  0  0  0  0  0  0
    2.6770   -2.8000   43.2120 C   0  0  0  0  0  0  0  0  0  0  0  0
    2.6920   -5.2690   44.7930 N   0  0  0  0  0  0  0  0  0  0  0  0
    2.5740   -1.5910   42.4880 C   0  0  0  0  0  0  0  0  0  0  0  0
    1.6090   -3.8710   43.0470 C   0  0  0  0  0  0  0  0  0  0  0  0
    1.4400   -4.6830   44.3450 C   0  0  2  0  0  0  0  0  0  0  0  0
    1.3390   -1.2320   41.6850 C   0  0  0  0  0  0  0  0  0  0  0  0
    0.3020   -3.3710   42.4730 C   0  0  0  0  0  0  0  0  0  0  0  0
    0.7280   -3.7710   45.6990 Cl  0  0  0  0  0  0  0  0  0  0  0  0
    0.1950   -2.1890   41.8500 C   0  0  0  0  0  0  0  0  0  0  0  0
    1.6170   -1.1010   40.3560 F   0  0  0  0  0  0  0  0  0  0  0  0
    8.4750   -4.3220   46.7150 O   0  0  0  0  0  0  0  0  0  0  0  0
  3  1  1  1
  1 22  1  0
  1  2  2  0
  3  4  1  0
  3  5  1  0
  4  6  1  0
  5  7  2  0
  6  8  2  0
  6  9  1  0
  7 10  1  0
  8 11  1  0
  9 12  2  0
  9 10  1  0
 10 13  1  1
 11 14  2  0
 12 14  1  0
 12 15  1  0
 13 16  1  0
 14 17  1  0
 15 18  2  0
 15 16  1  0
 16 19  1  1
 17 21  1  0
 17 20  2  0
 18 20  1  0
M  END
>  <vina_dock>  (592) 
-9.371

$$$$
O14757_PocketFlow_idx-in-all-generaetd-653
     RDKit          3D

 11 11  0  0  0  0  0  0  0  0999 V2000
    0.1150   -2.9030   41.6460 Br  0  0  0  0  0  0  0  0  0  0  0  0
    1.6940   -2.7740   42.6780 C   0  0  0  0  0  0  0  0  0  0  0  0
    1.8750   -3.6220   43.7700 C   0  0  0  0  0  0  0  0  0  0  0  0
    3.0440   -3.5390   44.5390 C   0  0  0  0  0  0  0  0  0  0  0  0
    4.0230   -2.5940   44.1870 C   0  0  0  0  0  0  0  0  0  0  0  0
    3.8390   -1.7330   43.0960 C   0  0  0  0  0  0  0  0  0  0  0  0
    2.6680   -1.8360   42.3360 C   0  0  0  0  0  0  0  0  0  0  0  0
    3.2610   -4.4560   45.7150 C   0  0  0  0  0  0  0  0  0  0  0  0
    2.0090   -5.0740   46.1340 N   0  0  0  0  0  0  0  0  0  0  0  0
    4.9100   -0.7490   42.7090 C   0  0  0  0  0  0  0  0  0  0  0  0
    5.3020    0.0240   43.8340 O   0  0  0  0  0  0  0  0  0  0  0  0
  1  2  1  0
  2  7  2  0
  2  3  1  0
  3  4  2  0
  4  5  1  0
  4  8  1  0
  5  6  2  0
  6  7  1  0
  6 10  1  0
  8  9  1  0
 10 11  1  0
M  END
>  <vina_dock>  (593) 
-5.677

$$$$
O14757_PocketFlow_idx-in-all-generaetd-87
     RDKit          3D

 13 12  0  0  0  0  0  0  0  0999 V2000
    4.0780   -3.9090   44.2340 C   0  0  0  0  0  0  0  0  0  0  0  0
    4.6550   -2.5100   44.0430 C   0  0  0  0  0  0  0  0  0  0  0  0
    4.3980   -1.7290   42.9710 C   0  0  0  0  0  0  0  0  0  0  0  0
    4.9380   -0.3610   42.6860 C   0  0  0  0  0  0  0  0  0  0  0  0
    3.8400    0.5930   42.6470 N   0  0  0  0  0  0  0  0  0  0  0  0
    5.5660   -2.0770   45.1710 C   0  0  0  0  0  0  0  0  0  0  0  0
    4.9130   -1.0710   45.9950 N   0  0  0  0  0  0  0  0  0  0  0  0
    2.8870   -4.0600   45.1940 C   0  0  0  0  0  0  0  0  0  0  0  0
    1.5810   -4.4090   44.4700 C   0  0  0  0  0  0  0  0  0  0  0  0
    1.0230   -3.2610   43.6770 C   0  0  0  0  0  0  0  0  0  0  0  0
    0.7330   -3.3320   42.3680 C   0  0  0  0  0  0  0  0  0  0  0  0
    0.1970   -2.2170   41.6250 C   0  0  0  0  0  0  0  0  0  0  0  0
    0.8050   -1.0280   41.5550 C   0  0  0  0  0  0  0  0  0  0  0  0
  1  2  1  0
  1  8  1  0
  2  3  2  3
  2  6  1  0
  3  4  1  0
  4  5  1  0
  6  7  1  0
  8  9  1  0
  9 10  1  0
 10 11  2  3
 11 12  1  0
 12 13  2  0
M  END
>  <vina_dock>  (594) 
-5.588

$$$$
O14757_PocketFlow_idx-in-all-generaetd-980
     RDKit          3D

 35 40  0  0  0  0  0  0  0  0999 V2000
    0.7420   -6.3720   44.8610 C   0  0  0  0  0  0  0  0  0  0  0  0
   -0.6120   -6.7530   44.8590 C   0  0  0  0  0  0  0  0  0  0  0  0
   -1.0430   -7.9340   45.4810 C   0  0  0  0  0  0  0  0  0  0  0  0
   -0.0990   -8.7650   46.0960 C   0  0  0  0  0  0  0  0  0  0  0  0
    1.2530   -8.4060   46.1110 C   0  0  0  0  0  0  0  0  0  0  0  0
    1.6660   -7.2160   45.4980 C   0  0  0  0  0  0  0  0  0  0  0  0
   -2.4900   -8.3290   45.4380 C   0  0  0  0  0  0  0  0  0  0  0  0
    1.1780   -5.1250   44.2100 C   0  0  0  0  0  0  0  0  0  0  0  0
    2.8660   -3.3580   43.9030 C   0  0  0  0  0  0  0  0  0  0  0  0
    2.4270   -4.5480   44.5120 C   0  0  0  0  0  0  0  0  0  0  0  0
    2.0220   -2.7440   42.9660 C   0  0  0  0  0  0  0  0  0  0  0  0
    0.7810   -3.2980   42.6500 C   0  0  0  0  0  0  0  0  0  0  0  0
    0.3650   -4.4780   43.2680 C   0  0  0  0  0  0  0  0  0  0  0  0
    4.1750   -2.7750   44.2390 C   0  0  0  0  0  0  0  0  0  0  0  0
   10.8650   -1.7680   47.4760 C   0  0  0  0  0  0  0  0  0  0  0  0
   10.4120   -2.9380   48.1010 C   0  0  0  0  0  0  0  0  0  0  0  0
   10.0370   -1.1660   46.5160 C   0  0  0  0  0  0  0  0  0  0  0  0
    9.1690   -3.4910   47.7820 C   0  0  0  0  0  0  0  0  0  0  0  0
    8.7810   -1.7110   46.1820 C   0  0  0  0  0  0  0  0  0  0  0  0
    8.3430   -2.8870   46.8240 C   0  0  0  0  0  0  0  0  0  0  0  0
    7.9510   -1.1090   45.2220 C   0  0  0  0  0  0  0  0  0  0  0  0
    7.0920   -3.4320   46.4920 C   0  0  0  0  0  0  0  0  0  0  0  0
    6.6990   -1.6530   44.8890 C   0  0  0  0  0  0  0  0  0  0  0  0
    6.2640   -2.8280   45.5320 C   0  0  0  0  0  0  0  0  0  0  0  0
    5.8700   -1.0510   43.9320 C   0  0  0  0  0  0  0  0  0  0  0  0
    5.0100   -3.3730   45.1980 C   0  0  0  0  0  0  0  0  0  0  0  0
    4.6260   -1.6040   43.6130 C   0  0  0  0  0  0  0  0  0  0  0  0
   12.1750   -1.2270   47.8450 C   0  0  0  0  0  0  0  0  0  0  0  0
   13.2920   -1.9100   48.0250 N   0  0  0  0  0  0  0  0  0  0  0  0
   12.4540    0.0960   48.0750 N   0  0  0  0  0  0  0  0  0  0  0  0
   14.2120   -0.9570   48.3540 C   0  0  0  0  0  0  0  0  0  0  0  0
   13.7450    0.2890   48.3970 N   0  0  0  0  0  0  0  0  0  0  0  0
    2.2840   -9.2540   46.7580 C   0  0  0  0  0  0  0  0  0  0  0  0
    3.1760   -9.8540   46.1880 O   0  0  0  0  0  0  0  0  0  0  0  0
    2.1490   -9.3140   48.0950 O   0  0  0  0  0  0  0  0  0  0  0  0
  1  8  1  0
  1  2  2  0
  1  6  1  0
  2  3  1  0
  3  7  1  0
  3  4  2  0
  4  5  1  0
  5  6  2  0
  5 33  1  0
  8 13  1  0
  8 10  2  0
  9 11  2  0
  9 14  1  0
  9 10  1  0
 11 12  1  0
 12 13  2  0
 14 27  1  0
 14 26  2  0
 15 17  1  0
 15 28  1  0
 15 16  2  0
 16 18  1  0
 17 19  2  0
 18 20  2  0
 19 21  1  0
 19 20  1  0
 20 22  1  0
 21 23  2  0
 22 24  2  0
 23 25  1  0
 23 24  1  0
 24 26  1  0
 25 27  2  0
 28 29  2  0
 28 30  1  0
 29 31  1  0
 30 32  1  0
 31 32  2  0
 33 34  2  0
 33 35  1  0
M  END
>  <vina_dock>  (595) 
-11.252

$$$$
O14757_PocketFlow_idx-in-all-generaetd-601
     RDKit          3D

 31 33  0  0  0  0  0  0  0  0999 V2000
    8.6810   -7.2100   49.1450 C   0  0  0  0  0  0  0  0  0  0  0  0
    9.5690   -6.9950   48.1470 C   0  0  0  0  0  0  0  0  0  0  0  0
    7.5750   -6.2300   49.5340 C   0  0  0  0  0  0  0  0  0  0  0  0
    6.4180   -6.1390   48.5220 C   0  0  0  0  0  0  0  0  0  0  0  0
    5.7790   -4.7370   48.5020 C   0  0  0  0  0  0  0  0  0  0  0  0
    4.9200   -4.5070   47.2440 C   0  0  0  0  0  0  0  0  0  0  0  0
    4.8460   -3.0270   46.8040 C   0  0  0  0  0  0  0  0  0  0  0  0
    5.7280   -2.5600   45.6050 C   0  0  1  0  0  0  0  0  0  0  0  0
    7.2200   -2.4520   45.8880 C   0  0  0  0  0  0  0  0  0  0  0  0
    7.8990   -1.2390   45.7400 C   0  0  0  0  0  0  0  0  0  0  0  0
    9.2490   -1.1330   46.0930 C   0  0  0  0  0  0  0  0  0  0  0  0
    9.9300   -2.2260   46.6370 C   0  0  0  0  0  0  0  0  0  0  0  0
    9.2830   -3.4530   46.7860 C   0  0  0  0  0  0  0  0  0  0  0  0
    7.9540   -3.5540   46.3360 C   0  0  0  0  0  0  0  0  0  0  0  0
    9.8640   -4.5710   47.5800 C   0  0  2  0  0  0  0  0  0  0  0  0
    9.5430   -5.8440   47.2660 C   0  0  0  0  0  0  0  0  0  0  0  0
    8.7880   -8.4650   49.9940 C   0  0  0  0  0  0  0  0  0  0  0  0
    8.3840   -9.7610   49.2710 C   0  0  0  0  0  0  0  0  0  0  0  0
    7.0330   -9.7150   48.7170 N   0  0  0  0  0  0  0  0  0  0  0  0
   10.5800   -4.2620   48.8470 C   0  0  0  0  0  0  0  0  0  0  0  0
   10.0900   -3.7820   49.8550 O   0  0  0  0  0  0  0  0  0  0  0  0
   11.9060   -4.4870   48.7680 O   0  0  0  0  0  0  0  0  0  0  0  0
    5.4590   -3.4030   44.3670 C   0  0  0  0  0  0  0  0  0  0  0  0
    4.7100   -3.1160   43.3560 N   0  0  0  0  0  0  0  0  0  0  0  0
    4.0150   -1.8320   43.3170 C   0  0  0  0  0  0  0  0  0  0  0  0
    2.6270   -1.9670   42.7350 C   0  0  0  0  0  0  0  0  0  0  0  0
    1.8140   -3.0540   43.0900 C   0  0  0  0  0  0  0  0  0  0  0  0
    2.1410   -1.0340   41.8080 C   0  0  0  0  0  0  0  0  0  0  0  0
    0.5420   -3.2010   42.5360 C   0  0  0  0  0  0  0  0  0  0  0  0
    0.8670   -1.1820   41.2550 C   0  0  0  0  0  0  0  0  0  0  0  0
    0.0680   -2.2650   41.6180 C   0  0  0  0  0  0  0  0  0  0  0  0
  1  2  2  3
  1  3  1  0
  1 17  1  0
  2 16  1  0
  3  4  1  0
  4  5  1  0
  5  6  1  0
  6  7  1  0
  8  7  1  1
  8 23  1  0
  8  9  1  0
  9 10  1  0
  9 14  2  0
 10 11  2  0
 11 12  1  0
 12 13  2  0
 13 14  1  0
 13 15  1  0
 15 16  1  0
 15 20  1  1
 17 18  1  0
 18 19  1  0
 20 22  1  0
 20 21  2  0
 23 24  2  3
 24 25  1  0
 25 26  1  0
 26 28  1  0
 26 27  2  0
 27 29  1  0
 28 30  2  0
 29 31  2  0
 30 31  1  0
M  END
>  <vina_dock>  (596) 
-7.37

$$$$
O14757_PocketFlow_idx-in-all-generaetd-389
     RDKit          3D

 33 37  0  0  0  0  0  0  0  0999 V2000
    3.6810   -2.0920   43.4960 C   0  0  0  0  0  0  0  0  0  0  0  0
    4.8660   -1.4060   43.1700 C   0  0  0  0  0  0  0  0  0  0  0  0
    3.7120   -2.9130   44.6410 C   0  0  0  0  0  0  0  0  0  0  0  0
    4.8660   -3.0530   45.4370 C   0  0  0  0  0  0  0  0  0  0  0  0
    6.0340   -2.3480   45.0850 C   0  0  0  0  0  0  0  0  0  0  0  0
    6.0230   -1.5310   43.9490 C   0  0  0  0  0  0  0  0  0  0  0  0
    4.8770   -3.8820   46.5720 C   0  0  0  0  0  0  0  0  0  0  0  0
    6.0270   -4.0280   47.3660 C   0  0  0  0  0  0  0  0  0  0  0  0
    7.1620   -3.2820   47.0260 C   0  0  0  0  0  0  0  0  0  0  0  0
    7.1800   -2.4750   45.8840 C   0  0  0  0  0  0  0  0  0  0  0  0
    2.4570   -1.9560   42.6760 C   0  0  0  0  0  0  0  0  0  0  0  0
    2.2770   -0.8140   42.0070 N   0  0  0  0  0  0  0  0  0  0  0  0
    1.6020   -2.9850   42.6610 N   0  0  0  0  0  0  0  0  0  0  0  0
    1.1550   -0.7670   41.2970 C   0  0  0  0  0  0  0  0  0  0  0  0
    0.5260   -2.8200   41.9040 C   0  0  0  0  0  0  0  0  0  0  0  0
    0.2400   -1.7290   41.2130 N   0  0  0  0  0  0  0  0  0  0  0  0
   -0.3880   -3.8540   41.8650 N   0  0  0  0  0  0  0  0  0  0  0  0
    6.0000   -4.9060   48.5880 C   0  0  0  0  0  0  0  0  0  0  0  0
    6.0000   -4.1270   49.7800 O   0  0  0  0  0  0  0  0  0  0  0  0
    8.2990   -3.3950   47.7930 O   0  0  0  0  0  0  0  0  0  0  0  0
    9.3850   -4.0360   47.2360 C   0  0  0  0  0  0  0  0  0  0  0  0
   10.4590   -3.3860   46.6210 C   0  0  0  0  0  0  0  0  0  0  0  0
    9.3940   -5.4310   47.3660 C   0  0  0  0  0  0  0  0  0  0  0  0
   11.5210   -4.1360   46.1190 C   0  0  0  0  0  0  0  0  0  0  0  0
   10.4580   -6.2080   46.8680 C   0  0  0  0  0  0  0  0  0  0  0  0
   11.5130   -5.5250   46.2420 C   0  0  0  0  0  0  0  0  0  0  0  0
   12.5630   -6.2020   45.7540 F   0  0  0  0  0  0  0  0  0  0  0  0
   10.4530   -7.6760   47.0120 C   0  0  0  0  0  0  0  0  0  0  0  0
    9.7450   -8.4980   46.1180 C   0  0  0  0  0  0  0  0  0  0  0  0
   11.1580   -8.3030   48.0560 C   0  0  0  0  0  0  0  0  0  0  0  0
    9.7400   -9.8920   46.2580 C   0  0  0  0  0  0  0  0  0  0  0  0
   11.1520   -9.6960   48.1990 C   0  0  0  0  0  0  0  0  0  0  0  0
   10.4430  -10.4900   47.2990 C   0  0  0  0  0  0  0  0  0  0  0  0
  1 11  1  0
  1  2  2  0
  1  3  1  0
  2  6  1  0
  3  4  2  0
  4  5  1  0
  4  7  1  0
  5  6  2  0
  5 10  1  0
  7  8  2  0
  8  9  1  0
  8 18  1  0
  9 10  2  0
  9 20  1  0
 11 12  2  0
 11 13  1  0
 12 14  1  0
 13 15  2  0
 14 16  2  0
 15 16  1  0
 15 17  1  0
 18 19  1  0
 20 21  1  0
 21 22  2  0
 21 23  1  0
 22 24  1  0
 23 25  2  0
 24 26  2  0
 25 26  1  0
 25 28  1  0
 26 27  1  0
 28 29  2  0
 28 30  1  0
 29 31  1  0
 30 32  2  0
 31 33  2  0
 32 33  1  0
M  END
>  <vina_dock>  (597) 
-8.565

$$$$
O14757_PocketFlow_idx-in-all-generaetd-331
     RDKit          3D

 10  9  0  0  0  0  0  0  0  0999 V2000
    1.8640   -3.0070   43.0890 C   0  0  0  0  0  0  0  0  0  0  0  0
    0.4200   -3.3780   42.7420 C   0  0  1  0  0  0  0  0  0  0  0  0
    0.1800   -3.3460   41.2380 C   0  0  0  0  0  0  0  0  0  0  0  0
    0.1220   -4.6860   43.2240 O   0  0  0  0  0  0  0  0  0  0  0  0
    2.3650   -3.7570   44.3270 C   0  0  0  0  0  0  0  0  0  0  0  0
    3.8220   -4.1090   44.1900 C   0  0  0  0  0  0  0  0  0  0  0  0
    4.8940   -3.3600   44.4930 C   0  0  0  0  0  0  0  0  0  0  0  0
    4.8780   -2.0280   45.0530 C   0  0  0  0  0  0  0  0  0  0  0  0
    4.8860   -0.8740   44.3670 C   0  0  0  0  0  0  0  0  0  0  0  0
    4.9070   -0.6630   42.8870 C   0  0  0  0  0  0  0  0  0  0  0  0
  1  2  1  0
  1  5  1  0
  2  3  1  6
  2  4  1  0
  5  6  1  0
  6  7  2  3
  7  8  1  0
  8  9  2  3
  9 10  1  0
M  END
>  <vina_dock>  (598) 
-5.024

$$$$
O14757_PocketFlow_idx-in-all-generaetd-50
     RDKit          3D

 19 21  0  0  0  0  0  0  0  0999 V2000
    2.5240   -2.3210   42.8440 C   0  0  0  0  0  0  0  0  0  0  0  0
    2.1520   -1.5750   41.7140 C   0  0  0  0  0  0  0  0  0  0  0  0
    0.9140   -1.7720   41.0930 C   0  0  0  0  0  0  0  0  0  0  0  0
    0.0220   -2.7250   41.5890 C   0  0  0  0  0  0  0  0  0  0  0  0
    1.6130   -3.2700   43.3340 C   0  0  0  0  0  0  0  0  0  0  0  0
    0.3740   -3.4700   42.7160 C   0  0  0  0  0  0  0  0  0  0  0  0
    3.8270   -2.1130   43.4950 C   0  0  0  0  0  0  0  0  0  0  0  0
    8.0380   -2.4330   46.3380 C   0  0  0  0  0  0  0  0  0  0  0  0
    7.2550   -3.5320   46.6810 C   0  0  0  0  0  0  0  0  0  0  0  0
    7.5840   -1.5280   45.3780 C   0  0  0  0  0  0  0  0  0  0  0  0
    6.0200   -3.7280   46.0650 C   0  0  0  0  0  0  0  0  0  0  0  0
    6.3410   -1.7130   44.7480 C   0  0  0  0  0  0  0  0  0  0  0  0
    5.5490   -2.8280   45.0950 C   0  0  0  0  0  0  0  0  0  0  0  0
    5.8700   -0.8120   43.7820 C   0  0  0  0  0  0  0  0  0  0  0  0
    4.3050   -3.0110   44.4640 C   0  0  0  0  0  0  0  0  0  0  0  0
    4.6300   -1.0110   43.1660 C   0  0  0  0  0  0  0  0  0  0  0  0
   -1.2850   -2.9340   40.9610 C   0  0  0  0  0  0  0  0  0  0  0  0
   -2.2500   -2.0090   40.8440 C   0  0  0  0  0  0  0  0  0  0  0  0
   -2.2000   -0.5800   41.2850 C   0  0  0  0  0  0  0  0  0  0  0  0
  1  2  2  0
  1  5  1  0
  1  7  1  0
  2  3  1  0
  3  4  2  0
  4 17  1  0
  4  6  1  0
  5  6  2  0
  7 16  2  0
  7 15  1  0
  8 10  2  0
  8  9  1  0
  9 11  2  0
 10 12  1  0
 11 13  1  0
 12 14  2  0
 12 13  1  0
 13 15  2  0
 14 16  1  0
 17 18  2  3
 18 19  1  0
M  END
>  <vina_dock>  (599) 
-9.407

$$$$
O14757_PocketFlow_idx-in-all-generaetd-230
     RDKit          3D

 23 26  0  0  0  0  0  0  0  0999 V2000
    2.4580   -5.0830   44.6150 C   0  0  0  0  0  0  0  0  0  0  0  0
    1.0950   -5.3690   44.5340 C   0  0  0  0  0  0  0  0  0  0  0  0
    0.5840   -6.5660   45.0650 C   0  0  0  0  0  0  0  0  0  0  0  0
    1.4600   -7.4750   45.6800 C   0  0  0  0  0  0  0  0  0  0  0  0
    3.2340   -6.0510   45.2420 C   0  0  0  0  0  0  0  0  0  0  0  0
    2.7640   -7.2100   45.7620 N   0  0  0  0  0  0  0  0  0  0  0  0
    1.0180   -8.6200   46.1980 N   0  0  0  0  0  0  0  0  0  0  0  0
   -0.2880   -8.9270   46.1390 C   0  0  0  0  0  0  0  0  0  0  0  0
   -0.7320  -10.1250   46.6840 C   0  0  0  0  0  0  0  0  0  0  0  0
   -2.0800  -10.4950   46.6520 C   0  0  0  0  0  0  0  0  0  0  0  0
   -1.2390   -8.0800   45.5450 C   0  0  0  0  0  0  0  0  0  0  0  0
   -2.5970   -8.4440   45.5070 C   0  0  0  0  0  0  0  0  0  0  0  0
   -3.0150   -9.6520   46.0610 C   0  0  0  0  0  0  0  0  0  0  0  0
   -0.7800   -6.8790   45.0020 C   0  0  0  0  0  0  0  0  0  0  0  0
    3.0340   -3.8430   44.0740 C   0  0  0  0  0  0  0  0  0  0  0  0
    4.8580    0.0050   42.4340 Cl  0  0  0  0  0  0  0  0  0  0  0  0
    4.1360   -1.4450   43.0340 C   0  0  0  0  0  0  0  0  0  0  0  0
    2.8400   -1.8320   42.6890 C   0  0  0  0  0  0  0  0  0  0  0  0
    4.8690   -2.2580   43.8950 C   0  0  0  0  0  0  0  0  0  0  0  0
    1.8450   -0.8980   41.6290 Cl  0  0  0  0  0  0  0  0  0  0  0  0
    2.2980   -3.0190   43.2050 C   0  0  0  0  0  0  0  0  0  0  0  0
    6.1170   -1.9200   44.2540 F   0  0  0  0  0  0  0  0  0  0  0  0
    4.3340   -3.4390   44.4100 C   0  0  0  0  0  0  0  0  0  0  0  0
  1 15  1  0
  1  2  2  0
  1  5  1  0
  2  3  1  0
  3 14  1  0
  3  4  2  0
  4  6  1  0
  4  7  1  0
  5  6  2  0
  7  8  1  0
  8 11  2  0
  8  9  1  0
  9 10  2  0
 10 13  1  0
 11 14  1  0
 11 12  1  0
 12 13  2  0
 15 21  2  0
 15 23  1  0
 16 17  1  0
 17 18  2  0
 17 19  1  0
 18 20  1  0
 18 21  1  0
 19 22  1  0
 19 23  2  0
M  END
>  <vina_dock>  (600) 
-9.683

$$$$
O14757_PocketFlow_idx-in-all-generaetd-998
     RDKit          3D

 35 38  0  0  0  0  0  0  0  0999 V2000
    5.4860   -1.4410   45.5150 C   0  0  0  0  0  0  0  0  0  0  0  0
    4.5370   -1.0450   46.1840 O   0  0  0  0  0  0  0  0  0  0  0  0
    5.4230   -1.6340   44.0060 C   0  0  0  0  0  0  0  0  0  0  0  0
    4.8600   -2.8560   43.5480 O   0  0  0  0  0  0  0  0  0  0  0  0
    3.5040   -2.9070   43.3340 C   0  0  0  0  0  0  0  0  0  0  0  0
    1.4140   -6.2020   45.0250 C   0  0  0  0  0  0  0  0  0  0  0  0
    0.7350   -5.2220   44.2910 C   0  0  0  0  0  0  0  0  0  0  0  0
    2.7940   -6.0940   45.2020 C   0  0  0  0  0  0  0  0  0  0  0  0
    1.4240   -4.1300   43.7330 C   0  0  0  0  0  0  0  0  0  0  0  0
    3.4860   -5.0140   44.6500 C   0  0  0  0  0  0  0  0  0  0  0  0
    0.7320   -3.1540   43.0020 C   0  0  0  0  0  0  0  0  0  0  0  0
    2.8240   -4.0110   43.9090 C   0  0  0  0  0  0  0  0  0  0  0  0
    1.4100   -2.0610   42.4500 C   0  0  0  0  0  0  0  0  0  0  0  0
    2.7920   -1.9380   42.6200 C   0  0  0  0  0  0  0  0  0  0  0  0
    0.6920   -7.3500   45.6200 C   0  0  0  0  0  0  0  0  0  0  0  0
    1.2700   -8.4670   45.9470 N   0  0  0  0  0  0  0  0  0  0  0  0
   -0.6580   -7.2500   45.8480 N   0  0  0  0  0  0  0  0  0  0  0  0
    0.1250   -9.2130   46.4730 C   0  0  0  0  0  0  0  0  0  0  0  0
   -1.0370   -8.3320   46.3510 N   0  0  0  0  0  0  0  0  0  0  0  0
    0.7020   -1.0070   41.6830 C   0  0  0  0  0  0  0  0  0  0  0  0
   -0.5050   -0.8420   41.6500 O   0  0  0  0  0  0  0  0  0  0  0  0
    1.5370   -0.2080   40.9960 O   0  0  0  0  0  0  0  0  0  0  0  0
    6.7250   -1.8020   45.9850 O   0  0  0  0  0  0  0  0  0  0  0  0
    6.7870   -3.0900   46.5650 C   0  0  0  0  0  0  0  0  0  0  0  0
    5.6940   -3.5720   47.1760 C   0  0  0  0  0  0  0  0  0  0  0  0
    8.0870   -3.8350   46.3840 C   0  0  0  0  0  0  0  0  0  0  0  0
    5.5500   -4.8900   47.7610 C   0  0  0  0  0  0  0  0  0  0  0  0
    8.6020   -4.4690   47.6440 C   0  0  0  0  0  0  0  0  0  0  0  0
    6.5070   -5.6440   48.3430 C   0  0  0  0  0  0  0  0  0  0  0  0
    7.9000   -5.2360   48.4930 C   0  0  0  0  0  0  0  0  0  0  0  0
    6.1180   -6.9590   48.9650 C   0  0  0  0  0  0  0  0  0  0  0  0
    5.5430   -7.0510   50.0410 O   0  0  0  0  0  0  0  0  0  0  0  0
    6.5220   -8.0100   48.2020 O   0  0  0  0  0  0  0  0  0  0  0  0
    5.6030   -9.1110   48.1210 C   0  0  0  0  0  0  0  0  0  0  0  0
    4.3870   -8.7190   47.3070 C   0  0  0  0  0  0  0  0  0  0  0  0
  1  3  1  0
  1 23  1  0
  1  2  2  0
  3  4  1  0
  4  5  1  0
  5 14  1  0
  5 12  2  0
  6  7  2  0
  6  8  1  0
  6 15  1  0
  7  9  1  0
  8 10  2  0
  9 11  2  0
  9 12  1  0
 10 12  1  0
 11 13  1  0
 13 20  1  0
 13 14  2  0
 15 17  1  0
 15 16  2  0
 16 18  1  0
 17 19  1  0
 18 19  2  0
 20 22  1  0
 20 21  2  0
 23 24  1  0
 24 26  1  0
 24 25  2  0
 25 27  1  0
 26 28  1  0
 27 29  2  0
 28 30  2  0
 29 30  1  0
 29 31  1  0
 31 33  1  0
 31 32  2  0
 33 34  1  0
 34 35  1  0
M  END
>  <vina_dock>  (601) 
-8.143

$$$$
O14757_PocketFlow_idx-in-all-generaetd-555
     RDKit          3D

 24 26  0  0  0  0  0  0  0  0999 V2000
    4.9420   -2.2980   43.6280 C   0  0  0  0  0  0  0  0  0  0  0  0
    4.5010   -0.8310   43.7200 C   0  0  0  0  0  0  0  0  0  0  0  0
    3.6470   -0.3900   42.5260 C   0  0  0  0  0  0  0  0  0  0  0  0
    2.7060   -1.4620   42.0520 C   0  0  0  0  0  0  0  0  0  0  0  0
    1.4080   -1.2510   41.7850 C   0  0  0  0  0  0  0  0  0  0  0  0
    0.4650   -2.3200   41.3390 C   0  0  0  0  0  0  0  0  0  0  0  0
    4.3180   -3.1480   44.7140 C   0  0  0  0  0  0  0  0  0  0  0  0
    4.6550   -2.9570   46.0000 C   0  0  0  0  0  0  0  0  0  0  0  0
    3.3250   -4.2130   44.2610 C   0  0  1  0  0  0  0  0  0  0  0  0
    3.7160   -5.6150   44.7730 C   0  0  0  0  0  0  0  0  0  0  0  0
    1.8570   -3.8410   44.5740 C   0  0  0  0  0  0  0  0  0  0  0  0
    2.5320   -6.5720   44.7060 C   0  0  0  0  0  0  0  0  0  0  0  0
    1.2760   -4.5960   45.7730 C   0  0  0  0  0  0  0  0  0  0  0  0
    1.4100   -6.1370   45.6710 C   0  0  1  0  0  0  0  0  0  0  0  0
    0.1210   -6.8940   45.3340 C   0  0  0  0  0  0  0  0  0  0  0  0
   -0.4230   -6.7940   44.0380 C   0  0  0  0  0  0  0  0  0  0  0  0
   -0.5170   -7.7480   46.2850 C   0  0  0  0  0  0  0  0  0  0  0  0
   -1.5860   -7.4710   43.6830 C   0  0  0  0  0  0  0  0  0  0  0  0
   -1.7000   -8.4230   45.9040 C   0  0  0  0  0  0  0  0  0  0  0  0
   -0.0540   -7.9800   47.5970 C   0  0  0  0  0  0  0  0  0  0  0  0
   -2.2270   -8.2720   44.6130 C   0  0  0  0  0  0  0  0  0  0  0  0
   -2.3220   -9.2510   46.8390 C   0  0  0  0  0  0  0  0  0  0  0  0
   -0.7580   -8.8170   48.4480 C   0  0  0  0  0  0  0  0  0  0  0  0
   -1.8840   -9.4630   48.1010 N   0  0  0  0  0  0  0  0  0  0  0  0
  1  2  1  0
  1  7  1  0
  2  3  1  0
  3  4  1  0
  4  5  2  3
  5  6  1  0
  9  7  1  1
  7  8  2  0
  9 11  1  0
  9 10  1  0
 10 12  1  0
 11 13  1  0
 12 14  1  0
 13 14  1  0
 14 15  1  6
 15 16  2  0
 15 17  1  0
 16 18  1  0
 17 19  2  0
 17 20  1  0
 18 21  2  0
 19 21  1  0
 19 22  1  0
 20 23  2  0
 22 24  2  0
 23 24  1  0
M  END
>  <vina_dock>  (602) 
-8.313

$$$$
O14757_PocketFlow_idx-in-all-generaetd-696
     RDKit          3D

 15 15  0  0  0  0  0  0  0  0999 V2000
    1.3420   -3.3700   44.0400 C   0  0  1  0  0  0  0  0  0  0  0  0
    0.7290   -4.0530   45.0420 F   0  0  0  0  0  0  0  0  0  0  0  0
    2.6900   -3.8720   43.8670 N   0  0  0  0  0  0  0  0  0  0  0  0
    3.7740   -2.9960   44.0140 C   0  0  0  0  0  0  0  0  0  0  0  0
    5.9630   -2.3650   44.8700 C   0  0  0  0  0  0  0  0  0  0  0  0
    7.3010   -2.6960   45.9020 Cl  0  0  0  0  0  0  0  0  0  0  0  0
    4.8840   -3.2540   44.8280 C   0  0  0  0  0  0  0  0  0  0  0  0
    5.9730   -1.2190   44.0810 C   0  0  0  0  0  0  0  0  0  0  0  0
    4.9000   -0.9680   43.2310 C   0  0  0  0  0  0  0  0  0  0  0  0
    3.8220   -1.8580   43.1910 C   0  0  0  0  0  0  0  0  0  0  0  0
    0.5990   -3.6500   42.7650 C   0  0  0  0  0  0  0  0  0  0  0  0
    0.2800   -2.7900   41.7810 C   0  0  0  0  0  0  0  0  0  0  0  0
    0.6350   -1.3430   41.6710 C   0  0  0  0  0  0  0  0  0  0  0  0
    1.5610   -1.1160   40.7050 F   0  0  0  0  0  0  0  0  0  0  0  0
   -0.4620   -0.6260   41.3160 F   0  0  0  0  0  0  0  0  0  0  0  0
  1 11  1  0
  1  3  1  0
  1  2  1  1
  3  4  1  0
  4 10  2  0
  4  7  1  0
  5  8  1  0
  5  7  2  0
  5  6  1  0
  8  9  2  0
  9 10  1  0
 11 12  2  3
 12 13  1  0
 13 14  1  0
 13 15  1  0
M  END
>  <vina_dock>  (603) 
-6.824

$$$$
O14757_PocketFlow_idx-in-all-generaetd-178
     RDKit          3D

 35 38  0  0  0  0  0  0  0  0999 V2000
    3.5210   -3.1540   44.4460 C   0  0  1  0  0  0  0  0  0  0  0  0
    2.8030   -4.4500   44.7920 C   0  0  0  0  0  0  0  0  0  0  0  0
    3.5090   -5.6650   44.7770 C   0  0  0  0  0  0  0  0  0  0  0  0
    2.8660   -6.8680   45.0800 C   0  0  0  0  0  0  0  0  0  0  0  0
    1.4410   -4.4860   45.1140 C   0  0  0  0  0  0  0  0  0  0  0  0
    1.5080   -6.8790   45.3970 C   0  0  0  0  0  0  0  0  0  0  0  0
    0.7220   -3.3540   45.1330 F   0  0  0  0  0  0  0  0  0  0  0  0
    0.7950   -5.6830   45.4170 C   0  0  0  0  0  0  0  0  0  0  0  0
    4.8980   -3.1220   45.0830 C   0  0  0  0  0  0  0  0  0  0  0  0
    5.8550   -2.1910   44.9210 C   0  0  0  0  0  0  0  0  0  0  0  0
    5.6390   -0.8000   43.9150 Cl  0  0  0  0  0  0  0  0  0  0  0  0
    7.1490   -2.3040   45.6160 C   0  0  0  0  0  0  0  0  0  0  0  0
    7.5580   -3.5210   46.1780 C   0  0  0  0  0  0  0  0  0  0  0  0
    7.9990   -1.1940   45.7330 C   0  0  0  0  0  0  0  0  0  0  0  0
    8.7800   -3.6240   46.8480 C   0  0  0  0  0  0  0  0  0  0  0  0
    9.2200   -1.2940   46.4070 C   0  0  0  0  0  0  0  0  0  0  0  0
    9.6210   -2.5090   46.9770 C   0  0  0  0  0  0  0  0  0  0  0  0
   10.9440   -2.6180   47.7030 C   0  0  0  0  0  0  0  0  0  0  0  0
   12.0290   -1.7170   47.1550 C   0  0  0  0  0  0  0  0  0  0  0  0
   12.6680   -2.0290   45.9460 C   0  0  0  0  0  0  0  0  0  0  0  0
   12.4060   -0.5530   47.8400 C   0  0  0  0  0  0  0  0  0  0  0  0
   13.6660   -1.1940   45.4370 C   0  0  0  0  0  0  0  0  0  0  0  0
   13.4040    0.2800   47.3300 C   0  0  0  0  0  0  0  0  0  0  0  0
   14.0320   -0.0410   46.1290 C   0  0  0  0  0  0  0  0  0  0  0  0
    3.6370   -2.9020   42.9200 C   0  0  0  0  0  0  0  0  0  0  0  0
    2.5140   -2.0610   42.3590 C   0  0  0  0  0  0  0  0  0  0  0  0
    1.2810   -2.6480   42.0350 C   0  0  0  0  0  0  0  0  0  0  0  0
    2.6900   -0.6880   42.1450 C   0  0  0  0  0  0  0  0  0  0  0  0
    0.2370   -1.8770   41.5110 C   0  0  0  0  0  0  0  0  0  0  0  0
    1.6520    0.0850   41.6250 C   0  0  0  0  0  0  0  0  0  0  0  0
    0.4270   -0.5060   41.3150 C   0  0  0  0  0  0  0  0  0  0  0  0
   -1.0520   -2.5120   41.2180 C   0  0  0  0  0  0  0  0  0  0  0  0
   -2.2420   -1.9010   41.0920 C   0  0  0  0  0  0  0  0  0  0  0  0
   -2.4940   -0.4810   41.1810 C   0  0  0  0  0  0  0  0  0  0  0  0
   -3.6450    0.0800   40.7890 C   0  0  0  0  0  0  0  0  0  0  0  0
  1 25  1  6
  1  2  1  0
  1  9  1  0
  2  3  2  0
  2  5  1  0
  3  4  1  0
  4  6  2  0
  5  7  1  0
  5  8  2  0
  6  8  1  0
  9 10  2  3
 10 11  1  0
 10 12  1  0
 12 14  1  0
 12 13  2  0
 13 15  1  0
 14 16  2  0
 15 17  2  0
 16 17  1  0
 17 18  1  0
 18 19  1  0
 19 20  2  0
 19 21  1  0
 20 22  1  0
 21 23  2  0
 22 24  2  0
 23 24  1  0
 25 26  1  0
 26 27  2  0
 26 28  1  0
 27 29  1  0
 28 30  2  0
 29 32  1  0
 29 31  2  0
 30 31  1  0
 32 33  2  3
 33 34  1  0
 34 35  2  0
M  END
>  <vina_dock>  (604) 
-9.638

$$$$
O14757_PocketFlow_idx-in-all-generaetd-186
     RDKit          3D

 23 25  0  0  0  0  0  0  0  0999 V2000
    2.9780   -5.1080   44.6430 C   0  0  0  0  0  0  0  0  0  0  0  0
    1.8480   -4.3480   44.3520 C   0  0  0  0  0  0  0  0  0  0  0  0
    0.6130   -4.9800   44.2040 C   0  0  0  0  0  0  0  0  0  0  0  0
    0.5170   -6.3690   44.3250 C   0  0  0  0  0  0  0  0  0  0  0  0
    2.7930   -6.4760   44.7800 C   0  0  0  0  0  0  0  0  0  0  0  0
    1.6020   -7.1000   44.6400 N   0  0  0  0  0  0  0  0  0  0  0  0
    4.3330   -4.4770   44.8080 C   0  0  0  0  0  0  0  0  0  0  0  0
    4.4640   -3.6370   46.0960 C   0  0  1  0  0  0  0  0  0  0  0  0
    6.6920   -2.9080   46.1690 C   0  0  0  0  0  0  0  0  0  0  0  0
    5.7860   -3.9040   46.8400 C   0  0  0  0  0  0  0  0  0  0  0  0
    5.9590   -1.8560   45.6640 N   0  0  0  0  0  0  0  0  0  0  0  0
    7.9670   -3.0740   46.0900 N   0  0  0  0  0  0  0  0  0  0  0  0
    4.5260   -2.1320   45.7540 C   0  0  0  0  0  0  0  0  0  0  0  0
    6.5440   -1.1290   44.6070 N   0  0  0  0  0  0  0  0  0  0  0  0
    5.5190   -0.7590   43.6400 C   0  0  0  0  0  0  0  0  0  0  0  0
   -0.7730   -6.9430   44.2320 N   0  0  0  0  0  0  0  0  0  0  0  0
   -1.5270   -7.5400   45.2740 C   0  0  0  0  0  0  0  0  0  0  0  0
   -1.0670   -7.5470   46.5420 N   0  0  0  0  0  0  0  0  0  0  0  0
   -2.7390   -8.1730   44.9380 C   0  0  0  0  0  0  0  0  0  0  0  0
   -1.8050   -8.1460   47.5000 C   0  0  0  0  0  0  0  0  0  0  0  0
   -3.2660   -8.1730   43.5310 C   0  0  0  0  0  0  0  0  0  0  0  0
   -3.4750   -8.7990   45.9520 C   0  0  0  0  0  0  0  0  0  0  0  0
   -3.0030   -8.7840   47.2570 C   0  0  0  0  0  0  0  0  0  0  0  0
  1  2  2  0
  1  5  1  0
  1  7  1  0
  2  3  1  0
  3  4  2  0
  4 16  1  0
  4  6  1  0
  5  6  2  0
  8  7  1  6
  8 13  1  0
  8 10  1  0
  9 11  1  0
  9 12  1  0
  9 10  1  0
 11 14  1  0
 11 13  1  0
 14 15  1  0
 16 17  1  0
 17 19  1  0
 17 18  2  0
 18 20  1  0
 19 21  1  0
 19 22  2  0
 20 23  2  0
 22 23  1  0
M  END
>  <vina_dock>  (605) 
-8.045

$$$$
O14757_PocketFlow_idx-in-all-generaetd-775
     RDKit          3D

 10 10  0  0  0  0  0  0  0  0999 V2000
    4.1130   -2.2490   43.3650 C   0  0  0  0  0  0  0  0  0  0  0  0
    5.0040   -1.4610   43.9900 C   0  0  0  0  0  0  0  0  0  0  0  0
    3.4880   -3.4420   43.9390 C   0  0  0  0  0  0  0  0  0  0  0  0
    3.6380   -5.7090   44.7840 C   0  0  0  0  0  0  0  0  0  0  0  0
    2.2610   -5.7200   45.0090 C   0  0  0  0  0  0  0  0  0  0  0  0
    4.2500   -4.5740   44.2490 C   0  0  0  0  0  0  0  0  0  0  0  0
    1.4960   -4.5960   44.6970 C   0  0  0  0  0  0  0  0  0  0  0  0
    2.1080   -3.4610   44.1610 C   0  0  0  0  0  0  0  0  0  0  0  0
    5.5180   -1.6000   45.3960 C   0  0  0  0  0  0  0  0  0  0  0  0
    6.9770   -2.0300   45.4110 C   0  0  0  0  0  0  0  0  0  0  0  0
  1  3  1  0
  1  2  2  3
  2  9  1  0
  3  8  2  0
  3  6  1  0
  4  6  2  0
  4  5  1  0
  5  7  2  0
  7  8  1  0
  9 10  1  0
M  END
>  <vina_dock>  (606) 
-5.371

$$$$
O14757_PocketFlow_idx-in-all-generaetd-605
     RDKit          3D

 35 38  0  0  0  0  0  0  0  0999 V2000
    1.7960   -7.1150   45.6230 C   0  0  0  0  0  0  0  0  0  0  0  0
    2.9680   -6.4420   45.6070 C   0  0  0  0  0  0  0  0  0  0  0  0
    0.4120   -6.5570   45.3030 C   0  0  1  0  0  0  0  0  0  0  0  0
   -1.1470   -7.2100   43.4900 N   0  0  0  0  0  0  0  0  0  0  0  0
   -1.6140   -7.6480   44.7460 C   0  0  0  0  0  0  0  0  0  0  0  0
    0.0540   -6.4050   43.7940 C   0  0  0  0  0  0  0  0  0  0  0  0
   -2.7700   -8.3810   44.9570 C   0  0  0  0  0  0  0  0  0  0  0  0
   -0.7440   -7.3770   45.7980 C   0  0  0  0  0  0  0  0  0  0  0  0
   -3.0510   -8.8340   46.2500 C   0  0  0  0  0  0  0  0  0  0  0  0
   -1.0110   -7.8180   47.0870 C   0  0  0  0  0  0  0  0  0  0  0  0
   -2.1690   -8.5730   47.3160 C   0  0  0  0  0  0  0  0  0  0  0  0
   -2.4910   -9.0570   48.7000 C   0  0  0  0  0  0  0  0  0  0  0  0
    1.8140   -8.5930   45.9830 C   0  0  0  0  0  0  0  0  0  0  0  0
    3.1900   -9.0760   46.3450 C   0  0  0  0  0  0  0  0  0  0  0  0
    3.5380   -9.5130   47.5650 C   0  0  0  0  0  0  0  0  0  0  0  0
    4.8760   -9.9560   47.8830 C   0  0  0  0  0  0  0  0  0  0  0  0
    5.9730   -9.2760   47.5160 C   0  0  0  0  0  0  0  0  0  0  0  0
    7.3440   -9.7000   47.8340 C   0  0  0  0  0  0  0  0  0  0  0  0
    8.3750   -9.6810   46.8820 C   0  0  0  0  0  0  0  0  0  0  0  0
    7.6430  -10.0950   49.1440 C   0  0  0  0  0  0  0  0  0  0  0  0
    9.6800  -10.0680   47.2230 C   0  0  0  0  0  0  0  0  0  0  0  0
    8.9360  -10.4950   49.4890 C   0  0  0  0  0  0  0  0  0  0  0  0
   10.7610  -10.0910   46.1820 C   0  0  0  0  0  0  0  0  0  0  0  0
    9.9480  -10.4900   48.5290 C   0  0  0  0  0  0  0  0  0  0  0  0
    3.1610   -5.0430   45.3030 C   0  0  0  0  0  0  0  0  0  0  0  0
    3.9280   -4.6010   44.2940 C   0  0  0  0  0  0  0  0  0  0  0  0
    4.1410   -3.1440   43.9030 C   0  0  2  0  0  0  0  0  0  0  0  0
    4.4920   -2.1500   45.0310 C   0  0  0  0  0  0  0  0  0  0  0  0
    6.2160   -1.6730   44.9890 Cl  0  0  0  0  0  0  0  0  0  0  0  0
    2.9370   -2.6140   43.1290 C   0  0  0  0  0  0  0  0  0  0  0  0
    1.6950   -3.2740   43.1650 C   0  0  0  0  0  0  0  0  0  0  0  0
    3.0460   -1.4250   42.3930 C   0  0  0  0  0  0  0  0  0  0  0  0
    0.5990   -2.7650   42.4640 C   0  0  0  0  0  0  0  0  0  0  0  0
    1.9480   -0.9170   41.6950 C   0  0  0  0  0  0  0  0  0  0  0  0
    0.7270   -1.5880   41.7280 C   0  0  0  0  0  0  0  0  0  0  0  0
  1  3  1  0
  1  2  2  3
  1 13  1  0
  2 25  1  0
  3  6  1  6
  3  8  1  0
  4  6  1  0
  4  5  1  0
  5  7  1  0
  5  8  2  0
  7  9  2  0
  8 10  1  0
  9 11  1  0
 10 11  2  0
 11 12  1  0
 13 14  1  0
 14 15  2  3
 15 16  1  0
 16 17  2  3
 17 18  1  0
 18 19  2  0
 18 20  1  0
 19 21  1  0
 20 22  2  0
 21 23  1  0
 21 24  2  0
 22 24  1  0
 25 26  2  3
 26 27  1  0
 27 30  1  0
 27 28  1  1
 28 29  1  0
 30 32  1  0
 30 31  2  0
 31 33  1  0
 32 34  2  0
 33 35  2  0
 34 35  1  0
M  END
>  <vina_dock>  (607) 
-8.678

$$$$
O14757_PocketFlow_idx-in-all-generaetd-522
     RDKit          3D

 35 37  0  0  0  0  0  0  0  0999 V2000
    9.8390   -4.0630   48.0880 C   0  0  0  0  0  0  0  0  0  0  0  0
    8.9760   -3.6700   49.2970 C   0  0  0  0  0  0  0  0  0  0  0  0
    7.6620   -4.3950   49.5150 C   0  0  0  0  0  0  0  0  0  0  0  0
    7.3520   -5.6230   49.0750 C   0  0  0  0  0  0  0  0  0  0  0  0
    6.7140   -3.6860   50.2340 O   0  0  0  0  0  0  0  0  0  0  0  0
    6.0370   -6.3200   49.3010 C   0  0  0  0  0  0  0  0  0  0  0  0
    5.8120   -7.4110   48.2750 C   0  0  0  0  0  0  0  0  0  0  0  0
    6.3540   -8.5000   48.2030 O   0  0  0  0  0  0  0  0  0  0  0  0
    4.8450   -7.0810   47.3920 O   0  0  0  0  0  0  0  0  0  0  0  0
    9.2280   -3.6990   46.7250 C   0  0  0  0  0  0  0  0  0  0  0  0
    8.4030   -2.3930   46.7240 C   0  0  1  0  0  0  0  0  0  0  0  0
    9.1230   -1.2220   46.0540 C   0  0  0  0  0  0  0  0  0  0  0  0
    7.0400   -2.6180   46.0820 C   0  0  0  0  0  0  0  0  0  0  0  0
    6.1660   -3.5720   46.6180 C   0  0  0  0  0  0  0  0  0  0  0  0
    6.6270   -1.8920   44.9570 C   0  0  0  0  0  0  0  0  0  0  0  0
    4.9110   -3.7940   46.0420 C   0  0  0  0  0  0  0  0  0  0  0  0
    5.3730   -2.1200   44.3790 C   0  0  0  0  0  0  0  0  0  0  0  0
    4.4940   -3.0740   44.9120 C   0  0  0  0  0  0  0  0  0  0  0  0
    3.1780   -3.3190   44.3040 C   0  0  0  0  0  0  0  0  0  0  0  0
    2.3720   -4.3890   44.7370 C   0  0  0  0  0  0  0  0  0  0  0  0
    2.6880   -2.4850   43.2890 C   0  0  0  0  0  0  0  0  0  0  0  0
    1.0990   -4.6460   44.1890 C   0  0  0  0  0  0  0  0  0  0  0  0
    1.4280   -2.7090   42.7270 C   0  0  0  0  0  0  0  0  0  0  0  0
    0.6450   -3.7790   43.1790 C   0  0  0  0  0  0  0  0  0  0  0  0
    0.2530   -5.7620   44.6590 C   0  0  0  0  0  0  0  0  0  0  0  0
   -0.3390   -6.4990   43.6830 N   0  0  0  0  0  0  0  0  0  0  0  0
    0.0650   -6.0620   46.0020 C   0  0  0  0  0  0  0  0  0  0  0  0
   -1.1300   -7.5350   44.0400 C   0  0  0  0  0  0  0  0  0  0  0  0
   -0.7580   -7.1380   46.3380 C   0  0  0  0  0  0  0  0  0  0  0  0
   -1.3720   -7.8950   45.3490 C   0  0  0  0  0  0  0  0  0  0  0  0
   -0.9780   -7.4830   47.7550 C   0  0  0  0  0  0  0  0  0  0  0  0
   -0.6880   -8.5840   48.2040 O   0  0  0  0  0  0  0  0  0  0  0  0
    0.8820   -1.8440   41.6540 C   0  0  0  0  0  0  0  0  0  0  0  0
    1.5340   -1.1960   40.8550 O   0  0  0  0  0  0  0  0  0  0  0  0
   -0.4620   -1.8290   41.6270 O   0  0  0  0  0  0  0  0  0  0  0  0
  1 10  1  0
  1  2  1  0
  2  3  1  0
  3  4  2  3
  3  5  1  0
  4  6  1  0
  6  7  1  0
  7  9  1  0
  7  8  2  0
 10 11  1  0
 11 12  1  6
 11 13  1  0
 13 15  2  0
 13 14  1  0
 14 16  2  0
 15 17  1  0
 16 18  1  0
 17 18  2  0
 18 19  1  0
 19 21  1  0
 19 20  2  0
 20 22  1  0
 21 23  2  0
 22 24  2  0
 22 25  1  0
 23 33  1  0
 23 24  1  0
 25 26  2  0
 25 27  1  0
 26 28  1  0
 27 29  2  0
 28 30  2  0
 29 30  1  0
 29 31  1  0
 31 32  2  0
 33 34  2  0
 33 35  1  0
M  END
>  <vina_dock>  (608) 
-8.82

$$$$
O14757_PocketFlow_idx-in-all-generaetd-847
     RDKit          3D

 17 19  0  0  0  0  0  0  0  0999 V2000
    3.1890   -2.1270   43.1750 C   0  0  0  0  0  0  0  0  0  0  0  0
    3.8840   -2.7030   44.2560 C   0  0  0  0  0  0  0  0  0  0  0  0
    5.1290   -2.2210   44.7130 C   0  0  0  0  0  0  0  0  0  0  0  0
    3.7990   -1.0250   42.5560 C   0  0  0  0  0  0  0  0  0  0  0  0
    5.6920   -1.1190   44.0590 C   0  0  0  0  0  0  0  0  0  0  0  0
    5.0310   -0.5250   42.9870 C   0  0  0  0  0  0  0  0  0  0  0  0
    1.9540   -2.6220   42.7420 N   0  0  0  0  0  0  0  0  0  0  0  0
    1.2170   -3.6670   43.4780 C   0  0  0  0  0  0  0  0  0  0  0  0
    1.2310   -2.2780   41.6130 C   0  0  0  0  0  0  0  0  0  0  0  0
   -0.0120   -3.8130   42.6720 N   0  0  0  0  0  0  0  0  0  0  0  0
    0.0990   -2.9920   41.5600 C   0  0  0  0  0  0  0  0  0  0  0  0
    5.8160   -2.8580   45.8440 C   0  0  0  0  0  0  0  0  0  0  0  0
    5.1170   -3.3500   46.9480 C   0  0  0  0  0  0  0  0  0  0  0  0
    7.2080   -3.0050   45.8750 C   0  0  0  0  0  0  0  0  0  0  0  0
    5.6890   -3.9460   48.0240 N   0  0  0  0  0  0  0  0  0  0  0  0
    7.8280   -3.6120   46.9660 C   0  0  0  0  0  0  0  0  0  0  0  0
    7.0330   -4.0620   48.0060 C   0  0  0  0  0  0  0  0  0  0  0  0
  1  4  1  0
  1  7  1  0
  1  2  2  0
  2  3  1  0
  3  5  2  0
  3 12  1  0
  4  6  2  0
  5  6  1  0
  7  9  1  0
  7  8  1  0
  8 10  1  0
  9 11  2  0
 10 11  1  0
 12 14  1  0
 12 13  2  0
 13 15  1  0
 14 16  2  0
 15 17  2  0
 16 17  1  0
M  END
>  <vina_dock>  (609) 
-7.824

$$$$
O14757_PocketFlow_idx-in-all-generaetd-126
     RDKit          3D

 15 16  0  0  0  0  0  0  0  0999 V2000
    1.1930   -2.6240   42.4350 C   0  0  0  0  0  0  0  0  0  0  0  0
    2.1830   -1.7170   42.0460 C   0  0  0  0  0  0  0  0  0  0  0  0
    3.4090   -1.6860   42.7210 C   0  0  0  0  0  0  0  0  0  0  0  0
    3.6710   -2.5530   43.7950 C   0  0  0  0  0  0  0  0  0  0  0  0
    2.6650   -3.4570   44.1730 C   0  0  0  0  0  0  0  0  0  0  0  0
    1.4370   -3.4950   43.5020 C   0  0  0  0  0  0  0  0  0  0  0  0
   -0.1220   -2.6980   41.7540 C   0  0  0  0  0  0  0  0  0  0  0  0
   -0.9150   -1.7830   41.6330 O   0  0  0  0  0  0  0  0  0  0  0  0
   -0.3840   -3.9190   41.2550 O   0  0  0  0  0  0  0  0  0  0  0  0
    4.9610   -2.5150   44.5020 C   0  0  0  0  0  0  0  0  0  0  0  0
    5.3060   -3.5090   45.4340 C   0  0  0  0  0  0  0  0  0  0  0  0
    5.8870   -1.4840   44.2660 C   0  0  0  0  0  0  0  0  0  0  0  0
    6.5300   -3.4740   46.1060 C   0  0  0  0  0  0  0  0  0  0  0  0
    7.1120   -1.4490   44.9380 C   0  0  0  0  0  0  0  0  0  0  0  0
    7.4340   -2.4430   45.8570 C   0  0  0  0  0  0  0  0  0  0  0  0
  1  7  1  0
  1  2  2  0
  1  6  1  0
  2  3  1  0
  3  4  2  0
  4  5  1  0
  4 10  1  0
  5  6  2  0
  7  9  1  0
  7  8  2  0
 10 12  1  0
 10 11  2  0
 11 13  1  0
 12 14  2  0
 13 15  2  0
 14 15  1  0
M  END
>  <vina_dock>  (610) 
-7.844

$$$$
O14757_PocketFlow_idx-in-all-generaetd-59
     RDKit          3D

 10 10  0  0  0  0  0  0  0  0999 V2000
    1.9450   -2.9960   43.0200 C   0  0  0  0  0  0  0  0  0  0  0  0
    2.4510   -1.8570   42.4000 C   0  0  0  0  0  0  0  0  0  0  0  0
    3.7090   -1.3570   42.7450 C   0  0  0  0  0  0  0  0  0  0  0  0
    4.4820   -2.0070   43.7150 C   0  0  0  0  0  0  0  0  0  0  0  0
    2.7000   -3.6410   43.9970 C   0  0  0  0  0  0  0  0  0  0  0  0
    3.9590   -3.1450   44.3460 C   0  0  0  0  0  0  0  0  0  0  0  0
    1.5140   -1.0510   41.2000 Cl  0  0  0  0  0  0  0  0  0  0  0  0
    5.7980   -1.5060   44.1360 C   0  0  0  0  0  0  0  0  0  0  0  0
    6.5340   -2.0490   45.1180 C   0  0  0  0  0  0  0  0  0  0  0  0
    7.8670   -1.5220   45.5410 C   0  0  0  0  0  0  0  0  0  0  0  0
  1  2  2  0
  1  5  1  0
  2  7  1  0
  2  3  1  0
  3  4  2  0
  4  8  1  0
  4  6  1  0
  5  6  2  0
  8  9  2  3
  9 10  1  0
M  END
>  <vina_dock>  (611) 
-5.95

$$$$
O14757_PocketFlow_idx-in-all-generaetd-14
     RDKit          3D

  9  9  0  0  0  0  0  0  0  0999 V2000
    2.0640   -2.6210   42.6300 C   0  0  0  0  0  0  0  0  0  0  0  0
    3.4070   -2.2330   43.2010 C   0  0  0  0  0  0  0  0  0  0  0  0
    5.2800   -2.6980   44.6770 C   0  0  0  0  0  0  0  0  0  0  0  0
    4.0450   -3.0610   44.1380 C   0  0  0  0  0  0  0  0  0  0  0  0
    5.8880   -1.5060   44.2900 C   0  0  0  0  0  0  0  0  0  0  0  0
    5.2600   -0.6720   43.3670 C   0  0  0  0  0  0  0  0  0  0  0  0
    4.0240   -1.0310   42.8260 C   0  0  0  0  0  0  0  0  0  0  0  0
    1.6410   -1.7200   41.5030 C   0  0  0  0  0  0  0  0  0  0  0  0
    0.6070   -0.8690   41.5610 C   0  0  0  0  0  0  0  0  0  0  0  0
  1  8  1  0
  1  2  1  0
  2  7  2  0
  2  4  1  0
  3  4  2  0
  3  5  1  0
  5  6  2  0
  6  7  1  0
  8  9  2  0
M  END
>  <vina_dock>  (612) 
-5.387

$$$$
O14757_PocketFlow_idx-in-all-generaetd-670
     RDKit          3D

 35 37  0  0  0  0  0  0  0  0999 V2000
    8.2330   -3.1340   46.1020 C   0  0  0  0  0  0  0  0  0  0  0  0
    8.3850   -3.2660   47.6120 C   0  0  0  0  0  0  0  0  0  0  0  0
    7.6760   -4.4900   48.1360 C   0  0  0  0  0  0  0  0  0  0  0  0
    7.7460   -6.8280   48.8330 C   0  0  0  0  0  0  0  0  0  0  0  0
    6.3720   -6.7700   49.0760 C   0  0  0  0  0  0  0  0  0  0  0  0
    8.3920   -5.6760   48.3620 C   0  0  0  0  0  0  0  0  0  0  0  0
    5.7280   -7.8520   49.5380 F   0  0  0  0  0  0  0  0  0  0  0  0
    5.6470   -5.6050   48.8530 C   0  0  0  0  0  0  0  0  0  0  0  0
    6.2960   -4.4650   48.3810 C   0  0  0  0  0  0  0  0  0  0  0  0
    8.5180   -8.0960   49.0970 C   0  0  0  0  0  0  0  0  0  0  0  0
    9.0210   -8.7350   47.7980 C   0  0  0  0  0  0  0  0  0  0  0  0
    7.9160   -9.0060   46.8790 N   0  0  0  0  0  0  0  0  0  0  0  0
    7.4780   -1.8660   45.7690 C   0  0  0  0  0  0  0  0  0  0  0  0
    7.8480   -0.7810   46.2160 O   0  0  0  0  0  0  0  0  0  0  0  0
    6.2600   -1.9270   44.9060 C   0  0  0  0  0  0  0  0  0  0  0  0
    5.3420   -2.9640   45.1290 C   0  0  0  0  0  0  0  0  0  0  0  0
    6.0180   -1.0120   43.8810 C   0  0  0  0  0  0  0  0  0  0  0  0
    4.1720   -3.0970   44.3540 C   0  0  0  0  0  0  0  0  0  0  0  0
    4.8650   -1.1280   43.0980 C   0  0  0  0  0  0  0  0  0  0  0  0
    3.9330   -2.1540   43.3270 C   0  0  0  0  0  0  0  0  0  0  0  0
    3.2460   -4.2050   44.6520 C   0  0  0  0  0  0  0  0  0  0  0  0
    3.6120   -5.5390   44.4180 C   0  0  0  0  0  0  0  0  0  0  0  0
    1.9680   -3.9500   45.1750 C   0  0  0  0  0  0  0  0  0  0  0  0
    2.7350   -6.5880   44.7090 C   0  0  0  0  0  0  0  0  0  0  0  0
    1.0880   -4.9980   45.4650 C   0  0  0  0  0  0  0  0  0  0  0  0
    1.4640   -6.3250   45.2310 C   0  0  0  0  0  0  0  0  0  0  0  0
    0.5240   -7.4570   45.5630 C   0  0  0  0  0  0  0  0  0  0  0  0
   -0.8020   -7.3240   44.8320 C   0  0  0  0  0  0  0  0  0  0  0  0
    2.7570   -2.2620   42.4460 C   0  0  0  0  0  0  0  0  0  0  0  0
    1.9450   -1.2290   42.1700 C   0  0  0  0  0  0  0  0  0  0  0  0
    0.7070   -1.3470   41.3170 C   0  0  0  0  0  0  0  0  0  0  0  0
   -0.0780   -2.6280   41.5580 C   0  0  0  0  0  0  0  0  0  0  0  0
   -1.4010   -2.4430   41.3430 F   0  0  0  0  0  0  0  0  0  0  0  0
    0.3370   -3.6010   40.7150 F   0  0  0  0  0  0  0  0  0  0  0  0
    0.0800   -3.0870   42.8180 F   0  0  0  0  0  0  0  0  0  0  0  0
  1 13  1  0
  1  2  1  0
  2  3  1  0
  3  6  1  0
  3  9  2  0
  4  6  2  0
  4  5  1  0
  4 10  1  0
  5  8  2  0
  5  7  1  0
  8  9  1  0
 10 11  1  0
 11 12  1  0
 13 15  1  0
 13 14  2  0
 15 17  1  0
 15 16  2  0
 16 18  1  0
 17 19  2  0
 18 20  2  0
 18 21  1  0
 19 20  1  0
 20 29  1  0
 21 22  2  0
 21 23  1  0
 22 24  1  0
 23 25  2  0
 24 26  2  0
 25 26  1  0
 26 27  1  0
 27 28  1  0
 29 30  2  3
 30 31  1  0
 31 32  1  0
 32 34  1  0
 32 33  1  0
 32 35  1  0
M  END
>  <vina_dock>  (613) 
-9.028

$$$$
O14757_PocketFlow_idx-in-all-generaetd-661
     RDKit          3D

 26 28  0  0  0  0  0  0  0  0999 V2000
    7.1080   -1.8920   45.3500 C   0  0  0  0  0  0  0  0  0  0  0  0
    6.8490   -3.1430   45.9270 C   0  0  0  0  0  0  0  0  0  0  0  0
    7.6840   -3.6540   46.9250 C   0  0  0  0  0  0  0  0  0  0  0  0
    8.8020   -2.9240   47.3320 C   0  0  0  0  0  0  0  0  0  0  0  0
    9.0710   -1.6750   46.7710 C   0  0  0  0  0  0  0  0  0  0  0  0
    8.2320   -1.1690   45.7740 C   0  0  0  0  0  0  0  0  0  0  0  0
    6.2730   -1.3370   44.2770 C   0  0  0  0  0  0  0  0  0  0  0  0
    5.0890   -1.8510   43.9040 C   0  0  0  0  0  0  0  0  0  0  0  0
    4.1680   -1.3400   42.8260 C   0  0  0  0  0  0  0  0  0  0  0  0
    2.8220   -2.0160   42.7110 C   0  0  0  0  0  0  0  0  0  0  0  0
    1.1950   -3.6300   43.5290 C   0  0  0  0  0  0  0  0  0  0  0  0
    0.3410   -3.3080   42.4700 C   0  0  0  0  0  0  0  0  0  0  0  0
    2.4340   -2.9890   43.6440 C   0  0  0  0  0  0  0  0  0  0  0  0
    0.7230   -2.3450   41.5340 C   0  0  0  0  0  0  0  0  0  0  0  0
    1.9560   -1.7040   41.6530 C   0  0  0  0  0  0  0  0  0  0  0  0
    0.7990   -4.6500   44.5300 C   0  0  0  0  0  0  0  0  0  0  0  0
    0.0360   -5.7640   44.2010 N   0  0  0  0  0  0  0  0  0  0  0  0
    1.1450   -4.5600   45.7990 N   0  0  0  0  0  0  0  0  0  0  0  0
   -0.1700   -6.4210   45.4720 C   0  0  0  0  0  0  0  0  0  0  0  0
    0.5380   -5.6130   46.4580 N   0  0  0  0  0  0  0  0  0  0  0  0
    9.6370   -3.4800   48.4110 C   0  0  0  0  0  0  0  0  0  0  0  0
   10.7570   -4.1120   48.3280 N   0  0  0  0  0  0  0  0  0  0  0  0
   11.3300   -4.4560   47.0340 C   0  0  0  0  0  0  0  0  0  0  0  0
   12.7800   -4.0760   47.0700 C   0  0  0  0  0  0  0  0  0  0  0  0
   13.3410   -2.8950   46.7630 C   0  0  0  0  0  0  0  0  0  0  0  0
   12.6590   -1.6480   46.3010 C   0  0  0  0  0  0  0  0  0  0  0  0
  1  7  1  0
  1  6  1  0
  1  2  2  0
  2  3  1  0
  3  4  2  0
  4  5  1  0
  4 21  1  0
  5  6  2  0
  7  8  2  3
  8  9  1  0
  9 10  1  0
 10 15  1  0
 10 13  2  0
 11 12  2  0
 11 13  1  0
 11 16  1  0
 12 14  1  0
 14 15  2  0
 16 17  1  0
 16 18  2  0
 17 19  1  0
 18 20  1  0
 19 20  1  0
 21 22  2  3
 22 23  1  0
 23 24  1  0
 24 25  2  3
 25 26  1  0
M  END
>  <vina_dock>  (614) 
-8.706

$$$$
O14757_PocketFlow_idx-in-all-generaetd-772
     RDKit          3D

 30 32  0  0  0  0  0  0  0  0999 V2000
    8.7380   -3.0260   48.1970 N   0  0  0  0  0  0  0  0  0  0  0  0
    9.7820   -3.7810   47.9860 C   0  0  0  0  0  0  0  0  0  0  0  0
    7.5890   -3.0890   47.3850 C   0  0  0  0  0  0  0  0  0  0  0  0
    7.4200   -2.2830   46.2460 C   0  0  0  0  0  0  0  0  0  0  0  0
    6.5140   -3.8980   47.7980 C   0  0  0  0  0  0  0  0  0  0  0  0
    8.6210   -1.1370   45.7690 Cl  0  0  0  0  0  0  0  0  0  0  0  0
    6.2550   -2.3590   45.4730 C   0  0  0  0  0  0  0  0  0  0  0  0
    5.3480   -3.9650   47.0080 C   0  0  0  0  0  0  0  0  0  0  0  0
    5.2040   -3.2130   45.8330 C   0  0  0  0  0  0  0  0  0  0  0  0
    6.5780   -4.6580   49.1020 C   0  0  2  0  0  0  0  0  0  0  0  0
    5.6220   -5.6200   49.2100 F   0  0  0  0  0  0  0  0  0  0  0  0
    6.3840   -3.7880   50.2050 O   0  0  0  0  0  0  0  0  0  0  0  0
    3.9830   -3.2970   45.0210 C   0  0  0  0  0  0  0  0  0  0  0  0
    3.7880   -2.5120   43.8830 C   0  0  0  0  0  0  0  0  0  0  0  0
    2.9460   -4.1700   45.3310 C   0  0  0  0  0  0  0  0  0  0  0  0
    2.6080   -2.6330   43.1300 C   0  0  0  0  0  0  0  0  0  0  0  0
    1.8010   -4.3050   44.6190 N   0  0  0  0  0  0  0  0  0  0  0  0
    1.6210   -3.5520   43.5330 C   0  0  0  0  0  0  0  0  0  0  0  0
    2.3820   -1.8600   41.9860 C   0  0  0  0  0  0  0  0  0  0  0  0
    0.4890   -3.7000   42.8430 N   0  0  0  0  0  0  0  0  0  0  0  0
    1.1980   -2.0260   41.2830 C   0  0  0  0  0  0  0  0  0  0  0  0
    0.2870   -2.9580   41.7440 C   0  0  0  0  0  0  0  0  0  0  0  0
   -0.9240   -3.1460   41.0820 N   0  0  0  0  0  0  0  0  0  0  0  0
    9.9300   -4.8030   46.8430 C   0  0  2  0  0  0  0  0  0  0  0  0
    9.6760   -6.2060   47.4080 C   0  0  0  0  0  0  0  0  0  0  0  0
   11.3020   -4.7360   46.1370 C   0  0  2  0  0  0  0  0  0  0  0  0
   11.7130   -3.3280   45.7260 C   0  0  0  0  0  0  0  0  0  0  0  0
   11.2810   -5.5460   44.9580 O   0  0  0  0  0  0  0  0  0  0  0  0
   10.9420   -3.6440   48.9760 C   0  0  0  0  0  0  0  0  0  0  0  0
   11.2890   -2.2000   49.3020 C   0  0  0  0  0  0  0  0  0  0  0  0
  1  3  1  0
  1  2  2  3
  2 24  1  0
  2 29  1  0
  3  4  2  0
  3  5  1  0
  4  7  1  0
  4  6  1  0
  5  8  2  0
  5 10  1  0
  7  9  2  0
  8  9  1  0
  9 13  1  0
 10 11  1  0
 10 12  1  1
 13 14  2  0
 13 15  1  0
 14 16  1  0
 15 17  2  0
 16 19  2  0
 16 18  1  0
 17 18  1  0
 18 20  2  0
 19 21  1  0
 20 22  1  0
 21 22  2  0
 22 23  1  0
 24 26  1  0
 24 25  1  1
 26 28  1  0
 26 27  1  6
 29 30  1  0
M  END
>  <vina_dock>  (615) 
-8.35

$$$$
O14757_PocketFlow_idx-in-all-generaetd-835
     RDKit          3D

 20 22  0  0  0  0  0  0  0  0999 V2000
    3.1540   -2.2680   43.1230 C   0  0  0  0  0  0  0  0  0  0  0  0
    2.3880   -1.6010   42.1620 C   0  0  0  0  0  0  0  0  0  0  0  0
    1.0870   -2.0190   41.8880 C   0  0  0  0  0  0  0  0  0  0  0  0
    0.5470   -3.1150   42.5630 C   0  0  0  0  0  0  0  0  0  0  0  0
    1.2950   -3.8190   43.5200 C   0  0  0  0  0  0  0  0  0  0  0  0
    2.6070   -3.3800   43.7810 C   0  0  0  0  0  0  0  0  0  0  0  0
    4.5330   -1.8700   43.4250 C   0  0  0  0  0  0  0  0  0  0  0  0
    6.5760   -1.8780   44.8580 C   0  0  0  0  0  0  0  0  0  0  0  0
    5.2290   -2.2320   44.5060 C   0  0  0  0  0  0  0  0  0  0  0  0
    6.8160   -2.4940   46.0250 C   0  0  0  0  0  0  0  0  0  0  0  0
    4.8230   -3.1100   45.6220 C   0  0  0  0  0  0  0  0  0  0  0  0
    5.7650   -3.2510   46.5130 N   0  0  0  0  0  0  0  0  0  0  0  0
    5.1480   -1.1120   42.4860 F   0  0  0  0  0  0  0  0  0  0  0  0
    0.7270   -4.9780   44.2320 C   0  0  0  0  0  0  0  0  0  0  0  0
    0.7710   -5.0850   45.6310 C   0  0  0  0  0  0  0  0  0  0  0  0
    0.1170   -6.0310   43.5250 C   0  0  0  0  0  0  0  0  0  0  0  0
    1.3330   -4.1130   46.3670 F   0  0  0  0  0  0  0  0  0  0  0  0
    0.2320   -6.1820   46.3040 C   0  0  0  0  0  0  0  0  0  0  0  0
   -0.4250   -7.1350   44.1930 C   0  0  0  0  0  0  0  0  0  0  0  0
   -0.3680   -7.2100   45.5830 C   0  0  0  0  0  0  0  0  0  0  0  0
  1  2  2  0
  1  7  1  0
  1  6  1  0
  2  3  1  0
  3  4  2  0
  4  5  1  0
  5  6  2  0
  5 14  1  0
  7 13  1  0
  7  9  1  0
  8  9  2  0
  8 10  1  0
  9 11  1  0
 10 12  1  0
 11 12  2  0
 14 16  1  0
 14 15  2  0
 15 18  1  0
 15 17  1  0
 16 19  2  0
 18 20  2  0
 19 20  1  0
M  END
>  <vina_dock>  (616) 
-9.065

$$$$
O14757_PocketFlow_idx-in-all-generaetd-962
     RDKit          3D

 26 29  0  0  0  0  0  0  0  0999 V2000
    0.3600   -2.9940   43.1210 C   0  0  0  0  0  0  0  0  0  0  0  0
    1.4070   -3.3950   43.9380 C   0  0  0  0  0  0  0  0  0  0  0  0
    1.3470   -4.0910   45.2710 C   0  0  2  0  0  0  0  0  0  0  0  0
    0.6660   -2.3400   41.9270 C   0  0  0  0  0  0  0  0  0  0  0  0
    2.0000   -2.0940   41.5720 C   0  0  0  0  0  0  0  0  0  0  0  0
    3.0490   -2.4970   42.4060 C   0  0  0  0  0  0  0  0  0  0  0  0
    2.7450   -3.1530   43.5870 C   0  0  0  0  0  0  0  0  0  0  0  0
    3.6170   -3.6840   44.6360 C   0  0  0  0  0  0  0  0  0  0  0  0
    2.8220   -4.1900   45.5970 C   0  0  0  0  0  0  0  0  0  0  0  0
    0.7070   -5.4490   45.2000 C   0  0  0  0  0  0  0  0  0  0  0  0
   -0.1430   -5.9230   46.1260 C   0  0  0  0  0  0  0  0  0  0  0  0
   -0.7750   -7.2480   46.0630 C   0  0  0  0  0  0  0  0  0  0  0  0
   -1.9300   -7.4920   45.3080 C   0  0  0  0  0  0  0  0  0  0  0  0
   -0.2390   -8.2920   46.8290 C   0  0  0  0  0  0  0  0  0  0  0  0
   -2.5210   -8.7580   45.2990 C   0  0  0  0  0  0  0  0  0  0  0  0
   -0.8290   -9.5580   46.8200 C   0  0  0  0  0  0  0  0  0  0  0  0
   -1.9680   -9.7920   46.0530 C   0  0  0  0  0  0  0  0  0  0  0  0
    5.1090   -3.5880   44.6450 C   0  0  0  0  0  0  0  0  0  0  0  0
    5.7200   -2.1980   44.9560 C   0  0  1  0  0  0  0  0  0  0  0  0
    4.7680   -1.2990   45.7570 C   0  0  0  0  0  0  0  0  0  0  0  0
    7.1200   -2.2840   45.5460 C   0  0  0  0  0  0  0  0  0  0  0  0
    7.9960   -1.1900   45.5650 C   0  0  0  0  0  0  0  0  0  0  0  0
    7.5500   -3.4920   46.1200 C   0  0  0  0  0  0  0  0  0  0  0  0
    9.2670   -1.3010   46.1340 C   0  0  0  0  0  0  0  0  0  0  0  0
    8.8210   -3.6030   46.6860 C   0  0  0  0  0  0  0  0  0  0  0  0
    9.6800   -2.5080   46.6920 C   0  0  0  0  0  0  0  0  0  0  0  0
  1  4  2  0
  1  2  1  0
  2  7  2  0
  2  3  1  0
  3 10  1  6
  3  9  1  0
  4  5  1  0
  5  6  2  0
  6  7  1  0
  7  8  1  0
  8 18  1  0
  8  9  2  0
 10 11  2  3
 11 12  1  0
 12 13  2  0
 12 14  1  0
 13 15  1  0
 14 16  2  0
 15 17  2  0
 16 17  1  0
 18 19  1  0
 19 21  1  0
 19 20  1  1
 21 22  2  0
 21 23  1  0
 22 24  1  0
 23 25  2  0
 24 26  2  0
 25 26  1  0
M  END
>  <vina_dock>  (617) 
-9.07

$$$$
O14757_PocketFlow_idx-in-all-generaetd-604
     RDKit          3D

 21 24  0  0  0  0  0  0  0  0999 V2000
    2.9990   -4.0300   44.4090 C   0  0  0  0  0  0  0  0  0  0  0  0
    3.4930   -5.2800   44.4000 N   0  0  0  0  0  0  0  0  0  0  0  0
    2.6150   -6.2700   44.7070 C   0  0  0  0  0  0  0  0  0  0  0  0
    1.2830   -6.0720   45.0180 C   0  0  0  0  0  0  0  0  0  0  0  0
    1.7060   -3.7700   44.7050 N   0  0  0  0  0  0  0  0  0  0  0  0
    0.8420   -4.7980   45.0120 N   0  0  0  0  0  0  0  0  0  0  0  0
    3.8710   -2.8840   44.0900 C   0  0  0  0  0  0  0  0  0  0  0  0
    7.0200   -1.5560   45.1870 N   0  0  0  0  0  0  0  0  0  0  0  0
    5.8870   -1.5470   44.4030 C   0  0  0  0  0  0  0  0  0  0  0  0
    7.0040   -2.6270   46.0320 C   0  0  0  0  0  0  0  0  0  0  0  0
    5.5120   -0.6320   43.4150 C   0  0  0  0  0  0  0  0  0  0  0  0
    5.1100   -2.6580   44.7590 C   0  0  0  0  0  0  0  0  0  0  0  0
    5.8430   -3.3240   45.7940 C   0  0  0  0  0  0  0  0  0  0  0  0
    4.3040   -0.8500   42.7610 C   0  0  0  0  0  0  0  0  0  0  0  0
    3.5070   -1.9450   43.0890 C   0  0  0  0  0  0  0  0  0  0  0  0
    0.3040   -7.1290   45.3550 C   0  0  0  0  0  0  0  0  0  0  0  0
   -0.9460   -7.1850   44.7030 C   0  0  0  0  0  0  0  0  0  0  0  0
    0.5520   -8.1200   46.3250 C   0  0  0  0  0  0  0  0  0  0  0  0
   -1.8920   -8.1720   44.9990 C   0  0  0  0  0  0  0  0  0  0  0  0
   -0.3930   -9.1100   46.6240 C   0  0  0  0  0  0  0  0  0  0  0  0
   -1.6150   -9.1350   45.9610 C   0  0  0  0  0  0  0  0  0  0  0  0
  1  7  1  0
  1  2  2  0
  1  5  1  0
  2  3  1  0
  3  4  1  0
  4  6  2  0
  4 16  1  0
  5  6  1  0
  7 15  1  0
  7 12  2  0
  8  9  1  0
  8 10  1  0
  9 11  2  0
  9 12  1  0
 10 13  2  0
 11 14  1  0
 12 13  1  0
 14 15  2  0
 16 17  2  0
 16 18  1  0
 17 19  1  0
 18 20  2  0
 19 21  2  0
 20 21  1  0
M  END
>  <vina_dock>  (618) 
-9.124

$$$$
O14757_PocketFlow_idx-in-all-generaetd-254
     RDKit          3D

 22 24  0  0  0  0  0  0  0  0999 V2000
    0.3630   -4.7260   46.2360 C   0  0  0  0  0  0  0  0  0  0  0  0
   -0.0700   -5.9960   46.2950 C   0  0  0  0  0  0  0  0  0  0  0  0
    1.2380   -4.1230   45.2350 C   0  0  0  0  0  0  0  0  0  0  0  0
    3.4300   -3.2420   44.6030 C   0  0  0  0  0  0  0  0  0  0  0  0
    2.5680   -3.8180   45.5530 C   0  0  0  0  0  0  0  0  0  0  0  0
    2.9220   -2.9920   43.3180 C   0  0  0  0  0  0  0  0  0  0  0  0
    1.6000   -3.3040   42.9910 C   0  0  0  0  0  0  0  0  0  0  0  0
    0.7610   -3.8700   43.9470 C   0  0  0  0  0  0  0  0  0  0  0  0
    4.8220   -2.9100   44.9480 C   0  0  0  0  0  0  0  0  0  0  0  0
    6.8660   -3.3680   46.1980 C   0  0  0  0  0  0  0  0  0  0  0  0
    5.5440   -3.6840   45.8710 C   0  0  0  0  0  0  0  0  0  0  0  0
    7.4880   -2.2720   45.6060 C   0  0  0  0  0  0  0  0  0  0  0  0
    6.7900   -1.4920   44.6890 C   0  0  0  0  0  0  0  0  0  0  0  0
    5.4680   -1.8090   44.3630 C   0  0  0  0  0  0  0  0  0  0  0  0
    0.1390   -7.2040   45.3990 C   0  0  1  0  0  0  0  0  0  0  0  0
    1.2350   -8.2080   45.7700 C   0  0  0  0  0  0  0  0  0  0  0  0
   -1.1840   -7.9250   45.1570 C   0  0  0  0  0  0  0  0  0  0  0  0
   -1.9350   -7.6540   44.0030 C   0  0  0  0  0  0  0  0  0  0  0  0
   -1.6820   -8.8600   46.0790 C   0  0  0  0  0  0  0  0  0  0  0  0
   -3.1490   -8.3050   43.7740 C   0  0  0  0  0  0  0  0  0  0  0  0
   -2.8950   -9.5100   45.8480 C   0  0  0  0  0  0  0  0  0  0  0  0
   -3.6280   -9.2330   44.6970 C   0  0  0  0  0  0  0  0  0  0  0  0
  1  3  1  0
  1  2  2  3
  2 15  1  0
  3  8  1  0
  3  5  2  0
  4  6  2  0
  4  9  1  0
  4  5  1  0
  6  7  1  0
  7  8  2  0
  9 14  1  0
  9 11  2  0
 10 12  2  0
 10 11  1  0
 12 13  1  0
 13 14  2  0
 15 17  1  0
 15 16  1  1
 17 18  2  0
 17 19  1  0
 18 20  1  0
 19 21  2  0
 20 22  2  0
 21 22  1  0
M  END
>  <vina_dock>  (619) 
-8.86

$$$$
O14757_PocketFlow_idx-in-all-generaetd-181
     RDKit          3D

 35 37  0  0  0  0  0  0  0  0999 V2000
    3.7240   -5.8620   44.9990 C   0  0  0  0  0  0  0  0  0  0  0  0
    2.6440   -6.0120   44.2130 C   0  0  0  0  0  0  0  0  0  0  0  0
    3.7330   -5.3800   46.3620 C   0  0  0  0  0  0  0  0  0  0  0  0
    4.4240   -4.3300   46.8390 C   0  0  0  0  0  0  0  0  0  0  0  0
    5.2820   -3.4030   46.0830 C   0  0  0  0  0  0  0  0  0  0  0  0
    6.6300   -3.1500   46.4130 C   0  0  0  0  0  0  0  0  0  0  0  0
    7.3560   -2.2050   45.6680 C   0  0  0  0  0  0  0  0  0  0  0  0
    4.6900   -2.6740   45.0320 C   0  0  0  0  0  0  0  0  0  0  0  0
    6.7570   -1.5070   44.6150 C   0  0  0  0  0  0  0  0  0  0  0  0
    5.4170   -1.7370   44.2820 C   0  0  0  0  0  0  0  0  0  0  0  0
    7.3240   -3.8440   47.5350 C   0  0  0  0  0  0  0  0  0  0  0  0
    7.5970   -5.3880   49.2600 C   0  0  1  0  0  0  0  0  0  0  0  0
    8.8990   -4.7020   48.8610 C   0  0  0  0  0  0  0  0  0  0  0  0
    6.5350   -4.5070   48.6320 C   0  0  0  0  0  0  0  0  0  0  0  0
    8.6130   -3.9080   47.6530 N   0  0  0  0  0  0  0  0  0  0  0  0
    7.4870   -6.8310   48.7700 C   0  0  0  0  0  0  0  0  0  0  0  0
    8.3930   -7.3910   48.1580 O   0  0  0  0  0  0  0  0  0  0  0  0
    6.2280   -7.6010   49.0340 C   0  0  0  0  0  0  0  0  0  0  0  0
    4.3220   -8.7920   48.1250 C   0  0  0  0  0  0  0  0  0  0  0  0
    3.4350   -9.3650   46.7670 Cl  0  0  0  0  0  0  0  0  0  0  0  0
    5.5010   -8.0750   47.9310 C   0  0  0  0  0  0  0  0  0  0  0  0
    3.8520   -9.0460   49.4110 C   0  0  0  0  0  0  0  0  0  0  0  0
    4.5700   -8.5830   50.5130 C   0  0  0  0  0  0  0  0  0  0  0  0
    5.7540   -7.8630   50.3270 C   0  0  0  0  0  0  0  0  0  0  0  0
    4.7500   -0.9660   43.1700 C   0  0  0  0  0  0  0  0  0  0  0  0
    5.6390   -0.3720   42.3260 F   0  0  0  0  0  0  0  0  0  0  0  0
    3.9540   -1.7430   42.3840 F   0  0  0  0  0  0  0  0  0  0  0  0
    3.9560    0.0340   43.6410 F   0  0  0  0  0  0  0  0  0  0  0  0
    1.2010   -5.6770   44.5280 C   0  0  1  0  0  0  0  0  0  0  0  0
    0.7200   -6.5560   45.6850 C   0  0  0  0  0  0  0  0  0  0  0  0
    1.0870   -4.1730   44.8450 C   0  0  0  0  0  0  0  0  0  0  0  0
    1.3510   -3.2240   43.6690 C   0  0  0  0  0  0  0  0  0  0  0  0
    0.3970   -3.4370   42.4910 C   0  0  0  0  0  0  0  0  0  0  0  0
    0.7550   -2.5940   41.2650 C   0  0  0  0  0  0  0  0  0  0  0  0
    0.8280   -1.1030   41.5550 C   0  0  0  0  0  0  0  0  0  0  0  0
  1  2  2  3
  1  3  1  0
  2 29  1  0
  3  4  2  3
  4  5  1  0
  5  8  2  0
  5  6  1  0
  6  7  2  0
  6 11  1  0
  7  9  1  0
  8 10  1  0
  9 10  2  0
 10 25  1  0
 11 15  1  0
 11 14  1  0
 12 14  1  0
 12 16  1  6
 12 13  1  0
 13 15  1  0
 16 17  2  0
 16 18  1  0
 18 21  1  0
 18 24  2  0
 19 20  1  0
 19 21  2  0
 19 22  1  0
 22 23  2  0
 23 24  1  0
 25 26  1  0
 25 27  1  0
 25 28  1  0
 29 31  1  0
 29 30  1  1
 31 32  1  0
 32 33  1  0
 33 34  1  0
 34 35  1  0
M  END
>  <vina_dock>  (620) 
-8.321

$$$$
O14757_PocketFlow_idx-in-all-generaetd-44
     RDKit          3D

 13 14  0  0  0  0  0  0  0  0999 V2000
    5.4650   -3.0530   45.3390 C   0  0  0  0  0  0  0  0  0  0  0  0
    6.3520   -2.0260   45.0070 C   0  0  0  0  0  0  0  0  0  0  0  0
    4.2420   -3.1780   44.6730 C   0  0  0  0  0  0  0  0  0  0  0  0
    3.8680   -2.2730   43.6660 C   0  0  0  0  0  0  0  0  0  0  0  0
    7.6490   -1.8710   45.7420 C   0  0  0  0  0  0  0  0  0  0  0  0
    4.7610   -1.2370   43.3520 C   0  0  0  0  0  0  0  0  0  0  0  0
    5.9850   -1.1110   44.0150 C   0  0  0  0  0  0  0  0  0  0  0  0
    2.5800   -2.4070   42.9660 C   0  0  0  0  0  0  0  0  0  0  0  0
    1.6540   -3.3970   43.3360 C   0  0  0  0  0  0  0  0  0  0  0  0
    2.2370   -1.5480   41.9100 C   0  0  0  0  0  0  0  0  0  0  0  0
    0.4310   -3.5240   42.6730 C   0  0  0  0  0  0  0  0  0  0  0  0
    1.0140   -1.6720   41.2460 C   0  0  0  0  0  0  0  0  0  0  0  0
    0.1110   -2.6620   41.6270 C   0  0  0  0  0  0  0  0  0  0  0  0
  1  3  2  0
  1  2  1  0
  2  7  2  0
  2  5  1  0
  3  4  1  0
  4  8  1  0
  4  6  2  0
  6  7  1  0
  8 10  1  0
  8  9  2  0
  9 11  1  0
 10 12  2  0
 11 13  2  0
 12 13  1  0
M  END
>  <vina_dock>  (621) 
-7.622

$$$$
O14757_PocketFlow_idx-in-all-generaetd-848
     RDKit          3D

 27 31  0  0  0  0  0  0  0  0999 V2000
    9.3280   -1.7940   46.8270 C   0  0  0  0  0  0  0  0  0  0  0  0
    8.7490   -1.1140   45.7500 C   0  0  0  0  0  0  0  0  0  0  0  0
    8.6740   -2.8980   47.3830 C   0  0  0  0  0  0  0  0  0  0  0  0
    7.4320   -3.3020   46.8760 C   0  0  0  0  0  0  0  0  0  0  0  0
    6.8410   -2.6060   45.8020 C   0  0  0  0  0  0  0  0  0  0  0  0
    7.5130   -1.5190   45.2360 C   0  0  0  0  0  0  0  0  0  0  0  0
    6.7210   -4.5250   47.3900 C   0  0  0  0  0  0  0  0  0  0  0  0
    5.2950   -4.3080   47.6100 N   0  0  0  0  0  0  0  0  0  0  0  0
    4.6250   -3.5110   46.5710 C   0  0  1  0  0  0  0  0  0  0  0  0
    5.5010   -3.1470   45.3270 C   0  0  1  0  0  0  0  0  0  0  0  0
    3.3450   -4.0680   46.1680 N   0  0  0  0  0  0  0  0  0  0  0  0
    2.7660   -3.7220   44.9540 C   0  0  0  0  0  0  0  0  0  0  0  0
    1.5160   -4.2520   44.6200 C   0  0  0  0  0  0  0  0  0  0  0  0
    0.8570   -3.8680   43.4490 C   0  0  0  0  0  0  0  0  0  0  0  0
    1.4290   -2.9190   42.5930 C   0  0  0  0  0  0  0  0  0  0  0  0
    2.6800   -2.3810   42.9260 C   0  0  0  0  0  0  0  0  0  0  0  0
    3.3480   -2.7810   44.0950 C   0  0  0  0  0  0  0  0  0  0  0  0
    4.6960   -2.1960   44.4280 C   0  0  0  0  0  0  0  0  0  0  0  0
   10.6420   -1.3470   47.3550 C   0  0  0  0  0  0  0  0  0  0  0  0
   11.4090   -0.3950   46.7190 N   0  0  0  0  0  0  0  0  0  0  0  0
   11.1510   -1.8610   48.4480 N   0  0  0  0  0  0  0  0  0  0  0  0
   12.7260   -0.4230   47.3180 C   0  0  0  0  0  0  0  0  0  0  0  0
   12.4420   -1.1440   48.6360 C   0  0  0  0  0  0  0  0  0  0  0  0
    0.7290   -2.5090   41.3210 C   0  0  0  0  0  0  0  0  0  0  0  0
    1.6050   -2.1830   40.3310 F   0  0  0  0  0  0  0  0  0  0  0  0
   -0.0690   -3.4860   40.8070 F   0  0  0  0  0  0  0  0  0  0  0  0
   -0.0760   -1.4210   41.4820 F   0  0  0  0  0  0  0  0  0  0  0  0
  1  2  2  0
  1 19  1  0
  1  3  1  0
  2  6  1  0
  3  4  2  0
  4  5  1  0
  4  7  1  0
  5  6  2  0
  5 10  1  0
  7  8  1  0
  9  8  1  1
  9 10  1  0
  9 11  1  0
 10 18  1  1
 11 12  1  0
 12 17  2  0
 12 13  1  0
 13 14  2  0
 14 15  1  0
 15 24  1  0
 15 16  2  0
 16 17  1  0
 17 18  1  0
 19 20  1  0
 19 21  1  0
 20 22  1  0
 21 23  1  0
 22 23  1  0
 24 25  1  0
 24 26  1  0
 24 27  1  0
M  END
>  <vina_dock>  (622) 
-10.562

$$$$
O14757_PocketFlow_idx-in-all-generaetd-677
     RDKit          3D

 18 18  0  0  0  0  0  0  0  0999 V2000
    1.1190   -3.8690   43.8200 C   0  0  0  0  0  0  0  0  0  0  0  0
    2.4280   -3.3870   43.8720 C   0  0  0  0  0  0  0  0  0  0  0  0
    3.4040   -4.0610   44.6130 C   0  0  0  0  0  0  0  0  0  0  0  0
    0.8410   -5.0280   44.5310 C   0  0  0  0  0  0  0  0  0  0  0  0
    1.7580   -5.7090   45.2610 N   0  0  0  0  0  0  0  0  0  0  0  0
    3.0130   -5.2140   45.2850 C   0  0  0  0  0  0  0  0  0  0  0  0
    0.2590   -3.1250   43.0670 O   0  0  0  0  0  0  0  0  0  0  0  0
    0.7210   -2.6330   41.8170 C   0  0  0  0  0  0  0  0  0  0  0  0
    0.5720   -1.1350   41.6050 C   0  0  0  0  0  0  0  0  0  0  0  0
    1.4880   -0.3470   41.4320 O   0  0  0  0  0  0  0  0  0  0  0  0
   -0.7080   -0.7150   41.5870 O   0  0  0  0  0  0  0  0  0  0  0  0
    4.8210   -3.5710   44.6730 C   0  0  0  0  0  0  0  0  0  0  0  0
    4.9110   -2.1040   45.0260 C   0  0  0  0  0  0  0  0  0  0  0  0
    4.7450   -1.7300   46.1920 O   0  0  0  0  0  0  0  0  0  0  0  0
    5.2430   -1.1730   43.8750 C   0  0  0  0  0  0  0  0  0  0  0  0
    4.5300   -0.0150   43.9260 F   0  0  0  0  0  0  0  0  0  0  0  0
    6.5560   -0.8090   43.8890 F   0  0  0  0  0  0  0  0  0  0  0  0
    5.0100   -1.7180   42.6510 F   0  0  0  0  0  0  0  0  0  0  0  0
  1  7  1  0
  1  2  2  0
  1  4  1  0
  2  3  1  0
  3 12  1  0
  3  6  2  0
  4  5  2  0
  5  6  1  0
  7  8  1  0
  8  9  1  0
  9 10  2  0
  9 11  1  0
 12 13  1  0
 13 15  1  0
 13 14  2  0
 15 18  1  0
 15 17  1  0
 15 16  1  0
M  END
>  <vina_dock>  (623) 
-6.614

$$$$
O14757_PocketFlow_idx-in-all-generaetd-551
     RDKit          3D

 28 32  0  0  0  0  0  0  0  0999 V2000
    0.7570   -7.1370   45.3510 O   0  0  0  0  0  0  0  0  0  0  0  0
    0.4220   -5.9070   45.8090 C   0  0  0  0  0  0  0  0  0  0  0  0
   -0.4470   -5.6510   46.6250 O   0  0  0  0  0  0  0  0  0  0  0  0
    1.2710   -4.8660   45.1700 C   0  0  0  0  0  0  0  0  0  0  0  0
    1.6400   -3.3490   43.3040 C   0  0  0  0  0  0  0  0  0  0  0  0
    1.0970   -2.8380   41.9960 C   0  0  0  0  0  0  0  0  0  0  0  0
    0.8860   -4.3560   43.9390 C   0  0  0  0  0  0  0  0  0  0  0  0
    2.8520   -2.8510   43.8640 C   0  0  0  0  0  0  0  0  0  0  0  0
    1.3800   -1.3620   41.9080 C   0  0  0  0  0  0  0  0  0  0  0  0
    3.5390   -1.7750   43.1590 N   0  0  0  0  0  0  0  0  0  0  0  0
    3.2590   -3.4220   45.1040 C   0  0  0  0  0  0  0  0  0  0  0  0
    2.8750   -1.1650   41.9960 C   0  0  0  0  0  0  0  0  0  0  0  0
    2.4450   -4.3870   45.7470 C   0  0  0  0  0  0  0  0  0  0  0  0
    4.8030   -1.2140   43.3870 C   0  0  0  0  0  0  0  0  0  0  0  0
    4.4330   -3.0790   45.8100 N   0  0  0  0  0  0  0  0  0  0  0  0
    5.7400   -1.7980   44.3330 C   0  0  0  0  0  0  0  0  0  0  0  0
    5.2100   -0.2420   42.7380 O   0  0  0  0  0  0  0  0  0  0  0  0
    5.5940   -3.1100   44.9520 C   0  0  1  0  0  0  0  0  0  0  0  0
    6.8760   -1.2130   44.7300 C   0  0  0  0  0  0  0  0  0  0  0  0
    6.8770   -3.0340   45.7590 C   0  0  0  0  0  0  0  0  0  0  0  0
    7.5990   -1.9650   45.6190 N   0  0  0  0  0  0  0  0  0  0  0  0
    0.2240   -8.2440   46.0870 C   0  0  0  0  0  0  0  0  0  0  0  0
   -1.1580   -8.5530   45.5730 C   0  0  0  0  0  0  0  0  0  0  0  0
   -1.9630   -9.4930   46.2320 C   0  0  0  0  0  0  0  0  0  0  0  0
   -1.6760   -7.8770   44.4590 C   0  0  0  0  0  0  0  0  0  0  0  0
   -3.2530   -9.7650   45.7750 C   0  0  0  0  0  0  0  0  0  0  0  0
   -2.9660   -8.1510   44.0020 C   0  0  0  0  0  0  0  0  0  0  0  0
   -3.7540   -9.0950   44.6590 C   0  0  0  0  0  0  0  0  0  0  0  0
  1  2  1  0
  1 22  1  0
  2  4  1  0
  2  3  2  0
  4  7  2  0
  4 13  1  0
  5  6  1  0
  5  8  2  0
  5  7  1  0
  6  9  1  0
  8 10  1  0
  8 11  1  0
  9 12  1  0
 10 12  1  0
 10 14  1  0
 11 13  2  0
 11 15  1  0
 14 17  2  0
 14 16  1  0
 18 15  1  1
 16 19  2  0
 16 18  1  0
 18 20  1  0
 19 21  1  0
 20 21  2  0
 22 23  1  0
 23 25  1  0
 23 24  2  0
 24 26  1  0
 25 27  2  0
 26 28  2  0
 27 28  1  0
M  END
>  <vina_dock>  (624) 
-10.057

$$$$
O14757_PocketFlow_idx-in-all-generaetd-595
     RDKit          3D

  5  4  0  0  0  0  0  0  0  0999 V2000
    4.8660   -2.1550   43.1250 F   0  0  0  0  0  0  0  0  0  0  0  0
    5.3200   -1.1100   43.8370 C   0  0  0  0  0  0  0  0  0  0  0  0
    6.5960   -1.3330   44.1920 F   0  0  0  0  0  0  0  0  0  0  0  0
    4.5690   -0.9600   44.9410 F   0  0  0  0  0  0  0  0  0  0  0  0
    5.2500    0.0050   43.0920 F   0  0  0  0  0  0  0  0  0  0  0  0
  1  2  1  0
  2  5  1  0
  2  3  1  0
  2  4  1  0
M  END
>  <vina_dock>  (625) 
-2.979

$$$$
O14757_PocketFlow_idx-in-all-generaetd-433
     RDKit          3D

  8  7  0  0  0  0  0  0  0  0999 V2000
    1.4450   -2.9500   42.7320 C   0  0  0  0  0  0  0  0  0  0  0  0
    2.6190   -2.3010   42.7110 C   0  0  0  0  0  0  0  0  0  0  0  0
    0.3100   -2.6930   41.7980 C   0  0  0  0  0  0  0  0  0  0  0  0
    0.3870   -3.4470   40.6710 F   0  0  0  0  0  0  0  0  0  0  0  0
    0.3170   -1.3970   41.3930 F   0  0  0  0  0  0  0  0  0  0  0  0
    3.6860   -2.5840   43.6430 C   0  0  0  0  0  0  0  0  0  0  0  0
    4.7770   -1.8340   43.8580 C   0  0  0  0  0  0  0  0  0  0  0  0
    5.1670   -0.5440   43.2090 C   0  0  0  0  0  0  0  0  0  0  0  0
  1  3  1  0
  1  2  2  3
  2  6  1  0
  3  4  1  0
  3  5  1  0
  6  7  2  3
  7  8  1  0
M  END
>  <vina_dock>  (626) 
-4.489

$$$$
O14757_PocketFlow_idx-in-all-generaetd-961
     RDKit          3D

 22 22  0  0  0  0  0  0  0  0999 V2000
    2.5610   -4.7380   46.0140 C   0  0  0  0  0  0  0  0  0  0  0  0
    1.8670   -5.0470   44.6650 C   0  0  2  0  0  0  0  0  0  0  0  0
    0.7430   -4.0420   44.3900 C   0  0  0  0  0  0  0  0  0  0  0  0
    1.3210   -6.4920   44.6840 C   0  0  0  0  0  0  0  0  0  0  0  0
   -0.0600   -6.6960   44.0490 C   0  0  0  0  0  0  0  0  0  0  0  0
   -1.0500   -7.4070   44.9660 C   0  0  0  0  0  0  0  0  0  0  0  0
   -0.9280   -6.9000   46.3740 C   0  0  0  0  0  0  0  0  0  0  0  0
   -0.3900   -7.4770   47.3050 O   0  0  0  0  0  0  0  0  0  0  0  0
   -1.4790   -5.6840   46.5420 O   0  0  0  0  0  0  0  0  0  0  0  0
    4.0860   -4.9200   46.0070 C   0  0  0  0  0  0  0  0  0  0  0  0
    4.8530   -3.8690   46.8100 C   0  0  0  0  0  0  0  0  0  0  0  0
    5.0490   -2.5510   46.0520 C   0  0  0  0  0  0  0  0  0  0  0  0
    5.3320   -2.7430   44.5600 C   0  0  0  0  0  0  0  0  0  0  0  0
    4.5150   -1.8020   43.7160 C   0  0  0  0  0  0  0  0  0  0  0  0
    3.3370   -2.2200   43.0930 C   0  0  0  0  0  0  0  0  0  0  0  0
    4.9210   -0.4930   43.5010 C   0  0  0  0  0  0  0  0  0  0  0  0
    2.6360   -1.3100   42.3120 C   0  0  0  0  0  0  0  0  0  0  0  0
    4.2230    0.3730   42.7380 N   0  0  0  0  0  0  0  0  0  0  0  0
    3.0660   -0.0390   42.1370 N   0  0  0  0  0  0  0  0  0  0  0  0
    1.3700   -1.6640   41.6130 C   0  0  0  0  0  0  0  0  0  0  0  0
    1.1490   -2.6590   40.9480 O   0  0  0  0  0  0  0  0  0  0  0  0
    0.4050   -0.7330   41.7790 O   0  0  0  0  0  0  0  0  0  0  0  0
  1  2  1  0
  1 10  1  0
  2  3  1  1
  2  4  1  0
  4  5  1  0
  5  6  1  0
  6  7  1  0
  7  9  1  0
  7  8  2  0
 10 11  1  0
 11 12  1  0
 12 13  1  0
 13 14  1  0
 14 15  2  0
 14 16  1  0
 15 17  1  0
 16 18  2  0
 17 20  1  0
 17 19  2  0
 18 19  1  0
 20 21  2  0
 20 22  1  0
M  END
>  <vina_dock>  (627) 
-6.81

$$$$
O14757_PocketFlow_idx-in-all-generaetd-958
     RDKit          3D

 18 18  0  0  0  0  0  0  0  0999 V2000
    2.5640   -4.6200   45.3200 C   0  0  0  0  0  0  0  0  0  0  0  0
    3.6650   -4.5930   44.2520 C   0  0  0  0  0  0  0  0  0  0  0  0
    4.4640   -3.3120   44.2270 C   0  0  0  0  0  0  0  0  0  0  0  0
    6.3350   -1.9720   45.0080 C   0  0  0  0  0  0  0  0  0  0  0  0
    5.6010   -3.1640   45.0330 C   0  0  0  0  0  0  0  0  0  0  0  0
    5.9450   -0.9250   44.1690 C   0  0  0  0  0  0  0  0  0  0  0  0
    4.8160   -1.0660   43.3630 C   0  0  0  0  0  0  0  0  0  0  0  0
    4.0810   -2.2520   43.3920 C   0  0  0  0  0  0  0  0  0  0  0  0
    7.5450   -1.8160   45.8590 C   0  0  0  0  0  0  0  0  0  0  0  0
    8.1100   -0.6700   46.0680 N   0  0  0  0  0  0  0  0  0  0  0  0
    8.1000   -2.9020   46.4670 N   0  0  0  0  0  0  0  0  0  0  0  0
    1.1270   -4.5940   44.7790 C   0  0  0  0  0  0  0  0  0  0  0  0
    0.7870   -3.4270   43.8450 C   0  0  0  0  0  0  0  0  0  0  0  0
    0.3220   -3.8680   42.4850 C   0  0  0  0  0  0  0  0  0  0  0  0
    0.5480   -3.2770   41.3010 C   0  0  0  0  0  0  0  0  0  0  0  0
    1.3350   -2.0870   41.0770 C   0  0  0  0  0  0  0  0  0  0  0  0
    1.0300   -0.9020   41.6270 C   0  0  0  0  0  0  0  0  0  0  0  0
    1.8240    0.3440   41.4080 C   0  0  0  0  0  0  0  0  0  0  0  0
  1  2  1  0
  1 12  1  0
  2  3  1  0
  3  8  2  0
  3  5  1  0
  4  6  1  0
  4  5  2  0
  4  9  1  0
  6  7  2  0
  7  8  1  0
  9 10  2  3
  9 11  1  0
 12 13  1  0
 13 14  1  0
 14 15  2  3
 15 16  1  0
 16 17  2  3
 17 18  1  0
M  END
>  <vina_dock>  (628) 
-7.061

$$$$
O14757_PocketFlow_idx-in-all-generaetd-732
     RDKit          3D

 35 37  0  0  0  0  0  0  0  0999 V2000
    1.7080   -4.2130   45.0520 C   0  0  0  0  0  0  0  0  0  0  0  0
    2.8680   -5.0990   44.5830 C   0  0  0  0  0  0  0  0  0  0  0  0
    3.1320   -6.2870   45.5140 C   0  0  0  0  0  0  0  0  0  0  0  0
    2.4770   -7.5890   45.0390 C   0  0  0  0  0  0  0  0  0  0  0  0
    1.8690   -8.4160   46.1770 C   0  0  0  0  0  0  0  0  0  0  0  0
    0.3770   -8.6840   45.9320 C   0  0  0  0  0  0  0  0  0  0  0  0
   -0.4300   -7.4370   45.5250 C   0  0  1  0  0  0  0  0  0  0  0  0
   -1.5470   -7.7670   44.5340 C   0  0  0  0  0  0  0  0  0  0  0  0
   -0.9080   -6.6950   46.7600 C   0  0  0  0  0  0  0  0  0  0  0  0
   -0.9170   -7.1410   47.8980 O   0  0  0  0  0  0  0  0  0  0  0  0
   -1.3400   -5.4400   46.5340 O   0  0  0  0  0  0  0  0  0  0  0  0
    1.0510   -3.3750   43.9470 C   0  0  0  0  0  0  0  0  0  0  0  0
    1.9560   -3.1140   42.7430 C   0  0  0  0  0  0  0  0  0  0  0  0
    2.4860   -1.6760   42.6730 C   0  0  0  0  0  0  0  0  0  0  0  0
    4.0180   -1.5130   42.6790 C   0  0  1  0  0  0  0  0  0  0  0  0
    4.3830   -0.0340   42.8500 C   0  0  0  0  0  0  0  0  0  0  0  0
    4.7680   -2.4220   43.6790 C   0  0  0  0  0  0  0  0  0  0  0  0
    4.9750   -1.8980   45.1090 C   0  0  0  0  0  0  0  0  0  0  0  0
    6.3160   -2.2190   45.7400 C   0  0  0  0  0  0  0  0  0  0  0  0
    7.4390   -1.4520   45.3660 C   0  0  0  0  0  0  0  0  0  0  0  0
    6.4510   -3.2800   46.6500 C   0  0  0  0  0  0  0  0  0  0  0  0
    8.6930   -1.7180   45.9020 C   0  0  0  0  0  0  0  0  0  0  0  0
    5.3870   -4.0300   47.0080 N   0  0  0  0  0  0  0  0  0  0  0  0
    7.7340   -3.5390   47.1850 C   0  0  0  0  0  0  0  0  0  0  0  0
    8.8400   -2.7590   46.8110 C   0  0  0  0  0  0  0  0  0  0  0  0
    5.5630   -5.0380   47.8930 C   0  0  0  0  0  0  0  0  0  0  0  0
    7.8800   -4.5950   48.0960 C   0  0  0  0  0  0  0  0  0  0  0  0
    6.7810   -5.3720   48.4620 C   0  0  0  0  0  0  0  0  0  0  0  0
    6.9030   -6.5090   49.4390 C   0  0  0  0  0  0  0  0  0  0  0  0
    5.9550   -7.6520   49.1670 C   0  0  0  0  0  0  0  0  0  0  0  0
    6.0580   -8.3960   47.9820 C   0  0  0  0  0  0  0  0  0  0  0  0
    4.9680   -7.9990   50.1040 C   0  0  0  0  0  0  0  0  0  0  0  0
    5.1910   -9.4610   47.7360 C   0  0  0  0  0  0  0  0  0  0  0  0
    4.0990   -9.0620   49.8530 C   0  0  0  0  0  0  0  0  0  0  0  0
    4.2100   -9.7920   48.6710 C   0  0  0  0  0  0  0  0  0  0  0  0
  1 12  1  0
  1  2  1  0
  2  3  1  0
  3  4  1  0
  4  5  1  0
  5  6  1  0
  6  7  1  0
  7  8  1  1
  7  9  1  0
  9 11  1  0
  9 10  2  0
 12 13  1  0
 13 14  1  0
 14 15  1  0
 15 16  1  1
 15 17  1  0
 17 18  1  0
 18 19  1  0
 19 20  2  0
 19 21  1  0
 20 22  1  0
 21 23  2  0
 21 24  1  0
 22 25  2  0
 23 26  1  0
 24 25  1  0
 24 27  2  0
 26 28  2  0
 27 28  1  0
 28 29  1  0
 29 30  1  0
 30 31  2  0
 30 32  1  0
 31 33  1  0
 32 34  2  0
 33 35  2  0
 34 35  1  0
M  END
>  <vina_dock>  (629) 
-7.146

$$$$
O14757_PocketFlow_idx-in-all-generaetd-335
     RDKit          3D

 34 35  0  0  0  0  0  0  0  0999 V2000
    2.1800   -9.6020   46.9860 C   0  0  0  0  0  0  0  0  0  0  0  0
    1.6660   -8.5260   46.2450 C   0  0  0  0  0  0  0  0  0  0  0  0
    0.2840   -8.2800   46.1800 C   0  0  0  0  0  0  0  0  0  0  0  0
   -0.5790   -9.1430   46.8730 C   0  0  0  0  0  0  0  0  0  0  0  0
   -0.0760  -10.2100   47.6200 C   0  0  0  0  0  0  0  0  0  0  0  0
    1.2980  -10.4360   47.6800 C   0  0  0  0  0  0  0  0  0  0  0  0
    3.6690   -9.8330   47.0560 C   0  0  0  0  0  0  0  0  0  0  0  0
    4.3330   -8.9920   48.1290 C   0  0  0  0  0  0  0  0  0  0  0  0
    4.0540   -9.1270   49.3190 O   0  0  0  0  0  0  0  0  0  0  0  0
    5.2630   -8.0990   47.6350 N   0  0  0  0  0  0  0  0  0  0  0  0
    5.8620   -7.3830   48.5160 C   0  0  0  0  0  0  0  0  0  0  0  0
    6.7840   -6.4810   48.0760 N   0  0  0  0  0  0  0  0  0  0  0  0
    6.0020   -4.6420   49.2220 O   0  0  0  0  0  0  0  0  0  0  0  0
    6.8130   -5.1400   48.4420 C   0  0  0  0  0  0  0  0  0  0  0  0
    7.9610   -4.3580   47.7840 C   0  0  0  0  0  0  0  0  0  0  0  0
    8.1440   -3.1440   48.3820 F   0  0  0  0  0  0  0  0  0  0  0  0
    9.1530   -5.0050   47.8620 F   0  0  0  0  0  0  0  0  0  0  0  0
    7.7310   -4.1010   46.4690 F   0  0  0  0  0  0  0  0  0  0  0  0
   -0.2960   -7.1320   45.3770 C   0  0  2  0  0  0  0  0  0  0  0  0
   -1.9160   -7.8100   44.4840 Br  0  0  0  0  0  0  0  0  0  0  0  0
    0.6640   -6.5270   44.3330 C   0  0  0  0  0  0  0  0  0  0  0  0
    1.4630   -5.2680   44.6840 C   0  0  0  0  0  0  0  0  0  0  0  0
    2.8040   -5.1720   44.5800 C   0  0  0  0  0  0  0  0  0  0  0  0
    0.5830   -4.1250   45.1410 C   0  0  0  0  0  0  0  0  0  0  0  0
    0.2920   -3.2930   44.0280 O   0  0  0  0  0  0  0  0  0  0  0  0
    3.5880   -3.9810   44.9190 C   0  0  0  0  0  0  0  0  0  0  0  0
    3.8350   -3.0090   43.9430 C   0  0  0  0  0  0  0  0  0  0  0  0
    4.0950   -3.8130   46.2130 C   0  0  0  0  0  0  0  0  0  0  0  0
    4.5900   -1.8780   44.2700 C   0  0  0  0  0  0  0  0  0  0  0  0
    4.8490   -2.6820   46.5330 C   0  0  0  0  0  0  0  0  0  0  0  0
    5.0990   -1.7120   45.5620 C   0  0  0  0  0  0  0  0  0  0  0  0
    4.8490   -0.8540   43.2410 C   0  0  0  0  0  0  0  0  0  0  0  0
    4.5630    0.3260   43.3550 O   0  0  0  0  0  0  0  0  0  0  0  0
    5.4380   -1.2440   42.1010 F   0  0  0  0  0  0  0  0  0  0  0  0
  1  2  2  0
  1  7  1  0
  1  6  1  0
  2  3  1  0
  3 19  1  0
  3  4  2  0
  4  5  1  0
  5  6  2  0
  7  8  1  0
  8 10  1  0
  8  9  2  0
 10 11  2  3
 11 12  1  0
 12 14  1  0
 13 14  2  0
 14 15  1  0
 15 18  1  0
 15 17  1  0
 15 16  1  0
 19 21  1  0
 19 20  1  6
 21 22  1  0
 22 23  2  3
 22 24  1  0
 23 26  1  0
 24 25  1  0
 26 27  2  0
 26 28  1  0
 27 29  1  0
 28 30  2  0
 29 32  1  0
 29 31  2  0
 30 31  1  0
 32 34  1  0
 32 33  2  0
M  END
>  <vina_dock>  (630) 
-8.142

$$$$
O14757_PocketFlow_idx-in-all-generaetd-512
     RDKit          3D

 22 24  0  0  0  0  0  0  0  0999 V2000
   -0.8680   -6.9440   46.0410 C   0  0  0  0  0  0  0  0  0  0  0  0
   -1.0640   -7.8540   47.0130 C   0  0  0  0  0  0  0  0  0  0  0  0
   -0.0980   -7.1130   44.7580 C   0  0  1  0  0  0  0  0  0  0  0  0
   -0.9970   -7.1500   43.7280 F   0  0  0  0  0  0  0  0  0  0  0  0
    0.9360   -6.0190   44.5740 C   0  0  0  0  0  0  0  0  0  0  0  0
    5.6690   -0.7260   43.6370 C   0  0  0  0  0  0  0  0  0  0  0  0
    4.5230   -0.8300   42.8540 C   0  0  0  0  0  0  0  0  0  0  0  0
    5.9090   -1.6620   44.6370 C   0  0  0  0  0  0  0  0  0  0  0  0
    3.6090   -1.8720   43.0740 C   0  0  0  0  0  0  0  0  0  0  0  0
    5.0090   -2.7120   44.8490 C   0  0  0  0  0  0  0  0  0  0  0  0
    2.3780   -1.9860   42.2060 C   0  0  0  0  0  0  0  0  0  0  0  0
    3.8500   -2.8520   44.0660 C   0  0  0  0  0  0  0  0  0  0  0  0
    1.1950   -2.5550   42.9900 C   0  0  0  0  0  0  0  0  0  0  0  0
    2.8750   -3.9560   44.2490 C   0  0  0  0  0  0  0  0  0  0  0  0
    1.5730   -3.8260   43.7140 C   0  0  0  0  0  0  0  0  0  0  0  0
    3.1840   -5.1530   44.9160 C   0  0  0  0  0  0  0  0  0  0  0  0
    0.6160   -4.8380   43.8930 C   0  0  0  0  0  0  0  0  0  0  0  0
    2.2320   -6.1670   45.0780 C   0  0  0  0  0  0  0  0  0  0  0  0
   -0.5930   -9.2800   47.0260 C   0  0  0  0  0  0  0  0  0  0  0  0
    0.8600   -9.3680   47.3900 C   0  0  0  0  0  0  0  0  0  0  0  0
    1.8400   -9.6400   46.5130 C   0  0  0  0  0  0  0  0  0  0  0  0
    3.2870   -9.7260   46.8780 C   0  0  0  0  0  0  0  0  0  0  0  0
  1  3  1  0
  1  2  2  3
  2 19  1  0
  3  4  1  6
  3  5  1  0
  5 17  2  0
  5 18  1  0
  6  7  2  0
  6  8  1  0
  7  9  1  0
  8 10  2  0
  9 11  1  0
  9 12  2  0
 10 12  1  0
 11 13  1  0
 12 14  1  0
 13 15  1  0
 14 15  2  0
 14 16  1  0
 15 17  1  0
 16 18  2  0
 19 20  1  0
 20 21  2  3
 21 22  1  0
M  END
>  <vina_dock>  (631) 
-8.891

$$$$
O14757_PocketFlow_idx-in-all-generaetd-104
     RDKit          3D

 16 17  0  0  0  0  0  0  0  0999 V2000
    1.4760   -3.9200   43.8980 C   0  0  0  0  0  0  0  0  0  0  0  0
    2.8390   -3.6050   44.0580 C   0  0  0  0  0  0  0  0  0  0  0  0
    0.7700   -3.1710   42.9420 C   0  0  0  0  0  0  0  0  0  0  0  0
    3.4640   -2.5980   43.3050 C   0  0  0  0  0  0  0  0  0  0  0  0
    1.3810   -2.1640   42.1840 C   0  0  0  0  0  0  0  0  0  0  0  0
    2.7290   -1.8780   42.3650 C   0  0  0  0  0  0  0  0  0  0  0  0
    0.8570   -4.9230   44.6510 N   0  0  0  0  0  0  0  0  0  0  0  0
    0.3400   -6.1350   44.2240 C   0  0  0  0  0  0  0  0  0  0  0  0
    0.6920   -4.8250   46.1140 C   0  0  0  0  0  0  0  0  0  0  0  0
   -0.1480   -6.8160   45.2670 C   0  0  0  0  0  0  0  0  0  0  0  0
   -0.0230   -6.0780   46.4340 N   0  0  0  0  0  0  0  0  0  0  0  0
    4.8840   -2.2970   43.5030 C   0  0  0  0  0  0  0  0  0  0  0  0
    5.4190   -1.8020   44.6370 C   0  0  0  0  0  0  0  0  0  0  0  0
    4.6430   -1.4680   45.8830 C   0  0  0  0  0  0  0  0  0  0  0  0
    6.8940   -1.5260   44.7380 C   0  0  0  0  0  0  0  0  0  0  0  0
    7.5180   -2.5220   45.4230 F   0  0  0  0  0  0  0  0  0  0  0  0
  1  3  1  0
  1  2  2  0
  1  7  1  0
  2  4  1  0
  3  5  2  0
  4  6  2  0
  4 12  1  0
  5  6  1  0
  7  8  1  0
  7  9  1  0
  8 10  2  0
  9 11  1  0
 10 11  1  0
 12 13  2  3
 13 15  1  0
 13 14  1  0
 15 16  1  0
M  END
>  <vina_dock>  (632) 
-7.29

$$$$
O14757_PocketFlow_idx-in-all-generaetd-746
     RDKit          3D

 35 39  0  0  0  0  0  0  0  0999 V2000
    5.5620   -8.0760   48.8370 C   0  0  0  0  0  0  0  0  0  0  0  0
    4.8190   -8.2310   47.6550 C   0  0  0  0  0  0  0  0  0  0  0  0
    5.0880   -8.6580   50.0190 C   0  0  0  0  0  0  0  0  0  0  0  0
    3.6260   -8.9650   47.6440 C   0  0  0  0  0  0  0  0  0  0  0  0
    3.1730   -9.5410   48.8370 C   0  0  0  0  0  0  0  0  0  0  0  0
    3.9010   -9.3910   50.0170 C   0  0  0  0  0  0  0  0  0  0  0  0
    6.8240   -7.2530   48.8330 C   0  0  0  0  0  0  0  0  0  0  0  0
    6.7170   -6.1670   47.8870 N   0  0  0  0  0  0  0  0  0  0  0  0
    6.3290   -4.9040   48.2740 C   0  0  0  0  0  0  0  0  0  0  0  0
    5.9470   -4.6070   49.3990 O   0  0  0  0  0  0  0  0  0  0  0  0
    6.4920   -3.8510   47.2390 C   0  0  0  0  0  0  0  0  0  0  0  0
    1.9340   -4.4260   45.3760 C   0  0  0  0  0  0  0  0  0  0  0  0
    0.9480   -4.1170   44.4410 C   0  0  0  0  0  0  0  0  0  0  0  0
    3.2220   -3.8450   45.3200 C   0  0  0  0  0  0  0  0  0  0  0  0
    1.2440   -3.2290   43.4160 C   0  0  0  0  0  0  0  0  0  0  0  0
    4.2120   -4.1400   46.2750 C   0  0  0  0  0  0  0  0  0  0  0  0
    3.5280   -2.9360   44.2890 C   0  0  0  0  0  0  0  0  0  0  0  0
    2.5210   -2.6580   43.3380 C   0  0  0  0  0  0  0  0  0  0  0  0
    5.4970   -3.5510   46.2680 C   0  0  0  0  0  0  0  0  0  0  0  0
    4.8080   -2.3180   44.2580 C   0  0  0  0  0  0  0  0  0  0  0  0
    2.8260   -1.7710   42.1910 C   0  0  0  0  0  0  0  0  0  0  0  0
    5.7850   -2.5900   45.2660 C   0  0  0  0  0  0  0  0  0  0  0  0
    5.0620   -1.2790   43.1780 C   0  0  0  0  0  0  0  0  0  0  0  0
    1.9310   -1.3340   41.4740 O   0  0  0  0  0  0  0  0  0  0  0  0
    4.2800   -1.5330   41.9020 C   0  0  0  0  0  0  0  0  0  0  0  0
    7.7140   -3.1720   47.2690 C   0  0  0  0  0  0  0  0  0  0  0  0
    7.0380   -1.9310   45.3270 C   0  0  0  0  0  0  0  0  0  0  0  0
    7.9850   -2.2080   46.3150 C   0  0  0  0  0  0  0  0  0  0  0  0
    1.6460   -5.3140   46.3800 O   0  0  0  0  0  0  0  0  0  0  0  0
    2.8390   -9.1230   46.3650 C   0  0  0  0  0  0  0  0  0  0  0  0
    1.4440   -9.7270   46.5630 C   0  0  0  0  0  0  0  0  0  0  0  0
    0.3430   -8.6670   46.6880 C   0  0  0  0  0  0  0  0  0  0  0  0
    0.2310   -7.8360   45.4070 C   0  0  0  0  0  0  0  0  0  0  0  0
   -1.1660   -7.3240   45.2090 C   0  0  0  0  0  0  0  0  0  0  0  0
   -2.0390   -7.8390   44.3350 C   0  0  0  0  0  0  0  0  0  0  0  0
  1  2  2  0
  1  7  1  0
  1  3  1  0
  2  4  1  0
  3  6  2  0
  4 30  1  0
  4  5  2  0
  5  6  1  0
  7  8  1  0
  8  9  1  0
  9 11  1  0
  9 10  2  0
 11 19  1  0
 11 26  2  0
 12 13  2  0
 12 14  1  0
 12 29  1  0
 13 15  1  0
 14 17  2  0
 14 16  1  0
 15 18  2  0
 16 19  2  0
 17 18  1  0
 17 20  1  0
 18 21  1  0
 19 22  1  0
 20 23  1  0
 20 22  2  0
 21 24  2  0
 21 25  1  0
 22 27  1  0
 23 25  1  0
 26 28  1  0
 27 28  2  0
 30 31  1  0
 31 32  1  0
 32 33  1  0
 33 34  1  0
 34 35  2  0
M  END
>  <vina_dock>  (633) 
-9.356

$$$$
O14757_PocketFlow_idx-in-all-generaetd-200
     RDKit          3D

 25 26  0  0  0  0  0  0  0  0999 V2000
    1.7090   -3.7030   43.6230 C   0  0  0  0  0  0  0  0  0  0  0  0
    1.7660   -4.8710   44.3520 N   0  0  0  0  0  0  0  0  0  0  0  0
    0.7010   -3.3300   43.0340 O   0  0  0  0  0  0  0  0  0  0  0  0
    2.9420   -2.8680   43.6120 C   0  0  0  0  0  0  0  0  0  0  0  0
    5.1300   -2.3960   44.5990 C   0  0  0  0  0  0  0  0  0  0  0  0
    5.2830   -1.3510   43.6740 C   0  0  0  0  0  0  0  0  0  0  0  0
    3.9420   -3.1460   44.5550 C   0  0  0  0  0  0  0  0  0  0  0  0
    4.2840   -1.0560   42.7420 C   0  0  0  0  0  0  0  0  0  0  0  0
    3.1120   -1.8100   42.7110 C   0  0  0  0  0  0  0  0  0  0  0  0
    6.1830   -2.6970   45.5850 C   0  0  0  0  0  0  0  0  0  0  0  0
    8.4610   -2.4080   46.4160 C   0  0  0  0  0  0  0  0  0  0  0  0
    7.4590   -2.1190   45.4810 C   0  0  0  0  0  0  0  0  0  0  0  0
    8.1950   -3.2840   47.4760 C   0  0  0  0  0  0  0  0  0  0  0  0
    6.9330   -3.8750   47.6070 C   0  0  0  0  0  0  0  0  0  0  0  0
    5.9420   -3.5750   46.6570 C   0  0  0  0  0  0  0  0  0  0  0  0
    9.8160   -1.8100   46.3270 C   0  0  0  0  0  0  0  0  0  0  0  0
   10.8670   -2.4200   46.3880 O   0  0  0  0  0  0  0  0  0  0  0  0
    9.7910   -0.4760   46.1660 O   0  0  0  0  0  0  0  0  0  0  0  0
    6.6390   -4.8220   48.7430 C   0  0  0  0  0  0  0  0  0  0  0  0
    6.2230   -4.1010   49.9370 N   0  0  0  0  0  0  0  0  0  0  0  0
    0.5760   -5.6670   44.5250 C   0  0  0  0  0  0  0  0  0  0  0  0
    0.9170   -6.9240   45.1960 C   0  0  0  0  0  0  0  0  0  0  0  0
    1.2060   -7.9570   45.7390 C   0  0  0  0  0  0  0  0  0  0  0  0
    1.5610   -9.2150   46.3980 C   0  0  0  0  0  0  0  0  0  0  0  0
    2.6210   -9.8430   45.6910 O   0  0  0  0  0  0  0  0  0  0  0  0
  1  3  2  0
  1  4  1  0
  1  2  1  0
  2 21  1  0
  4  9  2  0
  4  7  1  0
  5  6  1  0
  5  7  2  0
  5 10  1  0
  6  8  2  0
  8  9  1  0
 10 12  1  0
 10 15  2  0
 11 12  2  0
 11 16  1  0
 11 13  1  0
 13 14  2  0
 14 15  1  0
 14 19  1  0
 16 18  1  0
 16 17  2  0
 19 20  1  0
 21 22  1  0
 22 23  3  0
 23 24  1  0
 24 25  1  0
M  END
>  <vina_dock>  (634) 
-8.276

$$$$
O14757_PocketFlow_idx-in-all-generaetd-842
     RDKit          3D

 18 20  0  0  0  0  0  0  0  0999 V2000
    1.0290   -6.1280   44.6660 C   0  0  0  0  0  0  0  0  0  0  0  0
    0.6760   -4.9120   44.2150 C   0  0  0  0  0  0  0  0  0  0  0  0
    0.0970   -7.2410   45.0620 C   0  0  2  0  0  0  0  0  0  0  0  0
   -1.1910   -7.4490   44.2570 C   0  0  0  0  0  0  0  0  0  0  0  0
   -0.4470   -7.0670   46.4700 C   0  0  0  0  0  0  0  0  0  0  0  0
   -2.1330   -8.1390   45.1690 N   0  0  0  0  0  0  0  0  0  0  0  0
   -1.6890   -7.8850   46.3580 C   0  0  0  0  0  0  0  0  0  0  0  0
    1.6670   -3.8950   43.8320 C   0  0  0  0  0  0  0  0  0  0  0  0
    1.4250   -3.0030   42.7720 C   0  0  0  0  0  0  0  0  0  0  0  0
    2.8630   -3.7930   44.5620 C   0  0  0  0  0  0  0  0  0  0  0  0
    0.1580   -3.0610   41.9620 C   0  0  0  0  0  0  0  0  0  0  0  0
    2.3910   -2.0310   42.4620 C   0  0  0  0  0  0  0  0  0  0  0  0
    3.8310   -2.8240   44.2500 C   0  0  0  0  0  0  0  0  0  0  0  0
    3.5910   -1.9310   43.1850 C   0  0  0  0  0  0  0  0  0  0  0  0
    5.0290   -2.7220   44.9760 C   0  0  0  0  0  0  0  0  0  0  0  0
    4.5580   -0.9600   42.8720 C   0  0  0  0  0  0  0  0  0  0  0  0
    5.9790   -1.7530   44.6540 C   0  0  0  0  0  0  0  0  0  0  0  0
    5.7440   -0.8730   43.6020 C   0  0  0  0  0  0  0  0  0  0  0  0
  1  2  2  3
  1  3  1  0
  2  8  1  0
  3  4  1  6
  3  5  1  0
  4  6  1  0
  5  7  1  0
  6  7  1  0
  8  9  2  0
  8 10  1  0
  9 11  1  0
  9 12  1  0
 10 13  2  0
 12 14  2  0
 13 14  1  0
 13 15  1  0
 14 16  1  0
 15 17  2  0
 16 18  2  0
 17 18  1  0
M  END
>  <vina_dock>  (635) 
-8.831

$$$$
O14757_PocketFlow_idx-in-all-generaetd-289
     RDKit          3D

  6  5  0  0  0  0  0  0  0  0999 V2000
    0.6060   -3.1210   42.4200 C   0  0  0  0  0  0  0  0  0  0  0  0
    1.0630   -3.5700   43.7990 C   0  0  0  0  0  0  0  0  0  0  0  0
    1.4160   -1.9630   41.9270 C   0  0  0  0  0  0  0  0  0  0  0  0
    1.7210    0.1580   41.0390 F   0  0  0  0  0  0  0  0  0  0  0  0
    0.8970   -0.8200   41.4670 C   0  0  0  0  0  0  0  0  0  0  0  0
   -0.4380   -0.6390   41.4290 F   0  0  0  0  0  0  0  0  0  0  0  0
  1  3  1  0
  1  2  1  0
  3  5  2  3
  4  5  1  0
  5  6  1  0
M  END
>  <vina_dock>  (636) 
-3.803

$$$$
O14757_PocketFlow_idx-in-all-generaetd-780
     RDKit          3D

 34 39  0  0  0  0  0  0  0  0999 V2000
    3.0640   -3.6180   45.3310 C   0  0  0  0  0  0  0  0  0  0  0  0
    4.4720   -3.0490   45.2870 C   0  0  0  0  0  0  0  0  0  0  0  0
    9.9960   -2.9490   48.2680 C   0  0  2  0  0  0  0  0  0  0  0  0
    9.2030   -2.7130   46.9720 C   0  0  0  0  0  0  0  0  0  0  0  0
    9.9380   -4.4150   48.6880 C   0  0  0  0  0  0  0  0  0  0  0  0
    7.8150   -3.3340   46.9750 C   0  0  0  0  0  0  0  0  0  0  0  0
    8.5210   -4.9200   48.7450 C   0  0  0  0  0  0  0  0  0  0  0  0
    6.7960   -2.9030   46.0810 C   0  0  0  0  0  0  0  0  0  0  0  0
    7.5570   -4.3920   47.8830 C   0  0  0  0  0  0  0  0  0  0  0  0
    8.2740   -5.9230   49.6110 N   0  0  0  0  0  0  0  0  0  0  0  0
    7.0110   -1.9060   45.1040 C   0  0  0  0  0  0  0  0  0  0  0  0
    5.5080   -3.4970   46.1600 C   0  0  0  0  0  0  0  0  0  0  0  0
    6.3000   -4.9850   47.9650 C   0  0  0  0  0  0  0  0  0  0  0  0
    7.0230   -6.3970   49.6080 C   0  0  0  0  0  0  0  0  0  0  0  0
    6.0030   -1.4910   44.2370 C   0  0  0  0  0  0  0  0  0  0  0  0
    5.3080   -4.5250   47.1120 C   0  0  0  0  0  0  0  0  0  0  0  0
    6.0220   -5.9770   48.8230 N   0  0  0  0  0  0  0  0  0  0  0  0
    4.7420   -2.0570   44.3290 C   0  0  0  0  0  0  0  0  0  0  0  0
    9.5260   -2.0370   49.3820 C   0  0  0  0  0  0  0  0  0  0  0  0
    8.9660   -2.3590   50.4150 O   0  0  0  0  0  0  0  0  0  0  0  0
    9.7320   -0.7350   49.1030 O   0  0  0  0  0  0  0  0  0  0  0  0
    2.9920   -4.8040   44.4900 N   0  0  0  0  0  0  0  0  0  0  0  0
    1.9000   -5.6670   44.5930 C   0  0  0  0  0  0  0  0  0  0  0  0
    0.7160   -5.5100   43.8670 C   0  0  0  0  0  0  0  0  0  0  0  0
    1.9290   -6.6690   45.5710 C   0  0  0  0  0  0  0  0  0  0  0  0
   -0.3750   -6.3700   44.0630 C   0  0  0  0  0  0  0  0  0  0  0  0
    0.8420   -7.5290   45.7710 C   0  0  0  0  0  0  0  0  0  0  0  0
   -0.3290   -7.3980   45.0140 C   0  0  0  0  0  0  0  0  0  0  0  0
   -1.4760   -8.2980   45.2200 C   0  0  0  0  0  0  0  0  0  0  0  0
   -1.4680   -9.2580   46.2470 C   0  0  0  0  0  0  0  0  0  0  0  0
   -2.6120   -8.2230   44.3980 C   0  0  0  0  0  0  0  0  0  0  0  0
   -2.5570  -10.1120   46.4440 C   0  0  0  0  0  0  0  0  0  0  0  0
   -3.7020   -9.0770   44.5920 C   0  0  0  0  0  0  0  0  0  0  0  0
   -3.6730  -10.0200   45.6170 C   0  0  0  0  0  0  0  0  0  0  0  0
  1 22  1  0
  1  2  1  0
  2 18  2  0
  2 12  1  0
  3  4  1  0
  3  5  1  0
  3 19  1  1
  4  6  1  0
  5  7  1  0
  6  8  2  0
  6  9  1  0
  7  9  2  0
  7 10  1  0
  8 11  1  0
  8 12  1  0
  9 13  1  0
 10 14  2  0
 11 15  2  0
 12 16  2  0
 13 16  1  0
 13 17  2  0
 14 17  1  0
 15 18  1  0
 19 21  1  0
 19 20  2  0
 22 23  1  0
 23 24  2  0
 23 25  1  0
 24 26  1  0
 25 27  2  0
 26 28  2  0
 27 28  1  0
 28 29  1  0
 29 31  1  0
 29 30  2  0
 30 32  1  0
 31 33  2  0
 32 34  2  0
 33 34  1  0
M  END
>  <vina_dock>  (637) 
-9.509

$$$$
O14757_PocketFlow_idx-in-all-generaetd-73
     RDKit          3D

 20 22  0  0  0  0  0  0  0  0999 V2000
    1.1400   -2.6240   42.3550 C   0  0  0  0  0  0  0  0  0  0  0  0
    2.0130   -1.6760   41.8080 C   0  0  0  0  0  0  0  0  0  0  0  0
    1.5360   -3.3720   43.4730 C   0  0  0  0  0  0  0  0  0  0  0  0
    2.8000   -3.1760   44.0480 C   0  0  0  0  0  0  0  0  0  0  0  0
    3.2720   -1.4770   42.3750 C   0  0  0  0  0  0  0  0  0  0  0  0
    3.6640   -2.2220   43.4870 C   0  0  0  0  0  0  0  0  0  0  0  0
   -0.1890   -2.8010   41.7200 C   0  0  0  0  0  0  0  0  0  0  0  0
   -1.0510   -1.9490   41.6170 O   0  0  0  0  0  0  0  0  0  0  0  0
   -0.3780   -4.0450   41.2440 O   0  0  0  0  0  0  0  0  0  0  0  0
    3.2310   -3.9750   45.2580 C   0  0  0  0  0  0  0  0  0  0  0  0
    2.4690   -5.2630   45.4400 C   0  0  0  0  0  0  0  0  0  0  0  0
    3.0570   -6.4870   45.1590 C   0  0  0  0  0  0  0  0  0  0  0  0
    1.1880   -5.1860   45.8820 N   0  0  0  0  0  0  0  0  0  0  0  0
    2.4090   -7.6640   45.3100 N   0  0  0  0  0  0  0  0  0  0  0  0
    0.5240   -6.3500   46.0340 C   0  0  0  0  0  0  0  0  0  0  0  0
    1.1370   -7.5940   45.7470 C   0  0  0  0  0  0  0  0  0  0  0  0
   -0.7910   -6.3330   46.4820 C   0  0  0  0  0  0  0  0  0  0  0  0
    0.4050   -8.7620   45.9220 C   0  0  0  0  0  0  0  0  0  0  0  0
   -1.5160   -7.5140   46.6540 C   0  0  0  0  0  0  0  0  0  0  0  0
   -0.9150   -8.7330   46.3720 C   0  0  0  0  0  0  0  0  0  0  0  0
  1  7  1  0
  1  2  2  0
  1  3  1  0
  2  5  1  0
  3  4  2  0
  4  6  1  0
  4 10  1  0
  5  6  2  0
  7  9  1  0
  7  8  2  0
 10 11  1  0
 11 12  2  0
 11 13  1  0
 12 14  1  0
 13 15  2  0
 14 16  2  0
 15 16  1  0
 15 17  1  0
 16 18  1  0
 17 19  2  0
 18 20  2  0
 19 20  1  0
M  END
>  <vina_dock>  (638) 
-7.927

$$$$
O14757_PocketFlow_idx-in-all-generaetd-940
     RDKit          3D

 12 12  0  0  0  0  0  0  0  0999 V2000
    0.9400   -3.4650   43.1010 C   0  0  0  0  0  0  0  0  0  0  0  0
    2.2500   -3.3470   43.8430 C   0  0  0  0  0  0  0  0  0  0  0  0
    3.3250   -2.6290   43.4820 C   0  0  0  0  0  0  0  0  0  0  0  0
    4.5650   -2.5570   44.2690 C   0  0  0  0  0  0  0  0  0  0  0  0
    6.0780   -3.4130   45.9680 C   0  0  0  0  0  0  0  0  0  0  0  0
    4.8740   -3.4960   45.2630 C   0  0  0  0  0  0  0  0  0  0  0  0
    6.9890   -2.3980   45.6810 C   0  0  0  0  0  0  0  0  0  0  0  0
    6.6990   -1.4690   44.6840 C   0  0  0  0  0  0  0  0  0  0  0  0
    5.4960   -1.5520   43.9780 C   0  0  0  0  0  0  0  0  0  0  0  0
    0.8090   -2.8030   41.7190 C   0  0  0  0  0  0  0  0  0  0  0  0
    0.5790   -1.3150   41.6500 C   0  0  0  0  0  0  0  0  0  0  0  0
    1.4560   -0.3650   41.3030 C   0  0  0  0  0  0  0  0  0  0  0  0
  1 10  1  0
  1  2  1  0
  2  3  2  3
  3  4  1  0
  4  9  2  0
  4  6  1  0
  5  6  2  0
  5  7  1  0
  7  8  2  0
  8  9  1  0
 10 11  1  0
 11 12  2  0
M  END
>  <vina_dock>  (639) 
-6.167

$$$$
O14757_PocketFlow_idx-in-all-generaetd-232
     RDKit          3D

  5  4  0  0  0  0  0  0  0  0999 V2000
    4.8560   -2.5190   44.3160 C   0  0  0  0  0  0  0  0  0  0  0  0
    4.5480   -1.8200   43.2100 C   0  0  0  0  0  0  0  0  0  0  0  0
    4.8140   -0.3750   42.9380 C   0  0  0  0  0  0  0  0  0  0  0  0
    5.5220   -2.0300   45.5630 C   0  0  0  0  0  0  0  0  0  0  0  0
    7.2460   -1.7460   45.2410 Cl  0  0  0  0  0  0  0  0  0  0  0  0
  1  2  2  3
  1  4  1  0
  2  3  1  0
  4  5  1  0
M  END
>  <vina_dock>  (640) 
-3.086

$$$$
O14757_PocketFlow_idx-in-all-generaetd-528
     RDKit          3D

 20 22  0  0  0  0  0  0  0  0999 V2000
    2.7470   -4.7570   44.7950 C   0  0  0  0  0  0  0  0  0  0  0  0
    1.4970   -4.7370   45.4250 C   0  0  0  0  0  0  0  0  0  0  0  0
    0.8210   -5.9280   45.7240 C   0  0  0  0  0  0  0  0  0  0  0  0
    3.2670   -6.0180   44.5010 C   0  0  0  0  0  0  0  0  0  0  0  0
    2.6550   -7.1950   44.7800 N   0  0  0  0  0  0  0  0  0  0  0  0
    1.4490   -7.1200   45.3820 C   0  0  0  0  0  0  0  0  0  0  0  0
    3.4680   -3.5200   44.4600 C   0  0  0  0  0  0  0  0  0  0  0  0
    5.2300   -1.8950   44.9420 C   0  0  0  0  0  0  0  0  0  0  0  0
    4.8480   -1.1550   43.8300 C   0  0  0  0  0  0  0  0  0  0  0  0
    4.5410   -3.0730   45.2530 C   0  0  0  0  0  0  0  0  0  0  0  0
    3.7940   -1.5730   43.0290 C   0  0  0  0  0  0  0  0  0  0  0  0
    3.1070   -2.7490   43.3420 C   0  0  0  0  0  0  0  0  0  0  0  0
    5.4890   -0.0030   43.4870 O   0  0  0  0  0  0  0  0  0  0  0  0
   -0.5230   -5.9260   46.4040 C   0  0  0  0  0  0  0  0  0  0  0  0
   -1.3330   -7.1820   46.1720 C   0  0  0  0  0  0  0  0  0  0  0  0
   -1.9470   -7.4150   44.9330 C   0  0  0  0  0  0  0  0  0  0  0  0
   -1.4850   -8.1310   47.1930 C   0  0  0  0  0  0  0  0  0  0  0  0
   -2.6940   -8.5750   44.7190 C   0  0  0  0  0  0  0  0  0  0  0  0
   -2.2320   -9.2900   46.9770 C   0  0  0  0  0  0  0  0  0  0  0  0
   -2.8360   -9.5110   45.7420 C   0  0  0  0  0  0  0  0  0  0  0  0
  1  7  1  0
  1  4  1  0
  1  2  2  0
  2  3  1  0
  3  6  2  0
  3 14  1  0
  4  5  2  0
  5  6  1  0
  7 12  1  0
  7 10  2  0
  8  9  2  0
  8 10  1  0
  9 11  1  0
  9 13  1  0
 11 12  2  0
 14 15  1  0
 15 16  2  0
 15 17  1  0
 16 18  1  0
 17 19  2  0
 18 20  2  0
 19 20  1  0
M  END
>  <vina_dock>  (641) 
-7.993

$$$$
O14757_PocketFlow_idx-in-all-generaetd-48
     RDKit          3D

 35 40  0  0  0  0  0  0  0  0999 V2000
    2.1840   -5.4140   45.4560 C   0  0  0  0  0  0  0  0  0  0  0  0
    2.2840   -6.7520   45.0500 C   0  0  0  0  0  0  0  0  0  0  0  0
    1.1750   -7.6040   45.0940 C   0  0  0  0  0  0  0  0  0  0  0  0
   -0.0720   -7.1420   45.5410 C   0  0  0  0  0  0  0  0  0  0  0  0
    0.9390   -4.9570   45.9110 C   0  0  0  0  0  0  0  0  0  0  0  0
   -0.1720   -5.8070   45.9570 C   0  0  0  0  0  0  0  0  0  0  0  0
    3.3510   -4.5170   45.4110 C   0  0  0  0  0  0  0  0  0  0  0  0
   10.2730   -1.8560   46.8640 C   0  0  0  0  0  0  0  0  0  0  0  0
   10.1900   -3.0320   47.6270 C   0  0  0  0  0  0  0  0  0  0  0  0
    9.1460   -1.5060   46.1060 C   0  0  0  0  0  0  0  0  0  0  0  0
    9.0330   -3.8190   47.6450 C   0  0  0  0  0  0  0  0  0  0  0  0
    7.9750   -2.2910   46.1150 C   0  0  0  0  0  0  0  0  0  0  0  0
    7.9270   -3.4650   46.8760 C   0  0  0  0  0  0  0  0  0  0  0  0
    6.7750   -1.8570   45.3030 C   0  0  0  0  0  0  0  0  0  0  0  0
    6.7450   -4.2170   46.9240 N   0  0  0  0  0  0  0  0  0  0  0  0
    5.5900   -2.7960   45.3350 C   0  0  0  0  0  0  0  0  0  0  0  0
    5.6240   -3.9560   46.1220 C   0  0  0  0  0  0  0  0  0  0  0  0
    4.4470   -2.5080   44.5770 C   0  0  0  0  0  0  0  0  0  0  0  0
    4.5030   -4.7930   46.1680 C   0  0  0  0  0  0  0  0  0  0  0  0
    3.3440   -3.3630   44.6140 C   0  0  0  0  0  0  0  0  0  0  0  0
   11.4640   -1.1100   46.8800 N   0  0  0  0  0  0  0  0  0  0  0  0
   11.9900   -0.6960   48.1950 C   0  0  0  0  0  0  0  0  0  0  0  0
   12.4960   -1.6480   45.9700 C   0  0  0  0  0  0  0  0  0  0  0  0
   13.0900    0.3550   48.0280 C   0  0  1  0  0  0  0  0  0  0  0  0
   13.5960   -0.6030   45.7640 C   0  0  0  0  0  0  0  0  0  0  0  0
   13.6470    0.6180   49.2430 F   0  0  0  0  0  0  0  0  0  0  0  0
   14.1850   -0.1410   47.0920 C   0  0  0  0  0  0  0  0  0  0  0  0
   -1.2570   -8.0990   45.5890 C   0  0  2  0  0  0  0  0  0  0  0  0
   -2.5460   -7.4880   45.0160 C   0  0  0  0  0  0  0  0  0  0  0  0
   -1.4470   -8.7120   46.9720 C   0  0  0  0  0  0  0  0  0  0  0  0
   -2.7410   -8.8100   47.5130 C   0  0  0  0  0  0  0  0  0  0  0  0
   -0.3730   -9.2150   47.7230 C   0  0  0  0  0  0  0  0  0  0  0  0
   -2.9500   -9.3760   48.7720 C   0  0  0  0  0  0  0  0  0  0  0  0
   -0.5850   -9.7820   48.9830 C   0  0  0  0  0  0  0  0  0  0  0  0
   -1.8710   -9.8600   49.5070 C   0  0  0  0  0  0  0  0  0  0  0  0
  1  2  2  0
  1  7  1  0
  1  5  1  0
  2  3  1  0
  3  4  2  0
  4 28  1  0
  4  6  1  0
  5  6  2  0
  7 20  2  0
  7 19  1  0
  8 10  1  0
  8 21  1  0
  8  9  2  0
  9 11  1  0
 10 12  1  0
 11 13  2  0
 12 14  2  0
 12 13  1  0
 13 15  1  0
 14 16  1  0
 15 17  1  0
 16 18  2  0
 16 17  1  0
 17 19  2  0
 18 20  1  0
 21 23  1  0
 21 22  1  0
 22 24  1  0
 23 25  1  0
 24 27  1  0
 24 26  1  1
 25 27  1  0
 28 29  1  1
 28 30  1  0
 30 31  2  0
 30 32  1  0
 31 33  1  0
 32 34  2  0
 33 35  2  0
 34 35  1  0
M  END
>  <vina_dock>  (642) 
-9.588

$$$$
O14757_PocketFlow_idx-in-all-generaetd-417
     RDKit          3D

 35 38  0  0  0  0  0  0  0  0999 V2000
    0.3950   -6.2650   43.8600 C   0  0  0  0  0  0  0  0  0  0  0  0
   -0.3360   -7.1620   44.5310 C   0  0  0  0  0  0  0  0  0  0  0  0
    0.3350   -4.9180   44.1220 O   0  0  0  0  0  0  0  0  0  0  0  0
    1.5300   -4.2650   44.3000 C   0  0  0  0  0  0  0  0  0  0  0  0
    3.6110   -1.5240   42.8110 C   0  0  0  0  0  0  0  0  0  0  0  0
    4.8580   -0.9590   43.0180 C   0  0  0  0  0  0  0  0  0  0  0  0
    3.1680   -2.5880   43.6230 C   0  0  0  0  0  0  0  0  0  0  0  0
    5.2440    0.0470   42.2240 F   0  0  0  0  0  0  0  0  0  0  0  0
    5.7090   -1.3630   43.9680 N   0  0  0  0  0  0  0  0  0  0  0  0
    1.8970   -3.2190   43.4430 C   0  0  0  0  0  0  0  0  0  0  0  0
    4.0440   -3.0380   44.6520 C   0  0  0  0  0  0  0  0  0  0  0  0
    5.2870   -2.3780   44.7550 C   0  0  0  0  0  0  0  0  0  0  0  0
    3.6380   -4.1150   45.4830 C   0  0  0  0  0  0  0  0  0  0  0  0
    2.3920   -4.7210   45.2940 C   0  0  0  0  0  0  0  0  0  0  0  0
    0.9650   -2.7680   42.3360 C   0  0  0  0  0  0  0  0  0  0  0  0
    0.7390   -1.4240   42.3790 F   0  0  0  0  0  0  0  0  0  0  0  0
    1.4890   -3.0100   41.1000 F   0  0  0  0  0  0  0  0  0  0  0  0
   -0.2680   -3.3350   42.3190 F   0  0  0  0  0  0  0  0  0  0  0  0
    4.4960   -4.6190   46.5900 C   0  0  0  0  0  0  0  0  0  0  0  0
    5.1580   -3.9570   47.3610 O   0  0  0  0  0  0  0  0  0  0  0  0
    4.4890   -5.9640   46.6520 O   0  0  0  0  0  0  0  0  0  0  0  0
   -1.2910   -6.8370   45.6460 C   0  0  0  0  0  0  0  0  0  0  0  0
   -1.1830   -7.8210   46.7860 C   0  0  0  0  0  0  0  0  0  0  0  0
   -2.3380   -8.3250   47.3950 C   0  0  0  0  0  0  0  0  0  0  0  0
    0.0710   -8.2640   47.2360 C   0  0  0  0  0  0  0  0  0  0  0  0
   -2.2390   -9.2440   48.4360 C   0  0  0  0  0  0  0  0  0  0  0  0
    0.2030   -9.1910   48.2910 C   0  0  0  0  0  0  0  0  0  0  0  0
   -0.9850   -9.6670   48.8780 C   0  0  0  0  0  0  0  0  0  0  0  0
    1.5310   -9.6370   48.7640 C   0  0  0  0  0  0  0  0  0  0  0  0
    1.7180   -9.7710   50.0930 N   0  0  0  0  0  0  0  0  0  0  0  0
    2.4850   -9.8720   47.8380 N   0  0  0  0  0  0  0  0  0  0  0  0
    2.9430  -10.1600   50.4890 C   0  0  0  0  0  0  0  0  0  0  0  0
    3.6990  -10.2580   48.2820 C   0  0  0  0  0  0  0  0  0  0  0  0
    3.9790  -10.4150   49.6240 C   0  0  0  0  0  0  0  0  0  0  0  0
    4.7660  -10.4950   47.2540 C   0  0  0  0  0  0  0  0  0  0  0  0
  1  3  1  0
  1  2  2  3
  2 22  1  0
  3  4  1  0
  4 10  1  0
  4 14  2  0
  5  6  2  0
  5  7  1  0
  6  8  1  0
  6  9  1  0
  7 10  2  0
  7 11  1  0
  9 12  2  0
 10 15  1  0
 11 12  1  0
 11 13  2  0
 13 14  1  0
 13 19  1  0
 15 17  1  0
 15 18  1  0
 15 16  1  0
 19 21  1  0
 19 20  2  0
 22 23  1  0
 23 25  1  0
 23 24  2  0
 24 26  1  0
 25 27  2  0
 26 28  2  0
 27 29  1  0
 27 28  1  0
 29 31  1  0
 29 30  2  0
 30 32  1  0
 31 33  2  0
 32 34  2  0
 33 35  1  0
 33 34  1  0
M  END
>  <vina_dock>  (643) 
-9.642

$$$$
O14757_PocketFlow_idx-in-all-generaetd-970
     RDKit          3D

 35 37  0  0  0  0  0  0  0  0999 V2000
    1.5810   -4.6470   44.7400 C   0  0  0  0  0  0  0  0  0  0  0  0
    2.0740   -3.6890   43.8360 C   0  0  0  0  0  0  0  0  0  0  0  0
    3.2300   -2.9290   44.1200 C   0  0  0  0  0  0  0  0  0  0  0  0
    3.8840   -3.1310   45.3450 C   0  0  0  0  0  0  0  0  0  0  0  0
    3.4180   -4.0980   46.2440 C   0  0  0  0  0  0  0  0  0  0  0  0
    2.2770   -4.8440   45.9440 C   0  0  0  0  0  0  0  0  0  0  0  0
    0.3430   -5.5030   44.4610 C   0  0  1  0  0  0  0  0  0  0  0  0
    0.2840   -6.1390   43.0640 C   0  0  0  0  0  0  0  0  0  0  0  0
    0.1200   -6.5790   45.5190 C   0  0  0  0  0  0  0  0  0  0  0  0
    0.7840   -8.7190   46.5110 C   0  0  0  0  0  0  0  0  0  0  0  0
   -0.2340   -8.5650   47.4660 C   0  0  0  0  0  0  0  0  0  0  0  0
    0.9490   -7.7190   45.5430 C   0  0  0  0  0  0  0  0  0  0  0  0
   -0.5060   -9.7530   48.6950 Cl  0  0  0  0  0  0  0  0  0  0  0  0
   -1.0590   -7.4370   47.4580 C   0  0  0  0  0  0  0  0  0  0  0  0
   -0.8800   -6.4480   46.4920 C   0  0  0  0  0  0  0  0  0  0  0  0
    1.5510   -9.8500   46.6120 O   0  0  0  0  0  0  0  0  0  0  0  0
    2.9720   -9.7630   46.5170 C   0  0  0  0  0  0  0  0  0  0  0  0
    3.5830   -9.3760   47.8550 C   0  0  0  0  0  0  0  0  0  0  0  0
    3.7350   -1.9280   43.1140 C   0  0  0  0  0  0  0  0  0  0  0  0
    4.9910   -2.2030   42.6600 F   0  0  0  0  0  0  0  0  0  0  0  0
    3.7860   -0.6550   43.5840 F   0  0  0  0  0  0  0  0  0  0  0  0
    2.9460   -1.8980   42.0010 F   0  0  0  0  0  0  0  0  0  0  0  0
    5.1040   -2.3830   45.7450 C   0  0  0  0  0  0  0  0  0  0  0  0
    6.2820   -3.0860   45.5970 N   0  0  0  0  0  0  0  0  0  0  0  0
    4.9600   -1.2270   46.1180 O   0  0  0  0  0  0  0  0  0  0  0  0
    7.5850   -2.6340   45.8970 C   0  0  0  0  0  0  0  0  0  0  0  0
    8.4900   -3.5800   46.3980 C   0  0  0  0  0  0  0  0  0  0  0  0
    8.0160   -1.3190   45.7200 C   0  0  0  0  0  0  0  0  0  0  0  0
    9.8030   -3.2190   46.7180 C   0  0  0  0  0  0  0  0  0  0  0  0
    9.3310   -0.9530   46.0360 C   0  0  0  0  0  0  0  0  0  0  0  0
   10.2260   -1.8970   46.5450 C   0  0  0  0  0  0  0  0  0  0  0  0
   11.6160   -1.4680   46.8570 C   0  0  0  0  0  0  0  0  0  0  0  0
   11.8980   -0.1310   46.6690 N   0  0  0  0  0  0  0  0  0  0  0  0
   12.4460   -2.2900   47.2290 O   0  0  0  0  0  0  0  0  0  0  0  0
   13.2410    0.3620   46.8330 C   0  0  0  0  0  0  0  0  0  0  0  0
  1  2  2  0
  1  7  1  0
  1  6  1  0
  2  3  1  0
  3 19  1  0
  3  4  2  0
  4 23  1  0
  4  5  1  0
  5  6  2  0
  7  8  1  6
  7  9  1  0
  9 12  1  0
  9 15  2  0
 10 12  2  0
 10 16  1  0
 10 11  1  0
 11 14  2  0
 11 13  1  0
 14 15  1  0
 16 17  1  0
 17 18  1  0
 19 22  1  0
 19 20  1  0
 19 21  1  0
 23 24  1  0
 23 25  2  0
 24 26  1  0
 26 28  1  0
 26 27  2  0
 27 29  1  0
 28 30  2  0
 29 31  2  0
 30 31  1  0
 31 32  1  0
 32 33  1  0
 32 34  2  0
 33 35  1  0
M  END
>  <vina_dock>  (644) 
-9.047

$$$$
O14757_PocketFlow_idx-in-all-generaetd-459
     RDKit          3D

 15 16  0  0  0  0  0  0  0  0999 V2000
    2.5560   -3.6830   43.8820 C   0  0  0  0  0  0  0  0  0  0  0  0
    3.6400   -2.6320   43.7730 C   0  0  0  0  0  0  0  0  0  0  0  0
    5.7380   -1.6830   44.5420 C   0  0  0  0  0  0  0  0  0  0  0  0
    4.7450   -2.6580   44.6360 C   0  0  0  0  0  0  0  0  0  0  0  0
    5.6380   -0.6730   43.5880 C   0  0  0  0  0  0  0  0  0  0  0  0
    4.5450   -0.6380   42.7240 C   0  0  0  0  0  0  0  0  0  0  0  0
    3.5500   -1.6130   42.8150 C   0  0  0  0  0  0  0  0  0  0  0  0
    2.5780   -4.4610   45.2150 C   0  0  1  0  0  0  0  0  0  0  0  0
    1.1820   -4.4880   45.8320 C   0  0  0  0  0  0  0  0  0  0  0  0
    3.1280   -5.8980   45.0020 C   0  0  0  0  0  0  0  0  0  0  0  0
    0.3740   -5.5520   45.7160 C   0  0  0  0  0  0  0  0  0  0  0  0
    2.0750   -6.9100   44.6560 C   0  0  0  0  0  0  0  0  0  0  0  0
    4.1020   -5.8900   44.0520 F   0  0  0  0  0  0  0  0  0  0  0  0
    3.7530   -6.2950   46.1500 F   0  0  0  0  0  0  0  0  0  0  0  0
    0.7880   -6.7290   44.9870 C   0  0  0  0  0  0  0  0  0  0  0  0
  1  2  1  0
  8  1  1  6
  2  7  1  0
  2  4  2  0
  3  5  2  0
  3  4  1  0
  5  6  1  0
  6  7  2  0
  8 10  1  0
  8  9  1  0
  9 11  2  0
 10 13  1  0
 10 12  1  0
 10 14  1  0
 11 15  1  0
 12 15  2  0
M  END
>  <vina_dock>  (645) 
-7.286

$$$$
O14757_PocketFlow_idx-in-all-generaetd-918
     RDKit          3D

 18 19  0  0  0  0  0  0  0  0999 V2000
    0.7750   -5.0630   44.4760 C   0  0  0  0  0  0  0  0  0  0  0  0
    1.6740   -4.0100   44.2770 C   0  0  0  0  0  0  0  0  0  0  0  0
    3.0590   -4.2060   44.3990 C   0  0  0  0  0  0  0  0  0  0  0  0
    1.2390   -6.3420   44.7980 C   0  0  0  0  0  0  0  0  0  0  0  0
    3.5130   -5.4940   44.7280 C   0  0  0  0  0  0  0  0  0  0  0  0
    2.6160   -6.5480   44.9280 C   0  0  0  0  0  0  0  0  0  0  0  0
    0.2700   -7.4740   45.0320 C   0  0  0  0  0  0  0  0  0  0  0  0
   -1.0040   -7.3080   44.2030 C   0  0  0  0  0  0  0  0  0  0  0  0
   -2.1590   -8.0970   44.7960 C   0  0  0  0  0  0  0  0  0  0  0  0
    4.0060   -3.0970   44.1890 C   0  0  0  0  0  0  0  0  0  0  0  0
    5.2060   -3.0230   44.9170 C   0  0  0  0  0  0  0  0  0  0  0  0
    3.7360   -2.0820   43.2560 C   0  0  0  0  0  0  0  0  0  0  0  0
    6.1080   -1.9690   44.7190 C   0  0  0  0  0  0  0  0  0  0  0  0
    4.6310   -1.0290   43.0540 C   0  0  0  0  0  0  0  0  0  0  0  0
    5.8180   -0.9700   43.7840 C   0  0  0  0  0  0  0  0  0  0  0  0
    7.3550   -1.9530   45.5220 C   0  0  0  0  0  0  0  0  0  0  0  0
    7.8970   -2.9230   46.0180 O   0  0  0  0  0  0  0  0  0  0  0  0
    7.8680   -0.7180   45.6680 O   0  0  0  0  0  0  0  0  0  0  0  0
  1  2  2  0
  1  4  1  0
  2  3  1  0
  3 10  1  0
  3  5  2  0
  4  6  2  0
  4  7  1  0
  5  6  1  0
  7  8  1  0
  8  9  1  0
 10 12  1  0
 10 11  2  0
 11 13  1  0
 12 14  2  0
 13 15  2  0
 13 16  1  0
 14 15  1  0
 16 18  1  0
 16 17  2  0
M  END
>  <vina_dock>  (646) 
-8.164

$$$$
O14757_PocketFlow_idx-in-all-generaetd-82
     RDKit          3D

 30 34  0  0  0  0  0  0  0  0999 V2000
    3.9180   -3.0270   44.1530 C   0  0  0  0  0  0  0  0  0  0  0  0
    5.1240   -3.0990   44.8760 C   0  0  0  0  0  0  0  0  0  0  0  0
    6.1380   -2.1320   44.7380 C   0  0  0  0  0  0  0  0  0  0  0  0
    5.9200   -1.0700   43.8480 C   0  0  0  0  0  0  0  0  0  0  0  0
    4.7330   -0.9770   43.1220 C   0  0  0  0  0  0  0  0  0  0  0  0
    3.7420   -1.9470   43.2750 C   0  0  0  0  0  0  0  0  0  0  0  0
    2.8770   -4.0560   44.3130 C   0  0  0  0  0  0  0  0  0  0  0  0
    1.6880   -9.4370   47.1650 C   0  0  0  0  0  0  0  0  0  0  0  0
    0.6720  -10.2680   47.6280 C   0  0  0  0  0  0  0  0  0  0  0  0
    1.3980   -8.4130   46.2510 C   0  0  0  0  0  0  0  0  0  0  0  0
   -0.6340  -10.0730   47.1860 C   0  0  0  0  0  0  0  0  0  0  0  0
    2.4930   -7.5050   45.8260 C   0  0  0  0  0  0  0  0  0  0  0  0
    0.0940   -8.2270   45.7660 C   0  0  0  0  0  0  0  0  0  0  0  0
   -0.9230   -9.0580   46.2670 C   0  0  0  0  0  0  0  0  0  0  0  0
    2.1570   -6.2560   45.0970 C   0  0  0  0  0  0  0  0  0  0  0  0
    3.6580   -7.7610   46.1150 O   0  0  0  0  0  0  0  0  0  0  0  0
   -0.1350   -7.1470   44.7680 C   0  0  0  0  0  0  0  0  0  0  0  0
    3.1550   -5.2790   44.9400 C   0  0  0  0  0  0  0  0  0  0  0  0
    0.8600   -6.0530   44.6040 C   0  0  0  0  0  0  0  0  0  0  0  0
   -1.1740   -7.2370   43.9130 C   0  0  0  0  0  0  0  0  0  0  0  0
    0.5750   -4.8190   44.0020 C   0  0  0  0  0  0  0  0  0  0  0  0
    1.5680   -3.8420   43.8570 C   0  0  0  0  0  0  0  0  0  0  0  0
    7.3880   -2.2300   45.5090 C   0  0  0  0  0  0  0  0  0  0  0  0
    8.2220   -1.1140   45.6800 C   0  0  0  0  0  0  0  0  0  0  0  0
    7.7820   -3.4450   46.0960 C   0  0  0  0  0  0  0  0  0  0  0  0
    9.4100   -1.2080   46.4070 C   0  0  0  0  0  0  0  0  0  0  0  0
    8.9710   -3.5520   46.8350 C   0  0  0  0  0  0  0  0  0  0  0  0
    9.7840   -2.4220   46.9800 C   0  0  0  0  0  0  0  0  0  0  0  0
    9.3780   -4.8710   47.4400 C   0  0  0  0  0  0  0  0  0  0  0  0
   10.0700   -5.7670   46.4260 C   0  0  0  0  0  0  0  0  0  0  0  0
  1  6  1  0
  1  7  1  0
  1  2  2  0
  2  3  1  0
  3  4  2  0
  3 23  1  0
  4  5  1  0
  5  6  2  0
  7 22  1  0
  7 18  2  0
  8 10  2  0
  8  9  1  0
  9 11  2  0
 10 13  1  0
 10 12  1  0
 11 14  1  0
 12 15  1  0
 12 16  2  0
 13 17  1  0
 13 14  2  0
 15 19  2  0
 15 18  1  0
 17 20  2  0
 17 19  1  0
 19 21  1  0
 21 22  2  0
 23 24  2  0
 23 25  1  0
 24 26  1  0
 25 27  2  0
 26 28  2  0
 27 28  1  0
 27 29  1  0
 29 30  1  0
M  END
>  <vina_dock>  (647) 
-11.393

$$$$
O14757_PocketFlow_idx-in-all-generaetd-113
     RDKit          3D

 27 28  0  0  0  0  0  0  0  0999 V2000
    0.6770   -4.7400   43.8640 C   0  0  0  0  0  0  0  0  0  0  0  0
    1.5360   -3.5920   43.3690 C   0  0  0  0  0  0  0  0  0  0  0  0
    3.6060   -2.2920   43.4800 C   0  0  0  0  0  0  0  0  0  0  0  0
    3.1550   -1.5130   42.4080 C   0  0  0  0  0  0  0  0  0  0  0  0
    2.7960   -3.3400   43.9390 C   0  0  0  0  0  0  0  0  0  0  0  0
    1.9100   -1.7600   41.8250 C   0  0  0  0  0  0  0  0  0  0  0  0
    1.1050   -2.7930   42.3020 C   0  0  0  0  0  0  0  0  0  0  0  0
    4.9200   -2.0900   44.1070 C   0  0  0  0  0  0  0  0  0  0  0  0
    5.3770   -2.8060   45.1470 C   0  0  0  0  0  0  0  0  0  0  0  0
    6.7050   -2.5820   45.7400 C   0  0  0  0  0  0  0  0  0  0  0  0
    7.2670   -3.4750   46.6700 C   0  0  0  0  0  0  0  0  0  0  0  0
    7.4650   -1.4710   45.3560 C   0  0  0  0  0  0  0  0  0  0  0  0
    8.4920   -3.2930   47.2000 N   0  0  0  0  0  0  0  0  0  0  0  0
    8.7280   -1.2760   45.9020 C   0  0  0  0  0  0  0  0  0  0  0  0
    9.1920   -2.2070   46.8120 C   0  0  0  0  0  0  0  0  0  0  0  0
    6.5680   -4.6150   47.1020 N   0  0  0  0  0  0  0  0  0  0  0  0
    1.1560   -5.3280   45.1320 N   0  0  0  0  0  0  0  0  0  0  0  0
    0.0120   -5.6710   46.0080 C   0  0  0  0  0  0  0  0  0  0  0  0
   -0.1370   -7.1910   46.2420 C   0  0  0  0  0  0  0  0  0  0  0  0
   -1.4390   -7.7410   45.7220 C   0  0  0  0  0  0  0  0  0  0  0  0
   -1.8040   -7.6960   44.4300 C   0  0  0  0  0  0  0  0  0  0  0  0
   -3.0940   -8.2460   43.9000 C   0  0  0  0  0  0  0  0  0  0  0  0
   -3.7610   -9.1680   44.9110 C   0  0  0  0  0  0  0  0  0  0  0  0
    1.9890   -6.5230   44.8710 C   0  0  0  0  0  0  0  0  0  0  0  0
    3.3890   -6.4270   45.4970 C   0  0  0  0  0  0  0  0  0  0  0  0
    3.7670   -7.6300   46.3630 C   0  0  0  0  0  0  0  0  0  0  0  0
    4.8730   -7.3260   47.2690 N   0  0  0  0  0  0  0  0  0  0  0  0
  1  2  1  0
  1 17  1  0
  2  7  2  0
  2  5  1  0
  3  4  1  0
  3  5  2  0
  3  8  1  0
  4  6  2  0
  6  7  1  0
  8  9  2  3
  9 10  1  0
 10 12  1  0
 10 11  2  0
 11 16  1  0
 11 13  1  0
 12 14  2  0
 13 15  2  0
 14 15  1  0
 17 24  1  0
 17 18  1  0
 18 19  1  0
 19 20  1  0
 20 21  2  3
 21 22  1  0
 22 23  1  0
 24 25  1  0
 25 26  1  0
 26 27  1  0
M  END
>  <vina_dock>  (648) 
-7.716

$$$$
O14757_PocketFlow_idx-in-all-generaetd-755
     RDKit          3D

 23 25  0  0  0  0  0  0  0  0999 V2000
    4.9950   -2.7450   45.7030 C   0  0  0  0  0  0  0  0  0  0  0  0
    3.8040   -3.4720   45.6290 C   0  0  0  0  0  0  0  0  0  0  0  0
    3.0390   -3.4440   44.4570 C   0  0  0  0  0  0  0  0  0  0  0  0
    3.4540   -2.6580   43.3770 C   0  0  0  0  0  0  0  0  0  0  0  0
    5.4310   -1.9780   44.6130 C   0  0  0  0  0  0  0  0  0  0  0  0
    4.6450   -1.9320   43.4540 C   0  0  0  0  0  0  0  0  0  0  0  0
    6.7100   -1.1760   44.6990 C   0  0  0  0  0  0  0  0  0  0  0  0
    7.6900   -1.7680   45.6700 C   0  0  0  0  0  0  0  0  0  0  0  0
    8.7620   -1.1250   46.1510 C   0  0  0  0  0  0  0  0  0  0  0  0
    1.7620   -4.1910   44.3400 C   0  0  0  0  0  0  0  0  0  0  0  0
    0.7910   -3.6490   43.8200 O   0  0  0  0  0  0  0  0  0  0  0  0
    1.6300   -5.5840   44.8350 C   0  0  0  0  0  0  0  0  0  0  0  0
    0.3670   -6.1880   44.7990 C   0  0  0  0  0  0  0  0  0  0  0  0
    2.7390   -6.3070   45.2860 C   0  0  0  0  0  0  0  0  0  0  0  0
    0.1830   -7.5090   45.2420 C   0  0  0  0  0  0  0  0  0  0  0  0
    2.5740   -7.6170   45.7280 C   0  0  0  0  0  0  0  0  0  0  0  0
    1.3080   -8.2090   45.7100 C   0  0  0  0  0  0  0  0  0  0  0  0
   -1.1480   -8.1420   45.2100 C   0  0  0  0  0  0  0  0  0  0  0  0
   -1.5360   -9.0610   46.1980 C   0  0  0  0  0  0  0  0  0  0  0  0
   -2.0690   -7.8450   44.1900 C   0  0  0  0  0  0  0  0  0  0  0  0
   -2.7990   -9.6620   46.1700 C   0  0  0  0  0  0  0  0  0  0  0  0
   -3.3300   -8.4450   44.1590 C   0  0  0  0  0  0  0  0  0  0  0  0
   -3.6940   -9.3530   45.1500 C   0  0  0  0  0  0  0  0  0  0  0  0
  1  5  2  0
  1  2  1  0
  2  3  2  0
  3  4  1  0
  3 10  1  0
  4  6  2  0
  5  6  1  0
  5  7  1  0
  7  8  1  0
  8  9  2  0
 10 11  2  0
 10 12  1  0
 12 13  2  0
 12 14  1  0
 13 15  1  0
 14 16  2  0
 15 18  1  0
 15 17  2  0
 16 17  1  0
 18 20  1  0
 18 19  2  0
 19 21  1  0
 20 22  2  0
 21 23  2  0
 22 23  1  0
M  END
>  <vina_dock>  (649) 
-8.934

$$$$
O14757_PocketFlow_idx-in-all-generaetd-710
     RDKit          3D

 16 17  0  0  0  0  0  0  0  0999 V2000
    2.5160   -3.5150   43.8940 C   0  0  0  0  0  0  0  0  0  0  0  0
    1.7210   -2.9440   42.9620 C   0  0  0  0  0  0  0  0  0  0  0  0
    0.3850   -3.4130   42.4720 C   0  0  0  0  0  0  0  0  0  0  0  0
    2.1300   -4.8030   44.5190 C   0  0  0  0  0  0  0  0  0  0  0  0
    2.9880   -5.9040   44.4280 C   0  0  0  0  0  0  0  0  0  0  0  0
    2.6220   -7.1280   44.9890 C   0  0  0  0  0  0  0  0  0  0  0  0
    1.3960   -7.2610   45.6430 C   0  0  0  0  0  0  0  0  0  0  0  0
    0.8950   -4.9470   45.1680 C   0  0  0  0  0  0  0  0  0  0  0  0
    0.5270   -6.1690   45.7470 C   0  0  0  0  0  0  0  0  0  0  0  0
   -0.8080   -6.3200   46.4140 C   0  0  0  0  0  0  0  0  0  0  0  0
    3.7810   -2.8150   44.2430 C   0  0  0  0  0  0  0  0  0  0  0  0
    4.4720   -3.1030   45.4300 C   0  0  0  0  0  0  0  0  0  0  0  0
    4.3250   -1.8720   43.3600 C   0  0  0  0  0  0  0  0  0  0  0  0
    5.6690   -2.4500   45.7330 C   0  0  0  0  0  0  0  0  0  0  0  0
    5.5230   -1.2200   43.6640 C   0  0  0  0  0  0  0  0  0  0  0  0
    6.1930   -1.5070   44.8510 C   0  0  0  0  0  0  0  0  0  0  0  0
  1  2  2  3
  1 11  1  0
  1  4  1  0
  2  3  1  0
  4  5  2  0
  4  8  1  0
  5  6  1  0
  6  7  2  0
  7  9  1  0
  8  9  2  0
  9 10  1  0
 11 13  1  0
 11 12  2  0
 12 14  1  0
 13 15  2  0
 14 16  2  0
 15 16  1  0
M  END
>  <vina_dock>  (650) 
-7.645

$$$$
O14757_PocketFlow_idx-in-all-generaetd-910
     RDKit          3D

 30 34  0  0  0  0  0  0  0  0999 V2000
   10.6830   -7.1250   48.5690 N   0  0  0  0  0  0  0  0  0  0  0  0
   11.8970   -7.1600   47.9460 C   0  0  0  0  0  0  0  0  0  0  0  0
    9.6660   -6.2120   48.2650 C   0  0  0  0  0  0  0  0  0  0  0  0
    9.9320   -5.0940   47.4600 C   0  0  0  0  0  0  0  0  0  0  0  0
   11.3690   -4.9010   47.0250 C   0  0  0  0  0  0  0  0  0  0  0  0
   12.0690   -6.2270   46.7770 C   0  0  0  0  0  0  0  0  0  0  0  0
    8.3990   -6.4330   48.7920 C   0  0  0  0  0  0  0  0  0  0  0  0
    7.3400   -5.5810   48.4660 C   0  0  0  0  0  0  0  0  0  0  0  0
    7.5700   -4.4870   47.5990 C   0  0  0  0  0  0  0  0  0  0  0  0
    8.8870   -4.1770   47.1660 C   0  0  0  0  0  0  0  0  0  0  0  0
    6.4040   -3.6350   47.1420 C   0  0  0  0  0  0  0  0  0  0  0  0
    6.6770   -3.0310   45.7670 C   0  0  2  0  0  0  0  0  0  0  0  0
    7.9070   -2.1440   45.8420 C   0  0  0  0  0  0  0  0  0  0  0  0
    9.1600   -2.8870   46.3720 C   0  0  1  0  0  0  0  0  0  0  0  0
    5.9720   -5.9000   49.0100 C   0  0  0  0  0  0  0  0  0  0  0  0
   12.7530   -7.9780   48.2700 O   0  0  0  0  0  0  0  0  0  0  0  0
   10.0360   -1.8940   47.1860 C   0  0  2  0  0  0  0  0  0  0  0  0
    9.3350   -1.4430   48.2620 F   0  0  0  0  0  0  0  0  0  0  0  0
   10.4230   -0.7050   46.4420 N   0  0  0  0  0  0  0  0  0  0  0  0
    5.4870   -2.3060   45.0950 C   0  0  0  0  0  0  0  0  0  0  0  0
    4.1610   -3.0030   44.9740 C   0  0  0  0  0  0  0  0  0  0  0  0
    5.7740   -1.1130   44.6530 N   0  0  0  0  0  0  0  0  0  0  0  0
    3.5970   -3.6510   46.0800 C   0  0  0  0  0  0  0  0  0  0  0  0
    3.4710   -3.0070   43.7460 C   0  0  0  0  0  0  0  0  0  0  0  0
    4.8840   -0.3440   43.9620 C   0  0  0  0  0  0  0  0  0  0  0  0
    2.3910   -4.3440   45.9570 C   0  0  0  0  0  0  0  0  0  0  0  0
    3.9880   -2.2060   42.5790 C   0  0  0  0  0  0  0  0  0  0  0  0
    2.2590   -3.7110   43.6350 C   0  0  0  0  0  0  0  0  0  0  0  0
    4.0930   -0.7650   42.9670 C   0  0  0  0  0  0  0  0  0  0  0  0
    1.7280   -4.3820   44.7340 C   0  0  0  0  0  0  0  0  0  0  0  0
  1  2  1  0
  1  3  1  0
  2  6  1  0
  2 16  2  0
  3  4  2  0
  3  7  1  0
  4  5  1  0
  4 10  1  0
  5  6  1  0
  7  8  2  0
  8  9  1  0
  8 15  1  0
  9 11  1  0
  9 10  2  0
 10 14  1  0
 11 12  1  0
 12 20  1  1
 12 13  1  0
 14 13  1  1
 14 17  1  0
 17 19  1  6
 17 18  1  0
 20 22  2  0
 20 21  1  0
 21 24  2  0
 21 23  1  0
 22 25  1  0
 23 26  2  0
 24 27  1  0
 24 28  1  0
 25 29  2  0
 26 30  1  0
 27 29  1  0
 28 30  2  0
M  END
>  <vina_dock>  (651) 
-8.763

$$$$
O14757_PocketFlow_idx-in-all-generaetd-442
     RDKit          3D

 13 13  0  0  0  0  0  0  0  0999 V2000
    0.6900   -3.3440   42.2930 C   0  0  0  0  0  0  0  0  0  0  0  0
    1.0810   -2.4270   41.1350 C   0  0  0  0  0  0  0  0  0  0  0  0
    0.8090   -0.9820   41.4580 C   0  0  0  0  0  0  0  0  0  0  0  0
    1.6190   -0.0810   41.5700 O   0  0  0  0  0  0  0  0  0  0  0  0
   -0.5070   -0.7480   41.6400 O   0  0  0  0  0  0  0  0  0  0  0  0
    1.3970   -3.0000   43.6060 C   0  0  0  0  0  0  0  0  0  0  0  0
    2.6380   -3.8560   43.8690 C   0  0  0  0  0  0  0  0  0  0  0  0
    3.8680   -3.0060   44.0670 C   0  0  0  0  0  0  0  0  0  0  0  0
    4.0730   -1.8600   43.2870 C   0  0  0  0  0  0  0  0  0  0  0  0
    4.8370   -3.3660   45.0130 C   0  0  0  0  0  0  0  0  0  0  0  0
    5.2190   -1.0820   43.4590 C   0  0  0  0  0  0  0  0  0  0  0  0
    5.9830   -2.5880   45.1830 C   0  0  0  0  0  0  0  0  0  0  0  0
    6.1730   -1.4460   44.4070 C   0  0  0  0  0  0  0  0  0  0  0  0
  1  2  1  0
  1  6  1  0
  2  3  1  0
  3  4  2  0
  3  5  1  0
  6  7  1  0
  7  8  1  0
  8  9  2  0
  8 10  1  0
  9 11  1  0
 10 12  2  0
 11 13  2  0
 12 13  1  0
M  END
>  <vina_dock>  (652) 
-6.004

$$$$
O14757_PocketFlow_idx-in-all-generaetd-284
     RDKit          3D

 26 28  0  0  0  0  0  0  0  0999 V2000
    3.8390   -4.6140   45.5500 C   0  0  0  0  0  0  0  0  0  0  0  0
    4.5650   -4.1750   46.6670 C   0  0  0  0  0  0  0  0  0  0  0  0
    3.8890   -3.8350   44.3810 C   0  0  0  0  0  0  0  0  0  0  0  0
    4.6370   -2.6480   44.3190 C   0  0  0  0  0  0  0  0  0  0  0  0
    5.3180   -3.0000   46.6180 C   0  0  0  0  0  0  0  0  0  0  0  0
    5.3570   -2.2430   45.4500 C   0  0  0  0  0  0  0  0  0  0  0  0
    3.0530   -5.8570   45.5980 C   0  0  0  0  0  0  0  0  0  0  0  0
    0.9580   -7.0660   45.1950 C   0  0  0  0  0  0  0  0  0  0  0  0
    1.5400   -8.2320   45.7080 C   0  0  0  0  0  0  0  0  0  0  0  0
    1.7200   -5.8870   45.1510 C   0  0  0  0  0  0  0  0  0  0  0  0
    2.8610   -8.2210   46.1530 C   0  0  0  0  0  0  0  0  0  0  0  0
    3.6100   -7.0450   46.0960 C   0  0  0  0  0  0  0  0  0  0  0  0
   -0.4740   -7.0680   44.7180 C   0  0  0  0  0  0  0  0  0  0  0  0
   -1.4930   -7.1010   45.8300 C   0  0  0  0  0  0  0  0  0  0  0  0
   -2.2470   -8.0060   46.1440 O   0  0  0  0  0  0  0  0  0  0  0  0
   -1.5000   -5.9480   46.5350 O   0  0  0  0  0  0  0  0  0  0  0  0
    4.6850   -1.8390   43.0450 C   0  0  0  0  0  0  0  0  0  0  0  0
    3.3180   -1.4700   42.5130 C   0  0  0  0  0  0  0  0  0  0  0  0
    2.3170   -2.4440   42.3910 C   0  0  0  0  0  0  0  0  0  0  0  0
    3.0230   -0.1460   42.1600 C   0  0  0  0  0  0  0  0  0  0  0  0
    1.0420   -2.1050   41.9160 C   0  0  0  0  0  0  0  0  0  0  0  0
    1.7550    0.1970   41.6850 C   0  0  0  0  0  0  0  0  0  0  0  0
    0.7650   -0.7780   41.5620 C   0  0  0  0  0  0  0  0  0  0  0  0
    0.0250   -3.1780   41.8050 C   0  0  0  0  0  0  0  0  0  0  0  0
   -0.7440   -3.3380   40.8750 O   0  0  0  0  0  0  0  0  0  0  0  0
    0.0150   -4.0020   42.8670 O   0  0  0  0  0  0  0  0  0  0  0  0
  1  3  1  0
  1  7  1  0
  1  2  2  0
  2  5  1  0
  3  4  2  0
  4 17  1  0
  4  6  1  0
  5  6  2  0
  7 10  1  0
  7 12  2  0
  8 13  1  0
  8 10  2  0
  8  9  1  0
  9 11  2  0
 11 12  1  0
 13 14  1  0
 14 15  2  0
 14 16  1  0
 17 18  1  0
 18 20  1  0
 18 19  2  0
 19 21  1  0
 20 22  2  0
 21 23  2  0
 21 24  1  0
 22 23  1  0
 24 25  2  0
 24 26  1  0
M  END
>  <vina_dock>  (653) 
-9.005

$$$$
O14757_PocketFlow_idx-in-all-generaetd-122
     RDKit          3D

 18 19  0  0  0  0  0  0  0  0999 V2000
    0.3670   -7.1890   45.5660 C   0  0  0  0  0  0  0  0  0  0  0  0
    0.7490   -8.4260   46.0730 C   0  0  0  0  0  0  0  0  0  0  0  0
    1.3950   -6.3380   45.1290 C   0  0  0  0  0  0  0  0  0  0  0  0
    2.7390   -6.7300   45.1740 C   0  0  0  0  0  0  0  0  0  0  0  0
    2.9810   -7.9790   45.7470 C   0  0  0  0  0  0  0  0  0  0  0  0
    2.0290   -8.8440   46.1760 N   0  0  0  0  0  0  0  0  0  0  0  0
   -1.0940   -6.8190   45.4980 C   0  0  2  0  0  0  0  0  0  0  0  0
   -1.4640   -5.9300   46.5340 O   0  0  0  0  0  0  0  0  0  0  0  0
   -1.9960   -7.9590   45.4850 N   0  0  0  0  0  0  0  0  0  0  0  0
   -2.7180   -8.1140   44.2270 C   0  0  0  0  0  0  0  0  0  0  0  0
    3.7230   -5.8170   44.7840 N   0  0  0  0  0  0  0  0  0  0  0  0
    4.1650   -4.7670   45.6970 C   0  0  0  0  0  0  0  0  0  0  0  0
    4.4930   -3.5010   44.9400 C   0  0  0  0  0  0  0  0  0  0  0  0
    5.6750   -2.7940   45.2010 C   0  0  0  0  0  0  0  0  0  0  0  0
    3.6310   -3.0320   43.9360 C   0  0  0  0  0  0  0  0  0  0  0  0
    5.9820   -1.6350   44.4850 C   0  0  0  0  0  0  0  0  0  0  0  0
    3.9390   -1.8720   43.2220 C   0  0  0  0  0  0  0  0  0  0  0  0
    5.1130   -1.1740   43.4990 C   0  0  0  0  0  0  0  0  0  0  0  0
  1  3  2  0
  1  7  1  0
  1  2  1  0
  2  6  2  0
  3  4  1  0
  4 11  1  0
  4  5  2  0
  5  6  1  0
  7  9  1  0
  7  8  1  1
  9 10  1  0
 11 12  1  0
 12 13  1  0
 13 15  1  0
 13 14  2  0
 14 16  1  0
 15 17  2  0
 16 18  2  0
 17 18  1  0
M  END
>  <vina_dock>  (654) 
-6.767

$$$$
O14757_PocketFlow_idx-in-all-generaetd-993
     RDKit          3D

 10 10  0  0  0  0  0  0  0  0999 V2000
    1.8450   -2.9930   43.1290 C   0  0  0  0  0  0  0  0  0  0  0  0
    2.8040   -3.5290   43.9050 C   0  0  0  0  0  0  0  0  0  0  0  0
    0.4950   -3.5540   42.7950 C   0  0  0  0  0  0  0  0  0  0  0  0
    0.0050   -3.3870   41.1000 Cl  0  0  0  0  0  0  0  0  0  0  0  0
    4.0940   -2.8750   44.1740 C   0  0  0  0  0  0  0  0  0  0  0  0
    4.4010   -1.6840   43.5050 C   0  0  0  0  0  0  0  0  0  0  0  0
    5.0000   -3.3740   45.1190 C   0  0  0  0  0  0  0  0  0  0  0  0
    5.6050   -1.0200   43.7530 C   0  0  0  0  0  0  0  0  0  0  0  0
    6.2030   -2.7080   45.3680 C   0  0  0  0  0  0  0  0  0  0  0  0
    6.5060   -1.5330   44.6830 C   0  0  0  0  0  0  0  0  0  0  0  0
  1  3  1  0
  1  2  2  3
  2  5  1  0
  3  4  1  0
  5  6  2  0
  5  7  1  0
  6  8  1  0
  7  9  2  0
  8 10  2  0
  9 10  1  0
M  END
>  <vina_dock>  (655) 
-5.726

$$$$
O14757_PocketFlow_idx-in-all-generaetd-282
     RDKit          3D

 29 30  0  0  0  0  0  0  0  0999 V2000
    0.0240   -6.6680   45.3530 C   0  0  0  0  0  0  0  0  0  0  0  0
    1.2040   -6.1090   45.6690 C   0  0  0  0  0  0  0  0  0  0  0  0
   -1.1440   -6.7590   46.2880 C   0  0  0  0  0  0  0  0  0  0  0  0
   -0.7520   -7.0760   47.6530 N   0  0  0  0  0  0  0  0  0  0  0  0
   -0.8910   -8.4820   47.9720 C   0  0  0  0  0  0  0  0  0  0  0  0
    0.4310   -8.9620   48.3670 N   0  0  0  0  0  0  0  0  0  0  0  0
    0.9730   -9.8410   47.3280 C   0  0  0  0  0  0  0  0  0  0  0  0
    0.3780   -9.6900   49.6400 C   0  0  0  0  0  0  0  0  0  0  0  0
    2.3780   -6.0330   44.7320 C   0  0  0  0  0  0  0  0  0  0  0  0
    3.2690   -4.8410   45.0310 C   0  0  0  0  0  0  0  0  0  0  0  0
    4.1060   -4.8670   46.0890 C   0  0  0  0  0  0  0  0  0  0  0  0
    3.1620   -3.6940   44.1010 C   0  0  0  0  0  0  0  0  0  0  0  0
    4.2630   -2.8650   43.8570 C   0  0  0  0  0  0  0  0  0  0  0  0
    1.9440   -3.4060   43.4630 C   0  0  0  0  0  0  0  0  0  0  0  0
    4.1400   -1.7840   42.9900 C   0  0  0  0  0  0  0  0  0  0  0  0
    1.8330   -2.3190   42.5910 C   0  0  0  0  0  0  0  0  0  0  0  0
    5.2040   -1.0060   42.7560 F   0  0  0  0  0  0  0  0  0  0  0  0
    2.9370   -1.5040   42.3530 C   0  0  0  0  0  0  0  0  0  0  0  0
    5.0500   -3.8140   46.5560 C   0  0  0  0  0  0  0  0  0  0  0  0
    6.3180   -3.9370   46.0380 N   0  0  0  0  0  0  0  0  0  0  0  0
    4.6130   -2.9320   47.2830 O   0  0  0  0  0  0  0  0  0  0  0  0
    7.4160   -3.0590   46.1960 C   0  0  0  0  0  0  0  0  0  0  0  0
    8.5110   -3.4640   46.9960 C   0  0  0  0  0  0  0  0  0  0  0  0
    7.4650   -1.8100   45.5630 C   0  0  0  0  0  0  0  0  0  0  0  0
    9.6280   -2.6120   47.1120 C   0  0  0  0  0  0  0  0  0  0  0  0
    8.5780   -0.9760   45.6970 C   0  0  0  0  0  0  0  0  0  0  0  0
    9.6620   -1.3780   46.4660 C   0  0  0  0  0  0  0  0  0  0  0  0
    8.5300   -4.7460   47.7820 C   0  0  0  0  0  0  0  0  0  0  0  0
    7.5600   -4.5420   49.4540 Br  0  0  0  0  0  0  0  0  0  0  0  0
  1  2  2  3
  1  3  1  0
  2  9  1  0
  3  4  1  0
  4  5  1  0
  5  6  1  0
  6  7  1  0
  6  8  1  0
  9 10  1  0
 10 12  1  0
 10 11  2  3
 11 19  1  0
 12 14  1  0
 12 13  2  0
 13 15  1  0
 14 16  2  0
 15 18  2  0
 15 17  1  0
 16 18  1  0
 19 20  1  0
 19 21  2  0
 20 22  1  0
 22 24  1  0
 22 23  2  0
 23 25  1  0
 23 28  1  0
 24 26  2  0
 25 27  2  0
 26 27  1  0
 28 29  1  0
M  END
>  <vina_dock>  (656) 
-8.087

$$$$
O14757_PocketFlow_idx-in-all-generaetd-413
     RDKit          3D

 23 26  0  0  0  0  0  0  0  0999 V2000
    9.1800   -1.5540   46.3170 C   0  0  0  0  0  0  0  0  0  0  0  0
    8.9280   -2.5340   47.2740 C   0  0  0  0  0  0  0  0  0  0  0  0
    8.1760   -1.2540   45.3980 C   0  0  0  0  0  0  0  0  0  0  0  0
    6.9750   -1.9910   45.3680 C   0  0  0  0  0  0  0  0  0  0  0  0
    5.9680   -1.7300   44.4320 C   0  0  0  0  0  0  0  0  0  0  0  0
    4.7910   -2.4880   44.4370 C   0  0  0  0  0  0  0  0  0  0  0  0
    3.7610   -2.2620   43.5100 C   0  0  0  0  0  0  0  0  0  0  0  0
    7.7360   -3.2680   47.2430 C   0  0  0  0  0  0  0  0  0  0  0  0
    6.7520   -3.0220   46.2980 C   0  0  0  0  0  0  0  0  0  0  0  0
    2.6020   -3.0360   43.5440 C   0  0  0  0  0  0  0  0  0  0  0  0
    2.4540   -4.0360   44.5080 C   0  0  0  0  0  0  0  0  0  0  0  0
    3.5000   -4.2580   45.4160 C   0  0  0  0  0  0  0  0  0  0  0  0
    4.6650   -3.5010   45.4050 C   0  0  0  0  0  0  0  0  0  0  0  0
    5.6260   -3.7560   46.3100 N   0  0  0  0  0  0  0  0  0  0  0  0
   10.3140   -0.7420   46.4170 N   0  0  0  0  0  0  0  0  0  0  0  0
    1.2670   -4.9010   44.5690 C   0  0  0  0  0  0  0  0  0  0  0  0
    1.1420   -5.9460   45.4020 C   0  0  0  0  0  0  0  0  0  0  0  0
   -0.0460   -6.8090   45.4570 C   0  0  0  0  0  0  0  0  0  0  0  0
   -0.5620   -7.2960   46.6670 C   0  0  0  0  0  0  0  0  0  0  0  0
   -0.7210   -7.1100   44.2680 C   0  0  0  0  0  0  0  0  0  0  0  0
   -1.7110   -8.0900   46.6810 C   0  0  0  0  0  0  0  0  0  0  0  0
   -1.8710   -7.9040   44.2820 C   0  0  0  0  0  0  0  0  0  0  0  0
   -2.3640   -8.3960   45.4890 C   0  0  0  0  0  0  0  0  0  0  0  0
  1  3  2  0
  1 15  1  0
  1  2  1  0
  2  8  2  0
  3  4  1  0
  4  5  2  0
  4  9  1  0
  5  6  1  0
  6  7  2  0
  6 13  1  0
  7 10  1  0
  8  9  1  0
  9 14  2  0
 10 11  2  0
 11 16  1  0
 11 12  1  0
 12 13  2  0
 13 14  1  0
 16 17  2  3
 17 18  1  0
 18 20  1  0
 18 19  2  0
 19 21  1  0
 20 22  2  0
 21 23  2  0
 22 23  1  0
M  END
>  <vina_dock>  (657) 
-9.859

$$$$
O14757_PocketFlow_idx-in-all-generaetd-237
     RDKit          3D

 18 18  0  0  0  0  0  0  0  0999 V2000
    1.3750   -3.7420   43.6590 C   0  0  0  0  0  0  0  0  0  0  0  0
    1.2840   -2.8810   42.5400 C   0  0  0  0  0  0  0  0  0  0  0  0
    2.3440   -2.0100   42.2380 C   0  0  0  0  0  0  0  0  0  0  0  0
    3.4810   -1.9880   43.0370 C   0  0  0  0  0  0  0  0  0  0  0  0
    3.5870   -2.8190   44.1460 C   0  0  0  0  0  0  0  0  0  0  0  0
    2.5370   -3.7020   44.4470 C   0  0  0  0  0  0  0  0  0  0  0  0
    4.4800   -1.1640   42.6900 F   0  0  0  0  0  0  0  0  0  0  0  0
    0.3060   -4.6150   43.9570 N   0  0  0  0  0  0  0  0  0  0  0  0
    0.2730   -5.9690   43.9200 C   0  0  0  0  0  0  0  0  0  0  0  0
    0.7930   -6.7970   44.6430 O   0  0  0  0  0  0  0  0  0  0  0  0
   -0.4870   -6.3680   42.8860 O   0  0  0  0  0  0  0  0  0  0  0  0
    0.0750   -2.8880   41.6700 C   0  0  0  0  0  0  0  0  0  0  0  0
   -0.3230   -3.8330   41.0140 O   0  0  0  0  0  0  0  0  0  0  0  0
   -0.5790   -1.7140   41.6640 O   0  0  0  0  0  0  0  0  0  0  0  0
    4.7960   -2.8220   45.0070 C   0  0  0  0  0  0  0  0  0  0  0  0
    5.4510   -3.8590   45.1090 O   0  0  0  0  0  0  0  0  0  0  0  0
    5.2020   -1.5310   45.7190 C   0  0  0  0  0  0  0  0  0  0  0  0
    6.6040   -1.2220   45.4120 N   0  0  0  0  0  0  0  0  0  0  0  0
  1  2  2  0
  1  8  1  0
  1  6  1  0
  2 12  1  0
  2  3  1  0
  3  4  2  0
  4  7  1  0
  4  5  1  0
  5  6  2  0
  5 15  1  0
  8  9  1  0
  9 11  1  0
  9 10  2  0
 12 13  2  0
 12 14  1  0
 15 16  2  0
 15 17  1  0
 17 18  1  0
M  END
>  <vina_dock>  (658) 
-6.637

$$$$
O14757_PocketFlow_idx-in-all-generaetd-536
     RDKit          3D

 35 37  0  0  0  0  0  0  0  0999 V2000
    4.4860   -1.6230   42.7380 C   0  0  0  0  0  0  0  0  0  0  0  0
    3.0370   -1.6180   42.4770 N   0  0  0  0  0  0  0  0  0  0  0  0
    2.2060   -2.5760   43.2410 C   0  0  1  0  0  0  0  0  0  0  0  0
    0.3270   -2.3770   41.6570 O   0  0  0  0  0  0  0  0  0  0  0  0
    0.8870   -2.9760   42.5700 C   0  0  0  0  0  0  0  0  0  0  0  0
    0.2750   -4.0610   43.1450 N   0  0  0  0  0  0  0  0  0  0  0  0
    2.9380   -3.8380   43.7790 C   0  0  0  0  0  0  0  0  0  0  0  0
    0.6930   -4.5480   44.4200 C   0  0  0  0  0  0  0  0  0  0  0  0
    2.0800   -4.9300   44.2770 N   0  0  0  0  0  0  0  0  0  0  0  0
    2.5980   -5.5610   45.5000 C   0  0  0  0  0  0  0  0  0  0  0  0
    2.6270   -7.1080   45.4530 C   0  0  0  0  0  0  0  0  0  0  0  0
    1.3510   -7.7460   45.1120 N   0  0  0  0  0  0  0  0  0  0  0  0
    0.3420   -7.5980   46.1660 C   0  0  0  0  0  0  0  0  0  0  0  0
   -0.9880   -8.1550   45.7070 C   0  0  0  0  0  0  0  0  0  0  0  0
   -1.6430   -7.6200   44.5890 C   0  0  0  0  0  0  0  0  0  0  0  0
   -1.5850   -9.2260   46.3920 C   0  0  0  0  0  0  0  0  0  0  0  0
   -2.8690   -8.1420   44.1690 C   0  0  0  0  0  0  0  0  0  0  0  0
   -2.8100   -9.7470   45.9720 C   0  0  0  0  0  0  0  0  0  0  0  0
   -3.4510   -9.2040   44.8610 C   0  0  0  0  0  0  0  0  0  0  0  0
    4.9960   -0.6730   43.8350 C   0  0  0  0  0  0  0  0  0  0  0  0
    4.6480   -1.1900   45.1220 O   0  0  0  0  0  0  0  0  0  0  0  0
    5.5710   -1.9950   45.7300 C   0  0  0  0  0  0  0  0  0  0  0  0
    5.3080   -2.9440   46.7180 C   0  0  0  0  0  0  0  0  0  0  0  0
    6.8880   -1.8070   45.2990 C   0  0  0  0  0  0  0  0  0  0  0  0
    6.3510   -3.7070   47.2610 C   0  0  0  0  0  0  0  0  0  0  0  0
    7.9340   -2.5520   45.8470 C   0  0  0  0  0  0  0  0  0  0  0  0
    7.6690   -3.5010   46.8330 C   0  0  0  0  0  0  0  0  0  0  0  0
    6.0140   -4.7080   48.3090 C   0  0  0  0  0  0  0  0  0  0  0  0
    5.8240   -6.0050   47.8630 N   0  0  0  0  0  0  0  0  0  0  0  0
    5.8920   -4.3480   49.4770 O   0  0  0  0  0  0  0  0  0  0  0  0
    5.5160   -7.0470   48.7030 C   0  0  0  0  0  0  0  0  0  0  0  0
    5.1410   -8.2480   48.2420 C   0  0  0  0  0  0  0  0  0  0  0  0
    4.8150   -9.3490   49.1200 C   0  0  0  0  0  0  0  0  0  0  0  0
    3.6390   -9.9960   49.1880 C   0  0  0  0  0  0  0  0  0  0  0  0
    2.3930   -9.7500   48.3980 C   0  0  0  0  0  0  0  0  0  0  0  0
  1  2  1  0
  1 20  1  0
  3  2  1  6
  3  5  1  0
  3  7  1  0
  4  5  2  0
  5  6  1  0
  6  8  1  0
  7  9  1  0
  8  9  1  0
  9 10  1  0
 10 11  1  0
 11 12  1  0
 12 13  1  0
 13 14  1  0
 14 15  2  0
 14 16  1  0
 15 17  1  0
 16 18  2  0
 17 19  2  0
 18 19  1  0
 20 21  1  0
 21 22  1  0
 22 24  1  0
 22 23  2  0
 23 25  1  0
 24 26  2  0
 25 27  2  0
 25 28  1  0
 26 27  1  0
 28 29  1  0
 28 30  2  0
 29 31  1  0
 31 32  2  3
 32 33  1  0
 33 34  2  3
 34 35  1  0
M  END
>  <vina_dock>  (659) 
-8.127

$$$$
O14757_PocketFlow_idx-in-all-generaetd-479
     RDKit          3D

 35 38  0  0  0  0  0  0  0  0999 V2000
    0.7680   -5.7330   45.2800 C   0  0  0  0  0  0  0  0  0  0  0  0
    0.3640   -6.3870   44.1080 C   0  0  0  0  0  0  0  0  0  0  0  0
   -0.7430   -7.2410   44.1180 C   0  0  0  0  0  0  0  0  0  0  0  0
   -1.4650   -7.4440   45.3030 C   0  0  0  0  0  0  0  0  0  0  0  0
   -1.0700   -6.7730   46.4700 C   0  0  0  0  0  0  0  0  0  0  0  0
    0.0380   -5.9170   46.4600 C   0  0  0  0  0  0  0  0  0  0  0  0
    1.9550   -4.8330   45.2170 C   0  0  0  0  0  0  0  0  0  0  0  0
    3.0450   -5.2530   45.9530 N   0  0  0  0  0  0  0  0  0  0  0  0
    1.8880   -3.8360   44.5080 O   0  0  0  0  0  0  0  0  0  0  0  0
    4.2960   -4.6060   46.1050 C   0  0  0  0  0  0  0  0  0  0  0  0
   10.6700   -1.4430   46.9560 C   0  0  0  0  0  0  0  0  0  0  0  0
   10.3860   -2.5800   47.7060 C   0  0  0  0  0  0  0  0  0  0  0  0
    9.7080   -0.9560   46.0690 C   0  0  0  0  0  0  0  0  0  0  0  0
    9.1490   -3.2210   47.5670 C   0  0  0  0  0  0  0  0  0  0  0  0
    8.4630   -1.5960   45.9240 C   0  0  0  0  0  0  0  0  0  0  0  0
    8.1470   -2.7540   46.6740 C   0  0  0  0  0  0  0  0  0  0  0  0
    7.5310   -1.0750   45.0260 C   0  0  0  0  0  0  0  0  0  0  0  0
    6.8600   -3.3780   46.4940 C   0  0  0  0  0  0  0  0  0  0  0  0
    6.2760   -1.6710   44.8380 C   0  0  0  0  0  0  0  0  0  0  0  0
    6.4610   -4.5360   47.2050 C   0  0  0  0  0  0  0  0  0  0  0  0
    5.9270   -2.8310   45.5690 C   0  0  0  0  0  0  0  0  0  0  0  0
    5.3360   -1.0350   43.8420 C   0  0  0  0  0  0  0  0  0  0  0  0
    5.2120   -5.1330   47.0170 C   0  0  0  0  0  0  0  0  0  0  0  0
    4.6660   -3.4600   45.4010 C   0  0  0  0  0  0  0  0  0  0  0  0
    4.8320   -6.5460   47.9470 Cl  0  0  0  0  0  0  0  0  0  0  0  0
   11.9910   -0.7930   47.1290 C   0  0  0  0  0  0  0  0  0  0  0  0
   12.9210   -1.2340   47.7770 O   0  0  0  0  0  0  0  0  0  0  0  0
   12.0840    0.3820   46.4840 O   0  0  0  0  0  0  0  0  0  0  0  0
   -2.6490   -8.3460   45.3800 C   0  0  0  0  0  0  0  0  0  0  0  0
   -3.7610   -8.0130   44.9940 O   0  0  0  0  0  0  0  0  0  0  0  0
   -2.2890   -9.5410   45.9330 O   0  0  0  0  0  0  0  0  0  0  0  0
   -2.7790   -9.8040   47.2150 C   0  0  0  0  0  0  0  0  0  0  0  0
   -1.9760   -9.9520   48.2810 C   0  0  0  0  0  0  0  0  0  0  0  0
   -0.4810   -9.8430   48.2140 C   0  0  0  0  0  0  0  0  0  0  0  0
   -2.5410  -10.2370   49.6430 C   0  0  0  0  0  0  0  0  0  0  0  0
  1  2  2  0
  1  7  1  0
  1  6  1  0
  2  3  1  0
  3  4  2  0
  4 29  1  0
  4  5  1  0
  5  6  2  0
  7  9  2  0
  7  8  1  0
  8 10  1  0
 10 24  2  0
 10 23  1  0
 11 13  2  0
 11 26  1  0
 11 12  1  0
 12 14  2  0
 13 15  1  0
 14 16  1  0
 15 17  2  0
 15 16  1  0
 16 18  2  0
 17 19  1  0
 18 21  1  0
 18 20  1  0
 19 22  1  0
 19 21  2  0
 20 23  2  0
 21 24  1  0
 23 25  1  0
 26 28  1  0
 26 27  2  0
 29 30  2  0
 29 31  1  0
 31 32  1  0
 32 33  2  3
 33 34  1  0
 33 35  1  0
M  END
>  <vina_dock>  (660) 
-8.871

$$$$
O14757_PocketFlow_idx-in-all-generaetd-615
     RDKit          3D

 35 38  0  0  0  0  0  0  0  0999 V2000
    9.0660   -1.9960   46.9530 C   0  0  0  0  0  0  0  0  0  0  0  0
   10.3410   -2.8150   46.6550 C   0  0  1  0  0  0  0  0  0  0  0  0
   11.5750   -2.2320   47.3560 C   0  0  0  0  0  0  0  0  0  0  0  0
   10.1210   -4.3040   46.8840 C   0  0  0  0  0  0  0  0  0  0  0  0
    9.1420   -6.1820   48.0790 C   0  0  0  0  0  0  0  0  0  0  0  0
    9.3420   -4.8040   47.9380 C   0  0  0  0  0  0  0  0  0  0  0  0
    9.7440   -7.0800   47.2020 C   0  0  0  0  0  0  0  0  0  0  0  0
   10.5190   -6.5990   46.1510 C   0  0  0  0  0  0  0  0  0  0  0  0
   10.7000   -5.2230   45.9900 C   0  0  0  0  0  0  0  0  0  0  0  0
    8.4040   -6.7020   49.1150 O   0  0  0  0  0  0  0  0  0  0  0  0
    7.2150   -7.3110   48.7870 C   0  0  0  0  0  0  0  0  0  0  0  0
    6.0250   -6.7340   48.9710 C   0  0  0  0  0  0  0  0  0  0  0  0
    4.8730   -7.3890   48.6340 O   0  0  0  0  0  0  0  0  0  0  0  0
    5.9070   -5.4800   49.5050 O   0  0  0  0  0  0  0  0  0  0  0  0
    8.4870   -1.2370   45.7520 C   0  0  0  0  0  0  0  0  0  0  0  0
    7.1210   -1.7460   45.3800 C   0  0  0  0  0  0  0  0  0  0  0  0
    6.4860   -2.7370   46.1230 C   0  0  0  0  0  0  0  0  0  0  0  0
    6.4460   -1.2660   44.2720 C   0  0  0  0  0  0  0  0  0  0  0  0
    5.2160   -3.2020   45.7490 C   0  0  0  0  0  0  0  0  0  0  0  0
    5.2220   -1.6900   43.8870 N   0  0  0  0  0  0  0  0  0  0  0  0
    4.5790   -4.1940   46.4960 C   0  0  0  0  0  0  0  0  0  0  0  0
    4.5940   -2.6500   44.6090 C   0  0  0  0  0  0  0  0  0  0  0  0
    3.3170   -4.6500   46.1260 C   0  0  0  0  0  0  0  0  0  0  0  0
    3.3100   -3.1200   44.2450 C   0  0  0  0  0  0  0  0  0  0  0  0
    2.6520   -4.1310   44.9980 C   0  0  0  0  0  0  0  0  0  0  0  0
    2.6490   -2.5850   43.1170 C   0  0  0  0  0  0  0  0  0  0  0  0
    1.3590   -4.5520   44.5840 C   0  0  0  0  0  0  0  0  0  0  0  0
    1.3810   -3.0120   42.7250 C   0  0  0  0  0  0  0  0  0  0  0  0
    0.7340   -3.9960   43.4560 C   0  0  0  0  0  0  0  0  0  0  0  0
    0.6250   -5.6180   45.3080 C   0  0  0  0  0  0  0  0  0  0  0  0
    0.2210   -5.5110   46.4540 O   0  0  0  0  0  0  0  0  0  0  0  0
    0.4830   -6.6780   44.4580 O   0  0  0  0  0  0  0  0  0  0  0  0
   -0.4730   -7.6260   44.8250 C   0  0  0  0  0  0  0  0  0  0  0  0
   -1.7140   -7.5880   44.3290 C   0  0  0  0  0  0  0  0  0  0  0  0
   -2.7760   -8.5770   44.6740 C   0  0  0  0  0  0  0  0  0  0  0  0
  1 15  1  0
  1  2  1  0
  2  4  1  0
  2  3  1  1
  4  9  1  0
  4  6  2  0
  5  7  2  0
  5  6  1  0
  5 10  1  0
  7  8  1  0
  8  9  2  0
 10 11  1  0
 11 12  2  3
 12 13  1  0
 12 14  1  0
 15 16  1  0
 16 18  1  0
 16 17  2  0
 17 19  1  0
 18 20  2  0
 19 22  2  0
 19 21  1  0
 20 22  1  0
 21 23  2  0
 22 24  1  0
 23 25  1  0
 24 26  2  0
 24 25  1  0
 25 27  2  0
 26 28  1  0
 27 29  1  0
 27 30  1  0
 28 29  2  0
 30 32  1  0
 30 31  2  0
 32 33  1  0
 33 34  2  3
 34 35  1  0
M  END
>  <vina_dock>  (661) 
-8.653

$$$$
O14757_PocketFlow_idx-in-all-generaetd-491
     RDKit          3D

 17 18  0  0  0  0  0  0  0  0999 V2000
    2.3060   -4.7480   44.9670 C   0  0  1  0  0  0  0  0  0  0  0  0
    3.5000   -5.6530   44.6330 C   0  0  0  0  0  0  0  0  0  0  0  0
    2.1130   -3.6410   43.9500 C   0  0  0  0  0  0  0  0  0  0  0  0
    2.8930   -1.8480   42.5320 C   0  0  0  0  0  0  0  0  0  0  0  0
    1.6010   -1.6970   42.0560 C   0  0  0  0  0  0  0  0  0  0  0  0
    3.1530   -2.8290   43.4880 C   0  0  0  0  0  0  0  0  0  0  0  0
    0.5820   -2.4690   42.4630 N   0  0  0  0  0  0  0  0  0  0  0  0
    0.8570   -3.4190   43.3900 C   0  0  0  0  0  0  0  0  0  0  0  0
    1.3070   -0.7400   41.0890 N   0  0  0  0  0  0  0  0  0  0  0  0
    1.0800   -5.6000   45.2340 C   0  0  0  0  0  0  0  0  0  0  0  0
    0.7930   -6.8110   44.7230 C   0  0  0  0  0  0  0  0  0  0  0  0
   -0.4370   -7.5560   45.0240 C   0  0  0  0  0  0  0  0  0  0  0  0
   -1.4980   -7.5070   44.1100 C   0  0  0  0  0  0  0  0  0  0  0  0
   -0.5660   -8.3610   46.1630 C   0  0  0  0  0  0  0  0  0  0  0  0
   -2.6740   -8.2240   44.3440 C   0  0  0  0  0  0  0  0  0  0  0  0
   -1.7410   -9.0800   46.3980 C   0  0  0  0  0  0  0  0  0  0  0  0
   -2.7960   -9.0080   45.4890 C   0  0  0  0  0  0  0  0  0  0  0  0
  1  3  1  0
  1  2  1  6
  1 10  1  0
  3  8  1  0
  3  6  2  0
  4  5  2  0
  4  6  1  0
  5  9  1  0
  5  7  1  0
  7  8  2  0
 10 11  2  3
 11 12  1  0
 12 13  2  0
 12 14  1  0
 13 15  1  0
 14 16  2  0
 15 17  2  0
 16 17  1  0
M  END
>  <vina_dock>  (662) 
-7.418

$$$$
O14757_PocketFlow_idx-in-all-generaetd-95
     RDKit          3D

 14 15  0  0  0  0  0  0  0  0999 V2000
    4.5030   -4.1710   45.2580 C   0  0  0  0  0  0  0  0  0  0  0  0
    4.5420   -2.9170   44.4140 C   0  0  0  0  0  0  0  0  0  0  0  0
    3.5940   -1.5110   42.6890 C   0  0  0  0  0  0  0  0  0  0  0  0
    2.6370   -1.2870   41.7780 F   0  0  0  0  0  0  0  0  0  0  0  0
    3.5460   -2.6690   43.4590 C   0  0  0  0  0  0  0  0  0  0  0  0
    4.6170   -0.5850   42.8480 C   0  0  0  0  0  0  0  0  0  0  0  0
    5.6130   -0.8200   43.7930 C   0  0  0  0  0  0  0  0  0  0  0  0
    5.5750   -1.9790   44.5730 C   0  0  0  0  0  0  0  0  0  0  0  0
    3.1540   -4.8520   45.2840 C   0  0  0  0  0  0  0  0  0  0  0  0
    2.0490   -4.2250   45.8790 C   0  0  0  0  0  0  0  0  0  0  0  0
    2.9860   -6.1220   44.7110 C   0  0  0  0  0  0  0  0  0  0  0  0
    0.8040   -4.8560   45.9010 C   0  0  0  0  0  0  0  0  0  0  0  0
    1.7400   -6.7510   44.7360 C   0  0  0  0  0  0  0  0  0  0  0  0
    0.6500   -6.1170   45.3310 C   0  0  0  0  0  0  0  0  0  0  0  0
  1  2  1  0
  1  9  1  0
  2  5  2  0
  2  8  1  0
  3  4  1  0
  3  6  2  0
  3  5  1  0
  6  7  1  0
  7  8  2  0
  9 11  1  0
  9 10  2  0
 10 12  1  0
 11 13  2  0
 12 14  2  0
 13 14  1  0
M  END
>  <vina_dock>  (663) 
-6.747

$$$$
O14757_PocketFlow_idx-in-all-generaetd-547
     RDKit          3D

 32 34  0  0  0  0  0  0  0  0999 V2000
    3.9460   -2.4890   43.6900 C   0  0  0  0  0  0  0  0  0  0  0  0
    4.8650   -1.5800   43.3250 N   0  0  0  0  0  0  0  0  0  0  0  0
    4.1760   -3.3810   44.7510 C   0  0  0  0  0  0  0  0  0  0  0  0
    6.0070   -1.5120   44.0540 C   0  0  0  0  0  0  0  0  0  0  0  0
    6.3090   -2.3210   45.1510 C   0  0  0  0  0  0  0  0  0  0  0  0
    5.3490   -3.2770   45.4970 C   0  0  0  0  0  0  0  0  0  0  0  0
    2.7490   -2.6410   42.9420 N   0  0  0  0  0  0  0  0  0  0  0  0
    2.2650   -1.3860   42.3180 C   0  0  0  0  0  0  0  0  0  0  0  0
    1.1610   -1.5520   41.2850 C   0  0  0  0  0  0  0  0  0  0  0  0
    1.6550   -1.9860   40.0990 F   0  0  0  0  0  0  0  0  0  0  0  0
    0.4500   -0.4270   41.0490 F   0  0  0  0  0  0  0  0  0  0  0  0
   -0.0670   -2.7720   41.6850 P   0  0  0  0  0  0  0  0  0  0  0  0
   -0.0270   -4.0990   40.9910 O   0  0  0  0  0  0  0  0  0  0  0  0
   -1.5330   -2.1180   41.5630 O   0  0  0  0  0  0  0  0  0  0  0  0
   -0.0030   -3.0060   43.2820 O   0  0  0  0  0  0  0  0  0  0  0  0
    3.1950   -4.2980   45.0310 O   0  0  0  0  0  0  0  0  0  0  0  0
    3.5100   -5.6480   44.6560 C   0  0  0  0  0  0  0  0  0  0  0  0
    2.5090   -6.6920   45.1060 C   0  0  0  0  0  0  0  0  0  0  0  0
    1.1410   -6.5880   44.8130 C   0  0  0  0  0  0  0  0  0  0  0  0
    2.9460   -7.7850   45.8720 C   0  0  0  0  0  0  0  0  0  0  0  0
    0.2330   -7.5490   45.2690 C   0  0  0  0  0  0  0  0  0  0  0  0
    2.0410   -8.7490   46.3240 C   0  0  0  0  0  0  0  0  0  0  0  0
   -1.4520   -7.4370   44.9070 Cl  0  0  0  0  0  0  0  0  0  0  0  0
    0.6850   -8.6310   46.0220 C   0  0  0  0  0  0  0  0  0  0  0  0
    0.6920   -5.5320   44.0660 O   0  0  0  0  0  0  0  0  0  0  0  0
    7.5650   -2.1820   45.8960 C   0  0  0  0  0  0  0  0  0  0  0  0
    7.9340   -3.0970   46.8940 C   0  0  0  0  0  0  0  0  0  0  0  0
    8.4580   -1.1350   45.6510 C   0  0  0  0  0  0  0  0  0  0  0  0
    9.1360   -2.9370   47.5800 C   0  0  0  0  0  0  0  0  0  0  0  0
    9.6340   -0.9540   46.3010 N   0  0  0  0  0  0  0  0  0  0  0  0
    9.5960   -4.0510   48.8000 Cl  0  0  0  0  0  0  0  0  0  0  0  0
    9.9460   -1.8630   47.2540 C   0  0  0  0  0  0  0  0  0  0  0  0
  1  7  1  0
  1  2  2  0
  1  3  1  0
  2  4  1  0
  3 16  1  0
  3  6  2  0
  4  5  2  0
  5  6  1  0
  5 26  1  0
  7  8  1  0
  8  9  1  0
  9 10  1  0
  9 11  1  0
  9 12  1  0
 12 13  2  0
 12 14  1  0
 12 15  1  0
 16 17  1  0
 17 18  1  0
 18 19  2  0
 18 20  1  0
 19 25  1  0
 19 21  1  0
 20 22  2  0
 21 23  1  0
 21 24  2  0
 22 24  1  0
 26 28  1  0
 26 27  2  0
 27 29  1  0
 28 30  2  0
 29 32  2  0
 29 31  1  0
 30 32  1  0
M  END
>  <vina_dock>  (664) 
-8.717

$$$$
O14757_PocketFlow_idx-in-all-generaetd-123
     RDKit          3D

 17 19  0  0  0  0  0  0  0  0999 V2000
    7.3410   -3.2970   46.6170 C   0  0  0  0  0  0  0  0  0  0  0  0
    6.4890   -2.6120   45.8510 C   0  0  0  0  0  0  0  0  0  0  0  0
    6.8000   -1.7650   44.6630 C   0  0  0  0  0  0  0  0  0  0  0  0
    5.5540   -1.0620   44.1060 C   0  0  0  0  0  0  0  0  0  0  0  0
    4.3610   -1.9900   44.0270 C   0  0  0  0  0  0  0  0  0  0  0  0
    4.1170   -2.8890   45.0900 C   0  0  0  0  0  0  0  0  0  0  0  0
    5.0650   -2.8730   46.2680 C   0  0  1  0  0  0  0  0  0  0  0  0
    8.6720   -3.2840   46.4370 F   0  0  0  0  0  0  0  0  0  0  0  0
    6.6510   -4.1450   47.6250 C   0  0  0  0  0  0  0  0  0  0  0  0
    5.2250   -4.1810   47.0640 C   0  0  0  0  0  0  0  0  0  0  0  0
    2.9770   -3.6990   45.0510 C   0  0  0  0  0  0  0  0  0  0  0  0
    2.1070   -3.6400   43.9580 C   0  0  0  0  0  0  0  0  0  0  0  0
    2.3540   -2.7610   42.8980 C   0  0  0  0  0  0  0  0  0  0  0  0
    3.4750   -1.9280   42.9430 C   0  0  0  0  0  0  0  0  0  0  0  0
    1.4350   -2.6780   41.7610 C   0  0  0  0  0  0  0  0  0  0  0  0
    1.0780   -1.5480   41.1300 C   0  0  0  0  0  0  0  0  0  0  0  0
    1.5000   -0.1510   41.4550 C   0  0  0  0  0  0  0  0  0  0  0  0
  1  2  2  0
  1  8  1  0
  1  9  1  0
  2  3  1  0
  2  7  1  0
  3  4  1  0
  4  5  1  0
  5 14  2  0
  5  6  1  0
  6 11  2  0
  6  7  1  0
  7 10  1  6
  9 10  1  0
 11 12  1  0
 12 13  2  0
 13 15  1  0
 13 14  1  0
 15 16  2  3
 16 17  1  0
M  END
>  <vina_dock>  (665) 
-8.641

$$$$
O14757_PocketFlow_idx-in-all-generaetd-318
     RDKit          3D

 20 20  0  0  0  0  0  0  0  0999 V2000
    1.2810   -6.5630   45.2870 C   0  0  0  0  0  0  0  0  0  0  0  0
    2.1180   -7.1720   44.6320 O   0  0  0  0  0  0  0  0  0  0  0  0
    0.9450   -5.0530   45.1640 C   0  0  1  0  0  0  0  0  0  0  0  0
    0.4660   -4.7810   43.8500 O   0  0  0  0  0  0  0  0  0  0  0  0
    0.9900   -3.7070   43.1880 C   0  0  0  0  0  0  0  0  0  0  0  0
    2.2840   -3.3540   43.5830 C   0  0  0  0  0  0  0  0  0  0  0  0
    0.3660   -2.9870   42.1710 C   0  0  0  0  0  0  0  0  0  0  0  0
    2.9530   -2.2700   42.9920 C   0  0  0  0  0  0  0  0  0  0  0  0
    1.0240   -1.9110   41.5680 C   0  0  0  0  0  0  0  0  0  0  0  0
    2.3090   -1.5540   41.9740 C   0  0  0  0  0  0  0  0  0  0  0  0
    4.3540   -1.9170   43.4190 C   0  0  0  0  0  0  0  0  0  0  0  0
    5.1600   -3.0090   43.5180 F   0  0  0  0  0  0  0  0  0  0  0  0
    4.4050   -1.3030   44.6340 F   0  0  0  0  0  0  0  0  0  0  0  0
    4.9800   -1.0690   42.5530 F   0  0  0  0  0  0  0  0  0  0  0  0
    0.0010   -4.6330   46.1430 O   0  0  0  0  0  0  0  0  0  0  0  0
    0.4890   -7.1400   46.2430 O   0  0  0  0  0  0  0  0  0  0  0  0
   -0.3560   -8.1830   45.7480 C   0  0  0  0  0  0  0  0  0  0  0  0
   -1.5460   -7.6150   44.9960 C   0  0  0  0  0  0  0  0  0  0  0  0
   -1.8730   -7.8710   43.8470 O   0  0  0  0  0  0  0  0  0  0  0  0
   -2.2490   -6.7280   45.7290 O   0  0  0  0  0  0  0  0  0  0  0  0
  1  2  2  0
  1  3  1  0
  1 16  1  0
  3  4  1  0
  3 15  1  1
  4  5  1  0
  5  7  2  0
  5  6  1  0
  6  8  2  0
  7  9  1  0
  8 10  1  0
  8 11  1  0
  9 10  2  0
 11 14  1  0
 11 12  1  0
 11 13  1  0
 16 17  1  0
 17 18  1  0
 18 19  2  0
 18 20  1  0
M  END
>  <vina_dock>  (666) 
-7.124

$$$$
O14757_PocketFlow_idx-in-all-generaetd-360
     RDKit          3D

 13 14  0  0  0  0  0  0  0  0999 V2000
    4.5030   -4.1450   45.2740 C   0  0  0  0  0  0  0  0  0  0  0  0
    3.1590   -4.8380   45.2860 C   0  0  0  0  0  0  0  0  0  0  0  0
    0.8090   -4.8700   45.9000 C   0  0  0  0  0  0  0  0  0  0  0  0
    2.0470   -4.2280   45.8830 C   0  0  0  0  0  0  0  0  0  0  0  0
    0.6680   -6.1310   45.3210 C   0  0  0  0  0  0  0  0  0  0  0  0
    1.7660   -6.7490   44.7250 C   0  0  0  0  0  0  0  0  0  0  0  0
    3.0050   -6.1080   44.7090 C   0  0  0  0  0  0  0  0  0  0  0  0
    4.5520   -2.8980   44.4210 C   0  0  0  0  0  0  0  0  0  0  0  0
    3.5650   -2.6550   43.4530 C   0  0  0  0  0  0  0  0  0  0  0  0
    5.5790   -1.9590   44.5890 C   0  0  0  0  0  0  0  0  0  0  0  0
    3.6070   -1.5010   42.6710 C   0  0  0  0  0  0  0  0  0  0  0  0
    5.6190   -0.8030   43.8050 C   0  0  0  0  0  0  0  0  0  0  0  0
    4.6330   -0.5760   42.8470 C   0  0  0  0  0  0  0  0  0  0  0  0
  1  8  1  0
  1  2  1  0
  2  7  1  0
  2  4  2  0
  3  5  2  0
  3  4  1  0
  5  6  1  0
  6  7  2  0
  8  9  2  0
  8 10  1  0
  9 11  1  0
 10 12  2  0
 11 13  2  0
 12 13  1  0
M  END
>  <vina_dock>  (667) 
-6.429

$$$$
O14757_PocketFlow_idx-in-all-generaetd-182
     RDKit          3D

 35 35  0  0  0  0  0  0  0  0999 V2000
    2.3600   -5.2810   45.7300 C   0  0  0  0  0  0  0  0  0  0  0  0
    3.7790   -5.1090   45.6580 O   0  0  0  0  0  0  0  0  0  0  0  0
    4.2440   -3.9650   45.0710 C   0  0  0  0  0  0  0  0  0  0  0  0
    5.8130   -2.1490   44.6800 C   0  0  0  0  0  0  0  0  0  0  0  0
    5.4530   -3.3280   45.3510 C   0  0  0  0  0  0  0  0  0  0  0  0
    4.9550   -1.6320   43.7000 C   0  0  0  0  0  0  0  0  0  0  0  0
    3.7380   -2.2600   43.4070 C   0  0  0  0  0  0  0  0  0  0  0  0
    3.3900   -3.4220   44.1080 C   0  0  0  0  0  0  0  0  0  0  0  0
    7.1080   -1.5230   44.9910 C   0  0  0  0  0  0  0  0  0  0  0  0
    7.9470   -1.9810   45.9340 C   0  0  0  0  0  0  0  0  0  0  0  0
    9.2990   -1.4070   46.2990 C   0  0  0  0  0  0  0  0  0  0  0  0
   10.4750   -2.3560   46.4920 C   0  0  0  0  0  0  0  0  0  0  0  0
   10.0890   -3.6500   46.4380 F   0  0  0  0  0  0  0  0  0  0  0  0
   11.0450   -2.1560   47.7040 F   0  0  0  0  0  0  0  0  0  0  0  0
   11.4360   -2.1670   45.5610 F   0  0  0  0  0  0  0  0  0  0  0  0
    2.8040   -1.6810   42.3740 C   0  0  0  0  0  0  0  0  0  0  0  0
    1.4920   -2.4620   42.2950 C   0  0  0  0  0  0  0  0  0  0  0  0
    0.5060   -1.7870   41.3440 C   0  0  0  0  0  0  0  0  0  0  0  0
   -0.8460   -2.4460   41.3860 C   0  0  0  0  0  0  0  0  0  0  0  0
   -1.9240   -1.9180   41.5940 O   0  0  0  0  0  0  0  0  0  0  0  0
   -0.7690   -3.7670   41.1350 O   0  0  0  0  0  0  0  0  0  0  0  0
    1.9380   -6.5390   44.9410 C   0  0  2  0  0  0  0  0  0  0  0  0
    0.6100   -7.1410   45.4250 C   0  0  0  0  0  0  0  0  0  0  0  0
   -0.5330   -7.1760   44.4060 C   0  0  0  0  0  0  0  0  0  0  0  0
   -1.8910   -7.5710   44.9950 C   0  0  0  0  0  0  0  0  0  0  0  0
   -1.8000   -8.6850   46.0380 C   0  0  0  0  0  0  0  0  0  0  0  0
   -3.0770   -8.9760   46.6010 O   0  0  0  0  0  0  0  0  0  0  0  0
   -3.1040   -8.8810   48.0190 C   0  0  0  0  0  0  0  0  0  0  0  0
    2.9190   -7.5840   45.0870 O   0  0  0  0  0  0  0  0  0  0  0  0
    2.5610   -8.5680   46.0690 C   0  0  0  0  0  0  0  0  0  0  0  0
    3.7390   -8.8310   47.0180 C   0  0  2  0  0  0  0  0  0  0  0  0
    3.1690   -9.6340   48.5120 Cl  0  0  0  0  0  0  0  0  0  0  0  0
    4.3330   -7.5940   47.4970 N   0  0  0  0  0  0  0  0  0  0  0  0
    5.4670   -7.4680   48.2560 C   0  0  0  0  0  0  0  0  0  0  0  0
    6.0070   -6.3670   48.7800 C   0  0  0  0  0  0  0  0  0  0  0  0
 22  1  1  1
  1  2  1  0
  2  3  1  0
  3  8  2  0
  3  5  1  0
  4  6  1  0
  4  9  1  0
  4  5  2  0
  6  7  2  0
  7 16  1  0
  7  8  1  0
  9 10  2  3
 10 11  1  0
 11 12  1  0
 12 15  1  0
 12 13  1  0
 12 14  1  0
 16 17  1  0
 17 18  1  0
 18 19  1  0
 19 21  1  0
 19 20  2  0
 22 29  1  0
 22 23  1  0
 23 24  1  0
 24 25  1  0
 25 26  1  0
 26 27  1  0
 27 28  1  0
 29 30  1  0
 30 31  1  0
 31 33  1  0
 31 32  1  1
 33 34  1  0
 34 35  2  0
M  END
>  <vina_dock>  (668) 
-7.016

$$$$
O14757_PocketFlow_idx-in-all-generaetd-215
     RDKit          3D

 15 16  0  0  0  0  0  0  0  0999 V2000
    2.4400   -4.3300   45.0230 C   0  0  0  0  0  0  0  0  0  0  0  0
    1.3250   -3.7580   44.5390 C   0  0  0  0  0  0  0  0  0  0  0  0
    3.7300   -4.5790   44.2900 C   0  0  0  0  0  0  0  0  0  0  0  0
    4.7910   -3.5650   44.6470 C   0  0  0  0  0  0  0  0  0  0  0  0
    6.6260   -2.8360   46.0610 C   0  0  0  0  0  0  0  0  0  0  0  0
    6.7850   -1.6940   45.2770 C   0  0  0  0  0  0  0  0  0  0  0  0
    5.6370   -3.7690   45.7470 C   0  0  0  0  0  0  0  0  0  0  0  0
    5.9550   -1.4850   44.1770 C   0  0  0  0  0  0  0  0  0  0  0  0
    4.9650   -2.4170   43.8610 C   0  0  0  0  0  0  0  0  0  0  0  0
    1.1660   -3.2710   43.1700 C   0  0  0  0  0  0  0  0  0  0  0  0
    0.2690   -3.9060   42.3060 C   0  0  0  0  0  0  0  0  0  0  0  0
    1.9090   -2.1770   42.7130 C   0  0  0  0  0  0  0  0  0  0  0  0
    0.1180   -3.4530   40.9940 C   0  0  0  0  0  0  0  0  0  0  0  0
    1.7550   -1.7240   41.4010 C   0  0  0  0  0  0  0  0  0  0  0  0
    0.8600   -2.3620   40.5420 C   0  0  0  0  0  0  0  0  0  0  0  0
  1  3  1  0
  1  2  2  3
  2 10  1  0
  3  4  1  0
  4  9  1  0
  4  7  2  0
  5  6  2  0
  5  7  1  0
  6  8  1  0
  8  9  2  0
 10 11  2  0
 10 12  1  0
 11 13  1  0
 12 14  2  0
 13 15  2  0
 14 15  1  0
M  END
>  <vina_dock>  (669) 
-7.139

$$$$
O14757_PocketFlow_idx-in-all-generaetd-743
     RDKit          3D

 22 23  0  0  0  0  0  0  0  0999 V2000
    5.3290   -3.4060   45.4780 C   0  0  0  0  0  0  0  0  0  0  0  0
    4.5480   -2.7430   44.4480 N   0  0  0  0  0  0  0  0  0  0  0  0
    6.0770   -1.0570   44.1260 O   0  0  0  0  0  0  0  0  0  0  0  0
    5.0390   -1.6220   43.8060 C   0  0  0  0  0  0  0  0  0  0  0  0
    4.1480   -1.1640   42.6680 C   0  0  0  0  0  0  0  0  0  0  0  0
    2.8920   -2.0180   42.5400 C   0  0  0  0  0  0  0  0  0  0  0  0
    1.8460   -1.3450   41.6730 C   0  0  0  0  0  0  0  0  0  0  0  0
    1.7360   -2.0310   40.5060 F   0  0  0  0  0  0  0  0  0  0  0  0
    4.4350   -4.1350   46.4800 C   0  0  0  0  0  0  0  0  0  0  0  0
    3.2630   -4.8060   45.8110 C   0  0  0  0  0  0  0  0  0  0  0  0
    3.4200   -6.0410   45.1710 C   0  0  0  0  0  0  0  0  0  0  0  0
    1.9940   -4.2180   45.8480 C   0  0  0  0  0  0  0  0  0  0  0  0
    2.3270   -6.6720   44.5700 C   0  0  0  0  0  0  0  0  0  0  0  0
    0.9020   -4.8480   45.2460 C   0  0  0  0  0  0  0  0  0  0  0  0
    1.0570   -6.0830   44.6030 C   0  0  0  0  0  0  0  0  0  0  0  0
   -0.1240   -6.7630   43.9470 C   0  0  0  0  0  0  0  0  0  0  0  0
   -0.9580   -7.6050   44.8880 C   0  0  0  0  0  0  0  0  0  0  0  0
   -0.4420   -8.0120   46.1280 C   0  0  0  0  0  0  0  0  0  0  0  0
   -2.2560   -7.9990   44.5320 C   0  0  0  0  0  0  0  0  0  0  0  0
   -1.2110   -8.7920   46.9940 C   0  0  0  0  0  0  0  0  0  0  0  0
   -3.0220   -8.7790   45.4000 C   0  0  0  0  0  0  0  0  0  0  0  0
   -2.5000   -9.1740   46.6310 C   0  0  0  0  0  0  0  0  0  0  0  0
  1  2  1  0
  1  9  1  0
  2  4  1  0
  3  4  2  0
  4  5  1  0
  5  6  1  0
  6  7  1  0
  7  8  1  0
  9 10  1  0
 10 11  2  0
 10 12  1  0
 11 13  1  0
 12 14  2  0
 13 15  2  0
 14 15  1  0
 15 16  1  0
 16 17  1  0
 17 19  1  0
 17 18  2  0
 18 20  1  0
 19 21  2  0
 20 22  2  0
 21 22  1  0
M  END
>  <vina_dock>  (670) 
-7.232

$$$$
O14757_PocketFlow_idx-in-all-generaetd-293
     RDKit          3D

 35 39  0  0  0  0  0  0  0  0999 V2000
   10.2720   -1.3100   48.3770 C   0  0  0  0  0  0  0  0  0  0  0  0
   11.2080   -1.1840   49.3320 C   0  0  0  0  0  0  0  0  0  0  0  0
   10.4530   -1.6010   46.9030 C   0  0  1  0  0  0  0  0  0  0  0  0
   11.9390   -3.6200   46.5470 C   0  0  0  0  0  0  0  0  0  0  0  0
   12.1200   -4.9760   46.2820 C   0  0  0  0  0  0  0  0  0  0  0  0
   10.6450   -3.0810   46.6400 C   0  0  0  0  0  0  0  0  0  0  0  0
   11.0150   -5.8040   46.1100 C   0  0  0  0  0  0  0  0  0  0  0  0
    9.5240   -3.9190   46.4990 C   0  0  0  0  0  0  0  0  0  0  0  0
    9.7250   -5.2780   46.2160 C   0  0  0  0  0  0  0  0  0  0  0  0
    9.2760   -1.1060   46.0440 C   0  0  0  0  0  0  0  0  0  0  0  0
    8.1730   -3.3370   46.6600 C   0  0  0  0  0  0  0  0  0  0  0  0
    7.9590   -1.8850   46.2380 C   0  0  2  0  0  0  0  0  0  0  0  0
    7.2010   -4.0250   47.2890 C   0  0  0  0  0  0  0  0  0  0  0  0
    7.0560   -1.8370   44.9790 C   0  0  0  0  0  0  0  0  0  0  0  0
    5.7300   -1.0610   45.1330 C   0  0  1  0  0  0  0  0  0  0  0  0
    4.9530   -0.7270   43.8580 C   0  0  0  0  0  0  0  0  0  0  0  0
    4.8810   -1.7880   46.0490 O   0  0  0  0  0  0  0  0  0  0  0  0
    4.4900   -1.9920   43.1500 C   0  0  0  0  0  0  0  0  0  0  0  0
    4.1480   -2.8130   45.5090 C   0  0  0  0  0  0  0  0  0  0  0  0
    3.9200   -2.9660   44.1390 C   0  0  0  0  0  0  0  0  0  0  0  0
    3.5930   -3.7120   46.4200 C   0  0  0  0  0  0  0  0  0  0  0  0
    3.1570   -4.0530   43.6900 C   0  0  0  0  0  0  0  0  0  0  0  0
    2.8220   -4.7830   45.9690 C   0  0  0  0  0  0  0  0  0  0  0  0
    2.6100   -4.9570   44.6030 C   0  0  0  0  0  0  0  0  0  0  0  0
   12.6370   -1.2950   49.1590 C   0  0  0  0  0  0  0  0  0  0  0  0
   13.4220   -2.2320   49.7090 C   0  0  0  0  0  0  0  0  0  0  0  0
   13.0270   -3.3580   50.6290 C   0  0  0  0  0  0  0  0  0  0  0  0
   12.9440   -4.7240   49.9350 C   0  0  0  0  0  0  0  0  0  0  0  0
   11.5500   -5.3020   49.8740 C   0  0  0  0  0  0  0  0  0  0  0  0
   11.3450   -6.6430   49.5310 C   0  0  0  0  0  0  0  0  0  0  0  0
   10.4390   -4.4950   50.1510 C   0  0  0  0  0  0  0  0  0  0  0  0
   10.0520   -7.1690   49.4710 C   0  0  0  0  0  0  0  0  0  0  0  0
    9.1470   -5.0210   50.0900 C   0  0  0  0  0  0  0  0  0  0  0  0
    8.9420   -6.3600   49.7380 C   0  0  0  0  0  0  0  0  0  0  0  0
    7.5570   -6.9320   49.7110 C   0  0  0  0  0  0  0  0  0  0  0  0
  1  3  1  0
  1  2  2  3
  2 25  1  0
  3 10  1  6
  3  6  1  0
  4  5  2  0
  4  6  1  0
  5  7  1  0
  6  8  2  0
  7  9  2  0
  8  9  1  0
  8 11  1  0
 10 12  1  0
 11 12  1  0
 11 13  2  0
 12 14  1  6
 15 14  1  6
 15 16  1  0
 15 17  1  0
 16 18  1  0
 17 19  1  0
 18 20  1  0
 19 20  2  0
 19 21  1  0
 20 22  1  0
 21 23  2  0
 22 24  2  0
 23 24  1  0
 25 26  2  3
 26 27  1  0
 27 28  1  0
 28 29  1  0
 29 30  2  0
 29 31  1  0
 30 32  1  0
 31 33  2  0
 32 34  2  0
 33 34  1  0
 34 35  1  0
M  END
>  <vina_dock>  (671) 
-6.776

$$$$
O14757_PocketFlow_idx-in-all-generaetd-356
     RDKit          3D

 26 30  0  0  0  0  0  0  0  0999 V2000
    2.9680   -2.1930   43.0670 C   0  0  0  0  0  0  0  0  0  0  0  0
    3.6210   -2.9800   44.0210 C   0  0  0  0  0  0  0  0  0  0  0  0
    4.8470   -2.5620   44.5710 C   0  0  0  0  0  0  0  0  0  0  0  0
    3.5280   -0.9750   42.6720 C   0  0  0  0  0  0  0  0  0  0  0  0
    5.4290   -1.3610   44.1300 C   0  0  0  0  0  0  0  0  0  0  0  0
    4.7500   -0.5610   43.2060 C   0  0  0  0  0  0  0  0  0  0  0  0
    5.5270   -3.3860   45.6580 C   0  0  0  0  0  0  0  0  0  0  0  0
    4.7190   -3.2950   46.9610 C   0  0  0  0  0  0  0  0  0  0  0  0
    6.9770   -2.9990   45.9230 C   0  0  0  0  0  0  0  0  0  0  0  0
    7.8120   -3.8340   46.6780 C   0  0  0  0  0  0  0  0  0  0  0  0
    9.1250   -3.4500   46.9650 C   0  0  0  0  0  0  0  0  0  0  0  0
    9.6350   -2.2250   46.5110 C   0  0  0  0  0  0  0  0  0  0  0  0
    8.7920   -1.4010   45.7460 C   0  0  0  0  0  0  0  0  0  0  0  0
    7.4840   -1.7880   45.4280 C   0  0  2  0  0  0  0  0  0  0  0  0
    6.6530   -0.9410   44.6730 N   0  0  0  0  0  0  0  0  0  0  0  0
    1.6790   -2.6350   42.4830 C   0  0  0  0  0  0  0  0  0  0  0  0
    1.4340   -2.6340   41.1150 N   0  0  0  0  0  0  0  0  0  0  0  0
    0.6630   -3.0190   43.2340 N   0  0  0  0  0  0  0  0  0  0  0  0
    0.0310   -2.9690   41.0230 C   0  0  0  0  0  0  0  0  0  0  0  0
   -0.3650   -3.3500   42.3730 N   0  0  0  0  0  0  0  0  0  0  0  0
   11.0120   -1.8140   46.8260 C   0  0  0  0  0  0  0  0  0  0  0  0
   12.0270   -1.8820   45.8580 C   0  0  0  0  0  0  0  0  0  0  0  0
   11.3520   -1.3440   48.1050 C   0  0  0  0  0  0  0  0  0  0  0  0
   13.3350   -1.4920   46.1560 C   0  0  0  0  0  0  0  0  0  0  0  0
   12.6600   -0.9520   48.4060 C   0  0  0  0  0  0  0  0  0  0  0  0
   13.6510   -1.0280   47.4310 C   0  0  0  0  0  0  0  0  0  0  0  0
  1 16  1  0
  1  4  1  0
  1  2  2  0
  2  3  1  0
  3  5  2  0
  3  7  1  0
  4  6  2  0
  5  6  1  0
  5 15  1  0
  7  9  2  0
  7  8  1  0
  9 14  1  0
  9 10  1  0
 10 11  2  0
 11 12  1  0
 12 13  2  0
 12 21  1  0
 13 14  1  0
 14 15  1  1
 16 17  1  0
 16 18  2  0
 17 19  1  0
 18 20  1  0
 19 20  1  0
 21 22  2  0
 21 23  1  0
 22 24  1  0
 23 25  2  0
 24 26  2  0
 25 26  1  0
M  END
>  <vina_dock>  (672) 
-9.967

$$$$
O14757_PocketFlow_idx-in-all-generaetd-292
     RDKit          3D

 35 37  0  0  0  0  0  0  0  0999 V2000
   10.4680   -1.5420   46.7330 C   0  0  0  0  0  0  0  0  0  0  0  0
    9.4020   -1.2060   45.8450 O   0  0  0  0  0  0  0  0  0  0  0  0
    8.2560   -1.9510   45.8830 C   0  0  0  0  0  0  0  0  0  0  0  0
    5.9940   -2.1380   44.9560 C   0  0  0  0  0  0  0  0  0  0  0  0
    7.2440   -1.4990   45.0260 C   0  0  0  0  0  0  0  0  0  0  0  0
    5.7870   -3.2620   45.7680 C   0  0  0  0  0  0  0  0  0  0  0  0
    6.7930   -3.7260   46.6170 C   0  0  0  0  0  0  0  0  0  0  0  0
    8.0250   -3.0720   46.6750 C   0  0  0  0  0  0  0  0  0  0  0  0
    4.9380   -1.6350   44.0660 C   0  0  0  0  0  0  0  0  0  0  0  0
    2.8760   -1.9310   42.8120 C   0  0  0  0  0  0  0  0  0  0  0  0
    3.8650   -2.4380   43.6630 C   0  0  0  0  0  0  0  0  0  0  0  0
    3.0050   -0.6090   42.3630 C   0  0  0  0  0  0  0  0  0  0  0  0
    4.0160    0.1930   42.7390 N   0  0  0  0  0  0  0  0  0  0  0  0
    4.9500   -0.3320   43.5690 C   0  0  0  0  0  0  0  0  0  0  0  0
    1.7680   -2.8150   42.4250 C   0  0  0  0  0  0  0  0  0  0  0  0
    1.0620   -3.5790   43.2770 C   0  0  0  0  0  0  0  0  0  0  0  0
    1.2660   -3.7150   44.7630 C   0  0  2  0  0  0  0  0  0  0  0  0
    1.7230   -5.1210   45.1160 C   0  0  0  0  0  0  0  0  0  0  0  0
    2.5430   -9.1020   45.7590 O   0  0  0  0  0  0  0  0  0  0  0  0
    2.2920   -7.9090   45.5950 C   0  0  0  0  0  0  0  0  0  0  0  0
    3.3850   -6.8710   45.7030 C   0  0  0  0  0  0  0  0  0  0  0  0
    1.0370   -7.5110   45.3140 O   0  0  0  0  0  0  0  0  0  0  0  0
    2.9930   -5.4790   45.3610 C   0  0  0  0  0  0  0  0  0  0  0  0
    0.6230   -6.1380   45.1730 C   0  0  0  0  0  0  0  0  0  0  0  0
    0.0070   -3.3380   45.4040 N   0  0  0  0  0  0  0  0  0  0  0  0
    2.0600   -0.0120   41.5230 N   0  0  0  0  0  0  0  0  0  0  0  0
   11.7570   -1.8520   45.9700 C   0  0  0  0  0  0  0  0  0  0  0  0
   11.8740   -3.2320   45.6230 O   0  0  0  0  0  0  0  0  0  0  0  0
   11.6320   -4.1150   46.7170 C   0  0  0  0  0  0  0  0  0  0  0  0
   11.2350   -5.4330   46.1330 C   0  0  0  0  0  0  0  0  0  0  0  0
   10.2670   -6.2720   46.5340 C   0  0  0  0  0  0  0  0  0  0  0  0
    9.3800   -6.0930   47.6640 C   0  0  0  0  0  0  0  0  0  0  0  0
    8.5760   -7.0700   48.1140 C   0  0  0  0  0  0  0  0  0  0  0  0
    7.6930   -6.9010   49.2440 C   0  0  0  0  0  0  0  0  0  0  0  0
    6.3660   -6.7850   49.1220 C   0  0  0  0  0  0  0  0  0  0  0  0
  1  2  1  0
  1 27  1  0
  2  3  1  0
  3  5  2  0
  3  8  1  0
  4  9  1  0
  4  5  1  0
  4  6  2  0
  6  7  1  0
  7  8  2  0
  9 14  1  0
  9 11  2  0
 10 12  2  0
 10 15  1  0
 10 11  1  0
 12 26  1  0
 12 13  1  0
 13 14  2  0
 15 16  2  3
 16 17  1  0
 17 18  1  0
 17 25  1  1
 18 24  1  0
 18 23  2  0
 19 20  2  0
 20 22  1  0
 20 21  1  0
 21 23  1  0
 22 24  1  0
 27 28  1  0
 28 29  1  0
 29 30  1  0
 30 31  2  3
 31 32  1  0
 32 33  2  3
 33 34  1  0
 34 35  2  0
M  END
>  <vina_dock>  (673) 
-8.028

$$$$
O14757_PocketFlow_idx-in-all-generaetd-86
     RDKit          3D

 35 38  0  0  0  0  0  0  0  0999 V2000
    4.0720   -1.7410   42.9050 C   0  0  0  0  0  0  0  0  0  0  0  0
    4.9560   -1.3200   43.8270 C   0  0  0  0  0  0  0  0  0  0  0  0
    2.8760   -2.5500   43.1400 C   0  0  0  0  0  0  0  0  0  0  0  0
    1.7300   -4.2750   44.4090 C   0  0  0  0  0  0  0  0  0  0  0  0
    0.5830   -4.0660   43.6250 C   0  0  0  0  0  0  0  0  0  0  0  0
    2.8810   -3.5220   44.1440 C   0  0  0  0  0  0  0  0  0  0  0  0
    0.5770   -3.1260   42.5870 C   0  0  0  0  0  0  0  0  0  0  0  0
    1.7160   -2.3460   42.3780 C   0  0  0  0  0  0  0  0  0  0  0  0
    1.7160   -5.2850   45.5300 C   0  0  0  0  0  0  0  0  0  0  0  0
    2.5900   -6.4890   45.2910 C   0  0  0  0  0  0  0  0  0  0  0  0
    2.5490   -7.2890   44.3710 O   0  0  0  0  0  0  0  0  0  0  0  0
    3.5170   -6.6320   46.2630 O   0  0  0  0  0  0  0  0  0  0  0  0
   -0.6160   -2.8250   41.9170 N   0  0  0  0  0  0  0  0  0  0  0  0
    5.0570   -1.5620   45.3160 C   0  0  2  0  0  0  0  0  0  0  0  0
    4.6850   -0.4210   46.0700 O   0  0  0  0  0  0  0  0  0  0  0  0
    6.4030   -2.0800   45.8200 C   0  0  0  0  0  0  0  0  0  0  0  0
    6.4720   -3.1970   46.7160 C   0  0  0  0  0  0  0  0  0  0  0  0
    7.5980   -1.4560   45.4220 C   0  0  0  0  0  0  0  0  0  0  0  0
    7.7280   -3.7030   47.1480 C   0  0  0  0  0  0  0  0  0  0  0  0
    5.3370   -3.8510   47.2220 C   0  0  0  0  0  0  0  0  0  0  0  0
    8.8270   -1.9200   45.8690 C   0  0  0  0  0  0  0  0  0  0  0  0
    8.8890   -3.0240   46.7130 C   0  0  0  0  0  0  0  0  0  0  0  0
    7.7700   -4.8480   48.0010 C   0  0  0  0  0  0  0  0  0  0  0  0
    5.3440   -4.9120   48.0600 N   0  0  0  0  0  0  0  0  0  0  0  0
    6.5500   -5.3740   48.4290 C   0  0  0  0  0  0  0  0  0  0  0  0
    9.0810   -5.4850   48.4760 C   0  0  1  0  0  0  0  0  0  0  0  0
    9.8140   -4.6740   49.5370 C   0  0  0  0  0  0  0  0  0  0  0  0
    9.2900   -3.9310   50.5220 C   0  0  0  0  0  0  0  0  0  0  0  0
    8.9100   -6.9660   48.9280 C   0  0  0  0  0  0  0  0  0  0  0  0
    8.9150   -7.9660   47.7890 C   0  0  0  0  0  0  0  0  0  0  0  0
    9.9210   -7.9260   46.8120 C   0  0  0  0  0  0  0  0  0  0  0  0
    7.9150   -8.9440   47.6930 C   0  0  0  0  0  0  0  0  0  0  0  0
    9.9350   -8.8540   45.7690 C   0  0  0  0  0  0  0  0  0  0  0  0
    7.9270   -9.8680   46.6460 C   0  0  0  0  0  0  0  0  0  0  0  0
    8.9380   -9.8240   45.6860 C   0  0  0  0  0  0  0  0  0  0  0  0
  1  3  1  0
  1  2  2  3
  2 14  1  0
  3  8  1  0
  3  6  2  0
  4  5  2  0
  4  6  1  0
  4  9  1  0
  5  7  1  0
  7 13  1  0
  7  8  2  0
  9 10  1  0
 10 11  2  0
 10 12  1  0
 14 16  1  0
 14 15  1  1
 16 18  2  0
 16 17  1  0
 17 19  2  0
 17 20  1  0
 18 21  1  0
 19 22  1  0
 19 23  1  0
 20 24  2  0
 21 22  2  0
 23 25  2  0
 23 26  1  0
 24 25  1  0
 26 29  1  1
 26 27  1  0
 27 28  2  0
 29 30  1  0
 30 31  2  0
 30 32  1  0
 31 33  1  0
 32 34  2  0
 33 35  2  0
 34 35  1  0
M  END
>  <vina_dock>  (674) 
-8.634

$$$$
O14757_PocketFlow_idx-in-all-generaetd-624
     RDKit          3D

 35 39  0  0  0  0  0  0  0  0999 V2000
    4.4430   -3.1910   44.8360 C   0  0  0  0  0  0  0  0  0  0  0  0
    3.9210   -2.4330   43.7640 C   0  0  0  0  0  0  0  0  0  0  0  0
    4.6740   -1.3610   43.2530 C   0  0  0  0  0  0  0  0  0  0  0  0
    5.9240   -1.0460   43.7840 C   0  0  0  0  0  0  0  0  0  0  0  0
    6.4510   -1.7930   44.8410 C   0  0  0  0  0  0  0  0  0  0  0  0
    5.7200   -2.8700   45.3510 C   0  0  0  0  0  0  0  0  0  0  0  0
    7.8120   -1.4840   45.3890 C   0  0  0  0  0  0  0  0  0  0  0  0
    7.9730   -2.0150   46.7360 N   0  0  0  0  0  0  0  0  0  0  0  0
    9.3160   -1.8200   47.2870 C   0  0  0  0  0  0  0  0  0  0  0  0
   10.3650   -2.7800   46.6950 C   0  0  2  0  0  0  0  0  0  0  0  0
    9.8170   -4.2150   46.7440 C   0  0  0  0  0  0  0  0  0  0  0  0
    8.4750   -4.3090   46.1740 N   0  0  0  0  0  0  0  0  0  0  0  0
    7.5420   -3.4020   46.8250 C   0  0  2  0  0  0  0  0  0  0  0  0
    6.2110   -3.6460   46.3680 O   0  0  0  0  0  0  0  0  0  0  0  0
    3.6850   -4.3320   45.3790 C   0  0  0  0  0  0  0  0  0  0  0  0
    3.7070   -5.5530   44.8200 C   0  0  0  0  0  0  0  0  0  0  0  0
    2.9140   -6.7210   45.3220 C   0  0  0  0  0  0  0  0  0  0  0  0
    1.5420   -6.7400   44.7100 C   0  0  0  0  0  0  0  0  0  0  0  0
    0.4670   -7.3230   45.2620 C   0  0  0  0  0  0  0  0  0  0  0  0
   -0.8920   -7.3060   44.6370 C   0  0  0  0  0  0  0  0  0  0  0  0
    2.5550   -2.7060   43.1570 C   0  0  0  0  0  0  0  0  0  0  0  0
    2.2010   -1.7560   41.9900 C   0  0  2  0  0  0  0  0  0  0  0  0
    2.6220   -0.3200   42.3260 C   0  0  0  0  0  0  0  0  0  0  0  0
    0.7270   -1.8200   41.6170 C   0  0  0  0  0  0  0  0  0  0  0  0
   -0.0790   -0.6710   41.5790 C   0  0  0  0  0  0  0  0  0  0  0  0
    0.1400   -3.0590   41.3190 C   0  0  0  0  0  0  0  0  0  0  0  0
   -1.4340   -0.7600   41.2520 C   0  0  0  0  0  0  0  0  0  0  0  0
   -1.2140   -3.1460   40.9920 C   0  0  0  0  0  0  0  0  0  0  0  0
   -2.0010   -1.9970   40.9580 C   0  0  0  0  0  0  0  0  0  0  0  0
   11.7150   -2.6550   47.3810 C   0  0  0  0  0  0  0  0  0  0  0  0
   12.7710   -3.5370   47.1020 C   0  0  0  0  0  0  0  0  0  0  0  0
   11.9290   -1.6320   48.3190 C   0  0  0  0  0  0  0  0  0  0  0  0
   14.0050   -3.3980   47.7420 C   0  0  0  0  0  0  0  0  0  0  0  0
   13.1630   -1.4960   48.9570 C   0  0  0  0  0  0  0  0  0  0  0  0
   14.2010   -2.3780   48.6690 C   0  0  0  0  0  0  0  0  0  0  0  0
  1  2  2  0
  1  6  1  0
  1 15  1  0
  2 21  1  0
  2  3  1  0
  3  4  2  0
  4  5  1  0
  5  6  2  0
  5  7  1  0
  6 14  1  0
  7  8  1  0
  8 13  1  0
  8  9  1  0
  9 10  1  0
 10 11  1  0
 10 30  1  1
 11 12  1  0
 13 12  1  6
 13 14  1  0
 15 16  2  3
 16 17  1  0
 17 18  1  0
 18 19  2  3
 19 20  1  0
 21 22  1  0
 22 24  1  0
 22 23  1  1
 24 26  1  0
 24 25  2  0
 25 27  1  0
 26 28  2  0
 27 29  2  0
 28 29  1  0
 30 31  2  0
 30 32  1  0
 31 33  1  0
 32 34  2  0
 33 35  2  0
 34 35  1  0
M  END
>  <vina_dock>  (675) 
-9.904

$$$$
O14757_PocketFlow_idx-in-all-generaetd-193
     RDKit          3D

 32 37  0  0  0  0  0  0  0  0999 V2000
    7.9880   -2.9020   46.5660 C   0  0  0  0  0  0  0  0  0  0  0  0
    7.4700   -3.4720   47.7370 C   0  0  0  0  0  0  0  0  0  0  0  0
    7.1260   -2.8610   45.4540 C   0  0  0  0  0  0  0  0  0  0  0  0
    5.8210   -3.3950   45.4920 C   0  0  0  0  0  0  0  0  0  0  0  0
    5.3270   -3.9490   46.6770 C   0  0  0  0  0  0  0  0  0  0  0  0
    6.1690   -3.9900   47.7920 C   0  0  0  0  0  0  0  0  0  0  0  0
    4.9360   -3.2940   44.2770 C   0  0  0  0  0  0  0  0  0  0  0  0
    3.7420   -4.2570   44.3010 C   0  0  1  0  0  0  0  0  0  0  0  0
    4.1190   -5.7010   43.9020 C   0  0  0  0  0  0  0  0  0  0  0  0
    2.9560   -6.5980   43.9010 N   0  0  0  0  0  0  0  0  0  0  0  0
    1.8880   -6.2210   44.7470 C   0  0  0  0  0  0  0  0  0  0  0  0
    0.7550   -7.0480   44.7920 C   0  0  0  0  0  0  0  0  0  0  0  0
   -0.3200   -6.7890   45.6600 C   0  0  0  0  0  0  0  0  0  0  0  0
   -0.2320   -5.6740   46.5060 C   0  0  0  0  0  0  0  0  0  0  0  0
    0.8910   -4.8440   46.4880 C   0  0  0  0  0  0  0  0  0  0  0  0
    1.9560   -5.1020   45.6160 C   0  0  0  0  0  0  0  0  0  0  0  0
    3.0790   -4.2130   45.6260 N   0  0  0  0  0  0  0  0  0  0  0  0
    3.9420   -4.5570   46.7750 C   0  0  0  0  0  0  0  0  0  0  0  0
    9.3200   -2.3320   46.5120 N   0  0  0  0  0  0  0  0  0  0  0  0
    9.4240   -0.8810   46.3790 C   0  0  0  0  0  0  0  0  0  0  0  0
   10.4700   -3.1210   46.5290 C   0  0  0  0  0  0  0  0  0  0  0  0
   10.7540   -0.4000   46.2660 O   0  0  0  0  0  0  0  0  0  0  0  0
   10.5120   -4.3290   46.2700 O   0  0  0  0  0  0  0  0  0  0  0  0
   11.7990   -2.4440   46.8660 C   0  0  2  0  0  0  0  0  0  0  0  0
   11.6030   -0.9920   47.2340 C   0  0  0  0  0  0  0  0  0  0  0  0
   12.6950   -2.5720   45.7600 O   0  0  0  0  0  0  0  0  0  0  0  0
   -1.5010   -7.6680   45.6850 C   0  0  0  0  0  0  0  0  0  0  0  0
   -2.2520   -7.9060   44.5220 C   0  0  0  0  0  0  0  0  0  0  0  0
   -1.9120   -8.2950   46.8740 C   0  0  0  0  0  0  0  0  0  0  0  0
   -3.3720   -8.7410   44.5450 C   0  0  0  0  0  0  0  0  0  0  0  0
   -3.0310   -9.1310   46.8990 C   0  0  0  0  0  0  0  0  0  0  0  0
   -3.7610   -9.3540   45.7340 C   0  0  0  0  0  0  0  0  0  0  0  0
  1  3  1  0
  1 19  1  0
  1  2  2  0
  2  6  1  0
  3  4  2  0
  4  7  1  0
  4  5  1  0
  5 18  1  0
  5  6  2  0
  8  7  1  1
  8  9  1  0
  8 17  1  0
  9 10  1  0
 10 11  1  0
 11 12  2  0
 11 16  1  0
 12 13  1  0
 13 27  1  0
 13 14  2  0
 14 15  1  0
 15 16  2  0
 16 17  1  0
 17 18  1  0
 19 20  1  0
 19 21  1  0
 20 22  1  0
 21 23  2  0
 21 24  1  0
 22 25  1  0
 24 26  1  6
 24 25  1  0
 27 28  2  0
 27 29  1  0
 28 30  1  0
 29 31  2  0
 30 32  2  0
 31 32  1  0
M  END
>  <vina_dock>  (676) 
-8.097

$$$$
O14757_PocketFlow_idx-in-all-generaetd-288
     RDKit          3D

 11 10  0  0  0  0  0  0  0  0999 V2000
    3.1740   -3.9760   45.3510 C   0  0  0  0  0  0  0  0  0  0  0  0
    4.5760   -3.7850   44.7710 C   0  0  0  0  0  0  0  0  0  0  0  0
    4.9280   -2.3010   44.6420 C   0  0  0  0  0  0  0  0  0  0  0  0
    4.8190   -1.8270   43.1940 C   0  0  0  0  0  0  0  0  0  0  0  0
    4.8500   -0.3100   43.1000 C   0  0  0  0  0  0  0  0  0  0  0  0
    2.1470   -3.7800   44.3190 C   0  0  0  0  0  0  0  0  0  0  0  0
    1.3030   -3.6180   43.4810 C   0  0  0  0  0  0  0  0  0  0  0  0
    0.3060   -3.4270   42.4870 C   0  0  0  0  0  0  0  0  0  0  0  0
    0.4090   -2.5680   41.4610 C   0  0  0  0  0  0  0  0  0  0  0  0
    1.5290   -1.6950   41.1880 C   0  0  0  0  0  0  0  0  0  0  0  0
    1.5060   -0.3800   41.4360 C   0  0  0  0  0  0  0  0  0  0  0  0
  1  6  1  0
  1  2  1  0
  2  3  1  0
  3  4  1  0
  4  5  1  0
  6  7  3  0
  7  8  1  0
  8  9  2  3
  9 10  1  0
 10 11  2  0
M  END
>  <vina_dock>  (677) 
-5.473

$$$$
O14757_PocketFlow_idx-in-all-generaetd-187
     RDKit          3D

 16 17  0  0  0  0  0  0  0  0999 V2000
    6.3670   -2.1850   45.0780 C   0  0  0  0  0  0  0  0  0  0  0  0
    5.8790   -1.1190   44.3140 C   0  0  0  0  0  0  0  0  0  0  0  0
    4.6590   -1.2370   43.6410 C   0  0  0  0  0  0  0  0  0  0  0  0
    3.9020   -2.4230   43.7170 C   0  0  0  0  0  0  0  0  0  0  0  0
    4.4090   -3.4830   44.4920 C   0  0  0  0  0  0  0  0  0  0  0  0
    5.6280   -3.3680   45.1660 C   0  0  0  0  0  0  0  0  0  0  0  0
    4.1180    0.1320   42.7310 Cl  0  0  0  0  0  0  0  0  0  0  0  0
    7.6650   -2.0130   45.7740 C   0  0  0  0  0  0  0  0  0  0  0  0
    8.3410   -2.9070   46.2460 O   0  0  0  0  0  0  0  0  0  0  0  0
    8.0520   -0.7280   45.8460 O   0  0  0  0  0  0  0  0  0  0  0  0
    2.6170   -2.6000   43.0260 C   0  0  0  0  0  0  0  0  0  0  0  0
    1.6630   -3.5090   43.5100 C   0  0  0  0  0  0  0  0  0  0  0  0
    2.3210   -1.8790   41.8580 C   0  0  0  0  0  0  0  0  0  0  0  0
    0.4460   -3.6870   42.8490 C   0  0  0  0  0  0  0  0  0  0  0  0
    1.1040   -2.0570   41.1970 C   0  0  0  0  0  0  0  0  0  0  0  0
    0.1680   -2.9610   41.6930 C   0  0  0  0  0  0  0  0  0  0  0  0
  1  2  2  0
  1  6  1  0
  1  8  1  0
  2  3  1  0
  3  7  1  0
  3  4  2  0
  4 11  1  0
  4  5  1  0
  5  6  2  0
  8 10  1  0
  8  9  2  0
 11 13  1  0
 11 12  2  0
 12 14  1  0
 13 15  2  0
 14 16  2  0
 15 16  1  0
M  END
>  <vina_dock>  (678) 
-7.943

$$$$
O14757_PocketFlow_idx-in-all-generaetd-189
     RDKit          3D

 19 20  0  0  0  0  0  0  0  0999 V2000
    2.9030   -2.6220   43.4890 C   0  0  0  0  0  0  0  0  0  0  0  0
    4.0510   -1.9770   43.2150 C   0  0  0  0  0  0  0  0  0  0  0  0
    2.6240   -3.7490   44.4710 C   0  0  2  0  0  0  0  0  0  0  0  0
    3.3280   -6.1530   44.5810 C   0  0  0  0  0  0  0  0  0  0  0  0
    3.6520   -4.8660   44.3890 C   0  0  0  0  0  0  0  0  0  0  0  0
    1.9790   -6.5540   44.8950 C   0  0  0  0  0  0  0  0  0  0  0  0
    0.9630   -5.6800   44.8460 C   0  0  0  0  0  0  0  0  0  0  0  0
    1.1370   -4.2360   44.4680 C   0  0  0  0  0  0  0  0  0  0  0  0
    0.5650   -4.0440   43.2470 F   0  0  0  0  0  0  0  0  0  0  0  0
    0.4250   -3.4550   45.3310 F   0  0  0  0  0  0  0  0  0  0  0  0
    5.3550   -2.2600   43.7750 C   0  0  0  0  0  0  0  0  0  0  0  0
    5.7390   -1.8470   44.9940 C   0  0  0  0  0  0  0  0  0  0  0  0
    4.8670   -1.1220   45.7380 F   0  0  0  0  0  0  0  0  0  0  0  0
    7.0640   -2.0890   45.5960 C   0  0  0  0  0  0  0  0  0  0  0  0
    8.0590   -1.1020   45.6840 C   0  0  0  0  0  0  0  0  0  0  0  0
    7.3610   -3.3740   46.0760 C   0  0  0  0  0  0  0  0  0  0  0  0
    9.3050   -1.3900   46.2530 C   0  0  0  0  0  0  0  0  0  0  0  0
    8.6050   -3.6610   46.6440 C   0  0  0  0  0  0  0  0  0  0  0  0
    9.5750   -2.6680   46.7350 C   0  0  0  0  0  0  0  0  0  0  0  0
  1  2  2  3
  1  3  1  0
  2 11  1  0
  3  5  1  0
  3  8  1  6
  4  5  2  0
  4  6  1  0
  6  7  2  0
  7  8  1  0
  8  9  1  0
  8 10  1  0
 11 12  2  3
 12 14  1  0
 12 13  1  0
 14 15  2  0
 14 16  1  0
 15 17  1  0
 16 18  2  0
 17 19  2  0
 18 19  1  0
M  END
>  <vina_dock>  (679) 
-8.177

$$$$
O14757_PocketFlow_idx-in-all-generaetd-484
     RDKit          3D

 27 28  0  0  0  0  0  0  0  0999 V2000
    3.2560   -5.8390   44.6370 C   0  0  0  0  0  0  0  0  0  0  0  0
    1.7300   -5.6720   44.6020 C   0  0  0  0  0  0  0  0  0  0  0  0
    0.8700   -6.8420   45.0040 C   0  0  0  0  0  0  0  0  0  0  0  0
   -0.4720   -6.9080   45.0320 C   0  0  0  0  0  0  0  0  0  0  0  0
   -1.2500   -8.1490   45.4390 C   0  0  0  0  0  0  0  0  0  0  0  0
   -2.6830   -8.1390   44.8480 C   0  0  0  0  0  0  0  0  0  0  0  0
   -2.7230   -7.8170   43.4210 N   0  0  0  0  0  0  0  0  0  0  0  0
   -1.3440   -8.2620   46.9800 C   0  0  0  0  0  0  0  0  0  0  0  0
   -1.8140   -7.0260   47.6120 N   0  0  0  0  0  0  0  0  0  0  0  0
    3.9340   -5.2670   45.8890 C   0  0  0  0  0  0  0  0  0  0  0  0
    4.0110   -3.7330   45.9330 C   0  0  0  0  0  0  0  0  0  0  0  0
    5.4250   -3.1830   45.9740 C   0  0  0  0  0  0  0  0  0  0  0  0
    5.8270   -2.0100   45.3020 C   0  0  0  0  0  0  0  0  0  0  0  0
    6.3830   -3.8990   46.7150 C   0  0  0  0  0  0  0  0  0  0  0  0
    7.1690   -1.5920   45.3940 C   0  0  0  0  0  0  0  0  0  0  0  0
    7.7080   -3.4680   46.8030 C   0  0  0  0  0  0  0  0  0  0  0  0
    8.1100   -2.3010   46.1510 C   0  0  0  0  0  0  0  0  0  0  0  0
    4.8900   -1.1820   44.4500 C   0  0  0  0  0  0  0  0  0  0  0  0
    4.6780   -1.7970   43.0630 C   0  0  0  0  0  0  0  0  0  0  0  0
    3.2550   -1.6180   42.5940 C   0  0  0  0  0  0  0  0  0  0  0  0
    2.3150   -2.6420   42.7670 C   0  0  0  0  0  0  0  0  0  0  0  0
    2.8650   -0.4370   41.9480 C   0  0  0  0  0  0  0  0  0  0  0  0
    1.0050   -2.4830   42.3100 C   0  0  0  0  0  0  0  0  0  0  0  0
    1.5560   -0.2800   41.4920 C   0  0  0  0  0  0  0  0  0  0  0  0
    0.6260   -1.3020   41.6740 C   0  0  0  0  0  0  0  0  0  0  0  0
    9.5420   -1.8480   46.2070 C   0  0  0  0  0  0  0  0  0  0  0  0
    9.6270   -0.4360   46.0610 O   0  0  0  0  0  0  0  0  0  0  0  0
  1  2  1  0
  1 10  1  0
  2  3  1  0
  3  4  2  3
  4  5  1  0
  5  6  1  0
  5  8  1  0
  6  7  1  0
  8  9  1  0
 10 11  1  0
 11 12  1  0
 12 13  2  0
 12 14  1  0
 13 18  1  0
 13 15  1  0
 14 16  2  0
 15 17  2  0
 16 17  1  0
 17 26  1  0
 18 19  1  0
 19 20  1  0
 20 22  1  0
 20 21  2  0
 21 23  1  0
 22 24  2  0
 23 25  2  0
 24 25  1  0
 26 27  1  0
M  END
>  <vina_dock>  (680) 
-7.788

$$$$
O14757_PocketFlow_idx-in-all-generaetd-337
     RDKit          3D

  7  6  0  0  0  0  0  0  0  0999 V2000
    4.5040   -1.8190   43.9040 C   0  0  1  0  0  0  0  0  0  0  0  0
    4.9090   -3.0350   43.4240 F   0  0  0  0  0  0  0  0  0  0  0  0
    5.1780   -1.6100   45.2520 C   0  0  0  0  0  0  0  0  0  0  0  0
    6.5180   -2.3140   45.3410 C   0  0  0  0  0  0  0  0  0  0  0  0
    7.4620   -1.5230   44.7640 F   0  0  0  0  0  0  0  0  0  0  0  0
    4.8390   -0.7460   42.8890 C   0  0  0  0  0  0  0  0  0  0  0  0
    4.4450    0.4160   42.9360 O   0  0  0  0  0  0  0  0  0  0  0  0
  1  6  1  0
  1  2  1  6
  1  3  1  0
  3  4  1  0
  4  5  1  0
  6  7  2  0
M  END
>  <vina_dock>  (681) 
-3.489

$$$$
O14757_PocketFlow_idx-in-all-generaetd-621
     RDKit          3D

 29 31  0  0  0  0  0  0  0  0999 V2000
    5.3740   -1.7160   44.1690 C   0  0  0  0  0  0  0  0  0  0  0  0
    4.4000   -2.6760   44.4870 C   0  0  0  0  0  0  0  0  0  0  0  0
    3.1730   -2.7700   43.7860 C   0  0  0  0  0  0  0  0  0  0  0  0
    2.9520   -1.8460   42.7330 C   0  0  0  0  0  0  0  0  0  0  0  0
    3.9300   -0.8910   42.4160 C   0  0  0  0  0  0  0  0  0  0  0  0
    5.1280   -0.8250   43.1250 C   0  0  0  0  0  0  0  0  0  0  0  0
    1.7510   -1.8790   42.0100 C   0  0  0  0  0  0  0  0  0  0  0  0
    0.7590   -2.8070   42.3140 C   0  0  0  0  0  0  0  0  0  0  0  0
    0.9600   -3.7210   43.3420 C   0  0  0  0  0  0  0  0  0  0  0  0
    2.1590   -3.7270   44.0800 C   0  0  0  0  0  0  0  0  0  0  0  0
    6.6550   -1.6290   44.9680 C   0  0  0  0  0  0  0  0  0  0  0  0
    6.9840   -2.9190   45.7350 C   0  0  0  0  0  0  0  0  0  0  0  0
    8.0680   -2.7500   46.7800 C   0  0  0  0  0  0  0  0  0  0  0  0
    8.0770   -3.4260   48.0200 C   0  0  0  0  0  0  0  0  0  0  0  0
    9.1340   -3.2020   48.9230 C   0  0  0  0  0  0  0  0  0  0  0  0
    9.1260   -1.8680   46.4880 C   0  0  0  0  0  0  0  0  0  0  0  0
   10.1870   -2.3300   48.6140 C   0  0  0  0  0  0  0  0  0  0  0  0
   10.1670   -1.6560   47.3930 C   0  0  0  0  0  0  0  0  0  0  0  0
   11.2860   -2.0840   49.6040 C   0  0  0  0  0  0  0  0  0  0  0  0
    6.9990   -4.3880   48.4010 C   0  0  0  0  0  0  0  0  0  0  0  0
    6.0030   -4.1600   49.0590 O   0  0  0  0  0  0  0  0  0  0  0  0
    7.2330   -5.6320   47.9400 O   0  0  0  0  0  0  0  0  0  0  0  0
    2.2900   -4.7520   45.1900 C   0  0  0  0  0  0  0  0  0  0  0  0
    1.0430   -5.5760   45.3590 C   0  0  0  0  0  0  0  0  0  0  0  0
    0.9670   -6.8850   45.0750 C   0  0  0  0  0  0  0  0  0  0  0  0
   -0.2440   -7.6550   45.2450 C   0  0  0  0  0  0  0  0  0  0  0  0
   -1.3350   -7.4750   44.4830 C   0  0  0  0  0  0  0  0  0  0  0  0
   -2.5450   -8.2450   44.6550 C   0  0  0  0  0  0  0  0  0  0  0  0
   -3.5390   -8.2490   43.7590 C   0  0  0  0  0  0  0  0  0  0  0  0
  1  6  1  0
  1  2  2  0
  1 11  1  0
  2  3  1  0
  3  4  2  0
  3 10  1  0
  4  7  1  0
  4  5  1  0
  5  6  2  0
  7  8  2  0
  8  9  1  0
  9 10  2  0
 10 23  1  0
 11 12  1  0
 12 13  1  0
 13 16  1  0
 13 14  2  0
 14 20  1  0
 14 15  1  0
 15 17  2  0
 16 18  2  0
 17 18  1  0
 17 19  1  0
 20 22  1  0
 20 21  2  0
 23 24  1  0
 24 25  2  3
 25 26  1  0
 26 27  2  3
 27 28  1  0
 28 29  2  0
M  END
>  <vina_dock>  (682) 
-9.606

$$$$
O14757_PocketFlow_idx-in-all-generaetd-895
     RDKit          3D

 35 37  0  0  0  0  0  0  0  0999 V2000
    7.6960   -3.9680   48.7570 C   0  0  0  0  0  0  0  0  0  0  0  0
    8.3920   -3.3920   47.5200 C   0  0  0  0  0  0  0  0  0  0  0  0
    7.3930   -2.9710   46.4680 C   0  0  0  0  0  0  0  0  0  0  0  0
    1.6760   -4.1760   44.1310 C   0  0  0  0  0  0  0  0  0  0  0  0
    0.7420   -3.6970   43.2010 C   0  0  0  0  0  0  0  0  0  0  0  0
    2.9360   -3.5480   44.2600 C   0  0  0  0  0  0  0  0  0  0  0  0
    1.0520   -2.6060   42.3950 C   0  0  0  0  0  0  0  0  0  0  0  0
    3.9470   -4.0530   45.2620 C   0  0  0  0  0  0  0  0  0  0  0  0
    3.2250   -2.4470   43.4360 C   0  0  0  0  0  0  0  0  0  0  0  0
   -0.1040   -2.0320   41.2580 Cl  0  0  0  0  0  0  0  0  0  0  0  0
    2.2870   -1.9790   42.5050 C   0  0  0  0  0  0  0  0  0  0  0  0
    5.2280   -3.2720   45.3740 C   0  0  0  0  0  0  0  0  0  0  0  0
    4.5260   -1.7460   43.5330 C   0  0  0  0  0  0  0  0  0  0  0  0
    6.1810   -3.6610   46.3310 C   0  0  0  0  0  0  0  0  0  0  0  0
    5.5080   -2.1800   44.5500 C   0  0  0  0  0  0  0  0  0  0  0  0
    4.7830   -0.8140   42.7780 O   0  0  0  0  0  0  0  0  0  0  0  0
    6.7130   -1.4800   44.6840 C   0  0  0  0  0  0  0  0  0  0  0  0
    7.6480   -1.8720   45.6410 C   0  0  0  0  0  0  0  0  0  0  0  0
    1.2860   -5.3340   44.9410 C   0  0  0  0  0  0  0  0  0  0  0  0
    0.3260   -6.1840   44.5440 C   0  0  0  0  0  0  0  0  0  0  0  0
   -0.1420   -7.3750   45.3060 C   0  0  0  0  0  0  0  0  0  0  0  0
   -1.1150   -8.0320   44.6300 F   0  0  0  0  0  0  0  0  0  0  0  0
    0.8490   -8.2680   45.5470 F   0  0  0  0  0  0  0  0  0  0  0  0
   -0.6600   -7.0180   46.5060 F   0  0  0  0  0  0  0  0  0  0  0  0
    8.2380   -5.3180   49.2880 C   0  0  2  0  0  0  0  0  0  0  0  0
    9.1890   -6.0770   48.3410 C   0  0  0  0  0  0  0  0  0  0  0  0
    9.6720   -7.4100   48.8980 C   0  0  0  0  0  0  0  0  0  0  0  0
    9.7220   -7.6180   50.1090 O   0  0  0  0  0  0  0  0  0  0  0  0
   10.0590   -8.3730   47.9660 N   0  0  0  0  0  0  0  0  0  0  0  0
    9.7720   -8.2870   46.5420 C   0  0  0  0  0  0  0  0  0  0  0  0
   10.4270   -9.6910   48.4600 C   0  0  0  0  0  0  0  0  0  0  0  0
    7.1600   -6.1970   49.8020 N   0  0  0  0  0  0  0  0  0  0  0  0
    5.8420   -6.0200   49.2100 C   0  0  0  0  0  0  0  0  0  0  0  0
    5.5720   -7.1360   48.2450 C   0  0  0  0  0  0  0  0  0  0  0  0
    6.1280   -8.3520   48.3140 C   0  0  0  0  0  0  0  0  0  0  0  0
  1  2  1  0
 25  1  1  6
  2  3  1  0
  3 18  2  0
  3 14  1  0
  4  5  2  0
  4  6  1  0
  4 19  1  0
  5  7  1  0
  6  9  2  0
  6  8  1  0
  7 10  1  0
  7 11  2  0
  8 12  1  0
  9 11  1  0
  9 13  1  0
 12 15  1  0
 12 14  2  0
 13 16  2  0
 13 15  1  0
 15 17  2  0
 17 18  1  0
 19 20  2  3
 20 21  1  0
 21 22  1  0
 21 23  1  0
 21 24  1  0
 25 26  1  0
 25 32  1  0
 26 27  1  0
 27 29  1  0
 27 28  2  0
 29 30  1  0
 29 31  1  0
 32 33  1  0
 33 34  1  0
 34 35  2  0
M  END
>  <vina_dock>  (683) 
-8.574

$$$$
O14757_PocketFlow_idx-in-all-generaetd-705
     RDKit          3D

 35 38  0  0  0  0  0  0  0  0999 V2000
    5.1850   -7.9840   47.6280 O   0  0  0  0  0  0  0  0  0  0  0  0
    6.1720   -8.0610   48.3580 C   0  0  0  0  0  0  0  0  0  0  0  0
    7.2290   -8.9160   48.1120 N   0  0  0  0  0  0  0  0  0  0  0  0
    6.3320   -7.2180   49.6120 C   0  0  0  0  0  0  0  0  0  0  0  0
    7.4890   -6.2540   49.5260 C   0  0  0  0  0  0  0  0  0  0  0  0
    7.4670   -5.1960   48.5990 C   0  0  0  0  0  0  0  0  0  0  0  0
    8.6070   -6.4150   50.3510 C   0  0  0  0  0  0  0  0  0  0  0  0
    8.5270   -4.2730   48.4990 C   0  0  0  0  0  0  0  0  0  0  0  0
    9.6750   -5.5290   50.2590 C   0  0  0  0  0  0  0  0  0  0  0  0
    9.6330   -4.4730   49.3460 C   0  0  0  0  0  0  0  0  0  0  0  0
    8.5040   -3.1320   47.5530 C   0  0  0  0  0  0  0  0  0  0  0  0
    7.4370   -3.0850   46.7130 N   0  0  0  0  0  0  0  0  0  0  0  0
    9.5160   -2.1780   47.4860 C   0  0  0  0  0  0  0  0  0  0  0  0
    7.3340   -2.0890   45.7920 C   0  0  0  0  0  0  0  0  0  0  0  0
    9.4250   -1.1600   46.5430 C   0  0  0  0  0  0  0  0  0  0  0  0
    8.3270   -1.1160   45.6880 C   0  0  0  0  0  0  0  0  0  0  0  0
    6.1210   -2.1410   44.9300 C   0  0  0  0  0  0  0  0  0  0  0  0
    5.1520   -3.1630   45.0260 C   0  0  0  0  0  0  0  0  0  0  0  0
    5.8890   -1.1440   43.9610 C   0  0  0  0  0  0  0  0  0  0  0  0
    4.0020   -3.2010   44.2080 C   0  0  0  0  0  0  0  0  0  0  0  0
    4.7610   -1.1590   43.1380 C   0  0  0  0  0  0  0  0  0  0  0  0
    3.8250   -2.1810   43.2630 C   0  0  0  0  0  0  0  0  0  0  0  0
    3.0130   -4.2860   44.3400 C   0  0  0  0  0  0  0  0  0  0  0  0
    1.6450   -4.0550   44.1240 C   0  0  0  0  0  0  0  0  0  0  0  0
    3.4120   -5.5880   44.6910 C   0  0  0  0  0  0  0  0  0  0  0  0
    0.7090   -5.0860   44.2510 C   0  0  0  0  0  0  0  0  0  0  0  0
    2.4790   -6.6210   44.8230 C   0  0  0  0  0  0  0  0  0  0  0  0
    1.1270   -6.3690   44.6020 C   0  0  0  0  0  0  0  0  0  0  0  0
    7.1990   -9.8570   47.0050 C   0  0  0  0  0  0  0  0  0  0  0  0
    8.5040   -9.8770   46.2030 C   0  0  0  0  0  0  0  0  0  0  0  0
    9.6150   -9.1230   46.8910 C   0  0  0  0  0  0  0  0  0  0  0  0
    9.9980   -7.8860   46.5360 C   0  0  0  0  0  0  0  0  0  0  0  0
   11.0930   -7.1600   47.1340 C   0  0  0  0  0  0  0  0  0  0  0  0
   11.5600   -5.9500   46.7890 C   0  0  0  0  0  0  0  0  0  0  0  0
   11.0810   -5.0490   45.6940 C   0  0  0  0  0  0  0  0  0  0  0  0
  1  2  2  0
  2  3  1  0
  2  4  1  0
  3 29  1  0
  4  5  1  0
  5  6  2  0
  5  7  1  0
  6  8  1  0
  7  9  2  0
  8 11  1  0
  8 10  2  0
  9 10  1  0
 11 12  2  0
 11 13  1  0
 12 14  1  0
 13 15  2  0
 14 17  1  0
 14 16  2  0
 15 16  1  0
 17 19  1  0
 17 18  2  0
 18 20  1  0
 19 21  2  0
 20 22  2  0
 20 23  1  0
 21 22  1  0
 23 24  2  0
 23 25  1  0
 24 26  1  0
 25 27  2  0
 26 28  2  0
 27 28  1  0
 29 30  1  0
 30 31  1  0
 31 32  2  3
 32 33  1  0
 33 34  2  3
 34 35  1  0
M  END
>  <vina_dock>  (684) 
-8.193

$$$$
O14757_PocketFlow_idx-in-all-generaetd-258
     RDKit          3D

 35 38  0  0  0  0  0  0  0  0999 V2000
    2.4070   -4.4070   45.4280 C   0  0  2  0  0  0  0  0  0  0  0  0
    1.9510   -4.2550   43.9780 C   0  0  0  0  0  0  0  0  0  0  0  0
    2.2840   -2.9300   43.4530 N   0  0  0  0  0  0  0  0  0  0  0  0
    3.5850   -2.4570   43.6890 C   0  0  0  0  0  0  0  0  0  0  0  0
    4.0930   -1.3420   42.9960 C   0  0  0  0  0  0  0  0  0  0  0  0
    5.3750   -0.8470   43.2260 C   0  0  0  0  0  0  0  0  0  0  0  0
    6.1940   -1.4550   44.1640 C   0  0  0  0  0  0  0  0  0  0  0  0
    5.7410   -2.5640   44.8910 C   0  0  0  0  0  0  0  0  0  0  0  0
    4.4210   -3.0490   44.6730 C   0  0  0  0  0  0  0  0  0  0  0  0
    3.9250   -4.2370   45.4710 C   0  0  0  0  0  0  0  0  0  0  0  0
    1.5830   -2.5330   42.2350 C   0  0  0  0  0  0  0  0  0  0  0  0
    2.0050   -5.6980   45.9850 N   0  0  0  0  0  0  0  0  0  0  0  0
    2.1200   -6.8660   45.2690 C   0  0  0  0  0  0  0  0  0  0  0  0
    2.5930   -6.9460   44.1440 O   0  0  0  0  0  0  0  0  0  0  0  0
    1.5430   -8.0670   45.9250 C   0  0  0  0  0  0  0  0  0  0  0  0
    0.1550   -8.2400   46.1370 C   0  0  0  0  0  0  0  0  0  0  0  0
   -0.2710   -9.4110   46.8120 C   0  0  0  0  0  0  0  0  0  0  0  0
    0.6770  -10.3640   47.2270 C   0  0  0  0  0  0  0  0  0  0  0  0
    2.4730   -9.0170   46.3680 C   0  0  0  0  0  0  0  0  0  0  0  0
    2.0390  -10.1700   47.0080 C   0  0  0  0  0  0  0  0  0  0  0  0
   -0.8350   -7.1690   45.7180 C   0  0  0  0  0  0  0  0  0  0  0  0
   -1.7230   -7.4800   44.5350 C   0  0  0  0  0  0  0  0  0  0  0  0
   -2.9510   -8.0260   44.5330 C   0  0  0  0  0  0  0  0  0  0  0  0
   -3.7370   -8.2970   43.2910 C   0  0  0  0  0  0  0  0  0  0  0  0
   -1.6730   -9.6840   47.1400 C   0  0  0  0  0  0  0  0  0  0  0  0
   -2.4870  -10.4950   46.4610 C   0  0  0  0  0  0  0  0  0  0  0  0
   -2.3340   -9.1510   48.3750 C   0  0  2  0  0  0  0  0  0  0  0  0
   -3.7000  -10.4360   47.2640 C   0  0  0  0  0  0  0  0  0  0  0  0
   -3.6970   -9.6980   48.3320 N   0  0  0  0  0  0  0  0  0  0  0  0
   -2.4330   -7.7120   48.4000 N   0  0  0  0  0  0  0  0  0  0  0  0
    6.6890   -3.1700   45.9110 C   0  0  0  0  0  0  0  0  0  0  0  0
    7.9520   -2.3680   46.0580 C   0  0  0  0  0  0  0  0  0  0  0  0
    9.0870   -2.7000   46.6940 C   0  0  0  0  0  0  0  0  0  0  0  0
    9.3480   -3.9290   47.4030 C   0  0  0  0  0  0  0  0  0  0  0  0
    9.9600   -4.9760   46.8360 C   0  0  0  0  0  0  0  0  0  0  0  0
  1  2  1  0
  1 10  1  0
  1 12  1  6
  2  3  1  0
  3 11  1  0
  3  4  1  0
  4  5  2  0
  4  9  1  0
  5  6  1  0
  6  7  2  0
  7  8  1  0
  8  9  2  0
  8 31  1  0
  9 10  1  0
 12 13  1  0
 13 14  2  0
 13 15  1  0
 15 16  2  0
 15 19  1  0
 16 21  1  0
 16 17  1  0
 17 25  1  0
 17 18  2  0
 18 20  1  0
 19 20  2  0
 21 22  1  0
 22 23  2  3
 23 24  1  0
 25 26  2  0
 25 27  1  0
 26 28  1  0
 27 29  1  0
 27 30  1  6
 28 29  2  0
 31 32  1  0
 32 33  2  3
 33 34  1  0
 34 35  2  0
M  END
>  <vina_dock>  (685) 
-9.944

$$$$
O14757_PocketFlow_idx-in-all-generaetd-447
     RDKit          3D

 16 17  0  0  0  0  0  0  0  0999 V2000
    1.0710   -2.4270   41.4300 C   0  0  0  0  0  0  0  0  0  0  0  0
    0.7710   -0.9500   41.4830 C   0  0  0  0  0  0  0  0  0  0  0  0
    1.5420   -0.0130   41.3690 O   0  0  0  0  0  0  0  0  0  0  0  0
   -0.5410   -0.7140   41.7050 O   0  0  0  0  0  0  0  0  0  0  0  0
    1.5700   -3.0000   42.7350 C   0  0  0  0  0  0  0  0  0  0  0  0
    2.8660   -2.7060   43.1890 C   0  0  0  0  0  0  0  0  0  0  0  0
    0.7580   -3.8460   43.5000 C   0  0  0  0  0  0  0  0  0  0  0  0
    3.3600   -3.2340   44.3960 C   0  0  0  0  0  0  0  0  0  0  0  0
    1.2290   -4.3750   44.7000 C   0  0  0  0  0  0  0  0  0  0  0  0
    2.5160   -4.0690   45.1440 C   0  0  0  0  0  0  0  0  0  0  0  0
    4.7220   -2.9220   44.8570 C   0  0  0  0  0  0  0  0  0  0  0  0
    5.4280   -1.8220   44.3410 C   0  0  0  0  0  0  0  0  0  0  0  0
    5.3550   -3.7150   45.8290 C   0  0  0  0  0  0  0  0  0  0  0  0
    6.7230   -1.5270   44.7790 C   0  0  0  0  0  0  0  0  0  0  0  0
    6.6480   -3.4200   46.2690 C   0  0  0  0  0  0  0  0  0  0  0  0
    7.3310   -2.3260   45.7430 C   0  0  0  0  0  0  0  0  0  0  0  0
  1  2  1  0
  1  5  1  0
  2  3  2  0
  2  4  1  0
  5  6  2  0
  5  7  1  0
  6  8  1  0
  7  9  2  0
  8 11  1  0
  8 10  2  0
  9 10  1  0
 11 12  2  0
 11 13  1  0
 12 14  1  0
 13 15  2  0
 14 16  2  0
 15 16  1  0
M  END
>  <vina_dock>  (686) 
-7.673

$$$$
O14757_PocketFlow_idx-in-all-generaetd-979
     RDKit          3D

 29 31  0  0  0  0  0  0  0  0999 V2000
    1.7930   -4.9770   44.6370 C   0  0  0  0  0  0  0  0  0  0  0  0
    3.0050   -5.2640   45.2870 C   0  0  0  0  0  0  0  0  0  0  0  0
    4.1470   -4.4870   45.0740 C   0  0  0  0  0  0  0  0  0  0  0  0
    4.1080   -3.3960   44.2070 C   0  0  0  0  0  0  0  0  0  0  0  0
    2.9040   -3.0950   43.5390 C   0  0  0  0  0  0  0  0  0  0  0  0
    1.7510   -3.8770   43.7550 C   0  0  0  0  0  0  0  0  0  0  0  0
    2.8660   -1.7380   42.4460 Cl  0  0  0  0  0  0  0  0  0  0  0  0
    0.2580   -3.4880   42.9460 Cl  0  0  0  0  0  0  0  0  0  0  0  0
    0.6330   -5.8400   44.9060 C   0  0  0  0  0  0  0  0  0  0  0  0
   -1.0700   -7.4130   44.1310 C   0  0  0  0  0  0  0  0  0  0  0  0
    0.0320   -6.5840   43.8780 C   0  0  0  0  0  0  0  0  0  0  0  0
   -1.5870   -7.5170   45.4210 C   0  0  0  0  0  0  0  0  0  0  0  0
   -0.9840   -6.7810   46.4440 C   0  0  0  0  0  0  0  0  0  0  0  0
    0.1100   -5.9540   46.2000 C   0  0  0  0  0  0  0  0  0  0  0  0
   -1.4530   -6.8630   47.6990 F   0  0  0  0  0  0  0  0  0  0  0  0
   -2.6520   -8.2910   45.7960 O   0  0  0  0  0  0  0  0  0  0  0  0
   -2.3960   -9.6650   46.0930 C   0  0  0  0  0  0  0  0  0  0  0  0
   -3.3820  -10.1050   47.1650 C   0  0  0  0  0  0  0  0  0  0  0  0
   -2.9520   -9.4140   48.7440 Cl  0  0  0  0  0  0  0  0  0  0  0  0
    5.1810   -2.5880   43.9320 O   0  0  0  0  0  0  0  0  0  0  0  0
    5.6290   -1.6450   44.9060 C   0  0  0  0  0  0  0  0  0  0  0  0
    7.1500   -1.4930   44.8350 C   0  0  0  0  0  0  0  0  0  0  0  0
    7.8400   -2.1230   46.0160 C   0  0  0  0  0  0  0  0  0  0  0  0
    7.2600   -3.2540   46.6150 C   0  0  0  0  0  0  0  0  0  0  0  0
    9.0150   -1.6080   46.5790 C   0  0  0  0  0  0  0  0  0  0  0  0
    7.8370   -3.8470   47.7410 C   0  0  0  0  0  0  0  0  0  0  0  0
    9.5870   -2.1920   47.7090 C   0  0  0  0  0  0  0  0  0  0  0  0
    9.0000   -3.3130   48.2890 C   0  0  0  0  0  0  0  0  0  0  0  0
    9.6660   -0.5160   46.0800 O   0  0  0  0  0  0  0  0  0  0  0  0
  1  6  1  0
  1  9  1  0
  1  2  2  0
  2  3  1  0
  3  4  2  0
  4  5  1  0
  4 20  1  0
  5  7  1  0
  5  6  2  0
  6  8  1  0
  9 11  1  0
  9 14  2  0
 10 11  2  0
 10 12  1  0
 12 16  1  0
 12 13  2  0
 13 14  1  0
 13 15  1  0
 16 17  1  0
 17 18  1  0
 18 19  1  0
 20 21  1  0
 21 22  1  0
 22 23  1  0
 23 25  1  0
 23 24  2  0
 24 26  1  0
 25 29  1  0
 25 27  2  0
 26 28  2  0
 27 28  1  0
M  END
>  <vina_dock>  (687) 
-8.239

$$$$
O14757_PocketFlow_idx-in-all-generaetd-145
     RDKit          3D

 13 14  0  0  0  0  0  0  0  0999 V2000
    1.1390   -1.2850   41.2490 C   0  0  0  0  0  0  0  0  0  0  0  0
    2.4000   -1.1990   41.8350 C   0  0  0  0  0  0  0  0  0  0  0  0
    2.8060   -2.1280   42.8070 C   0  0  0  0  0  0  0  0  0  0  0  0
    0.2680   -2.3010   41.6270 C   0  0  0  0  0  0  0  0  0  0  0  0
    4.1830   -1.9880   43.4060 C   0  0  0  0  0  0  0  0  0  0  0  0
    4.6660   -3.2660   44.0830 C   0  0  0  0  0  0  0  0  0  0  0  0
    3.5950   -3.7850   45.0330 C   0  0  0  0  0  0  0  0  0  0  0  0
    2.3200   -4.1780   44.2650 C   0  0  2  0  0  0  0  0  0  0  0  0
    1.9140   -3.1360   43.2250 C   0  0  0  0  0  0  0  0  0  0  0  0
    0.6540   -3.2210   42.6030 C   0  0  0  0  0  0  0  0  0  0  0  0
    1.2280   -4.4480   45.2800 C   0  0  0  0  0  0  0  0  0  0  0  0
    0.4660   -5.5480   45.4040 C   0  0  0  0  0  0  0  0  0  0  0  0
    0.5160   -6.7950   44.5820 C   0  0  0  0  0  0  0  0  0  0  0  0
  1  4  2  0
  1  2  1  0
  2  3  2  0
  3  9  1  0
  3  5  1  0
  4 10  1  0
  5  6  1  0
  6  7  1  0
  8  7  1  1
  8  9  1  0
  8 11  1  0
  9 10  2  0
 11 12  2  3
 12 13  1  0
M  END
>  <vina_dock>  (688) 
-7.302

$$$$
O14757_PocketFlow_idx-in-all-generaetd-520
     RDKit          3D

 19 20  0  0  0  0  0  0  0  0999 V2000
    5.0150   -2.8590   46.0780 C   0  0  1  0  0  0  0  0  0  0  0  0
    4.3460   -2.4190   44.7800 C   0  0  0  0  0  0  0  0  0  0  0  0
    4.7020   -1.1980   44.1780 C   0  0  0  0  0  0  0  0  0  0  0  0
    4.1240   -0.7970   42.9760 C   0  0  0  0  0  0  0  0  0  0  0  0
    3.1830   -1.6080   42.3580 C   0  0  0  0  0  0  0  0  0  0  0  0
    2.7960   -2.8070   42.9570 C   0  0  0  0  0  0  0  0  0  0  0  0
    3.3330   -3.2110   44.1910 C   0  0  0  0  0  0  0  0  0  0  0  0
    4.7410   -4.3530   46.3490 C   0  0  0  0  0  0  0  0  0  0  0  0
    3.3180   -4.6680   46.2370 N   0  0  0  0  0  0  0  0  0  0  0  0
    2.8430   -4.5050   44.8400 C   0  0  1  0  0  0  0  0  0  0  0  0
    6.5120   -2.6300   46.0820 C   0  0  0  0  0  0  0  0  0  0  0  0
    7.3900   -3.3530   46.7980 C   0  0  0  0  0  0  0  0  0  0  0  0
    8.8780   -3.1290   46.8020 C   0  0  2  0  0  0  0  0  0  0  0  0
    9.2420   -1.7810   46.2070 C   0  0  0  0  0  0  0  0  0  0  0  0
    9.5200   -4.0920   46.0810 F   0  0  0  0  0  0  0  0  0  0  0  0
    1.0100   -4.6920   45.0150 P   0  0  0  0  0  0  0  0  0  0  0  0
    0.3280   -5.7230   44.1760 O   0  0  0  0  0  0  0  0  0  0  0  0
    0.7580   -4.9060   46.5920 O   0  0  0  0  0  0  0  0  0  0  0  0
    0.3360   -3.2480   44.8250 O   0  0  0  0  0  0  0  0  0  0  0  0
  1  2  1  0
  1 11  1  0
  1  8  1  6
  2  3  1  0
  2  7  2  0
  3  4  2  0
  4  5  1  0
  5  6  2  0
  6  7  1  0
  7 10  1  0
  8  9  1  0
  9 10  1  0
 10 16  1  1
 11 12  2  3
 12 13  1  0
 13 15  1  0
 13 14  1  6
 16 17  2  0
 16 19  1  0
 16 18  1  0
M  END
>  <vina_dock>  (689) 
-7.512

$$$$
O14757_PocketFlow_idx-in-all-generaetd-928
     RDKit          3D

 33 36  0  0  0  0  0  0  0  0999 V2000
    6.1570   -4.9970   48.7610 C   0  0  2  0  0  0  0  0  0  0  0  0
    5.6450   -6.3070   49.3860 C   0  0  0  0  0  0  0  0  0  0  0  0
    6.0140   -7.4410   48.5820 O   0  0  0  0  0  0  0  0  0  0  0  0
    4.9860   -8.0980   48.0130 C   0  0  0  0  0  0  0  0  0  0  0  0
    4.4890   -9.1540   48.3570 O   0  0  0  0  0  0  0  0  0  0  0  0
    4.5470   -7.4130   46.9480 O   0  0  0  0  0  0  0  0  0  0  0  0
    7.3680   -5.2260   47.8290 C   0  0  0  0  0  0  0  0  0  0  0  0
    8.0770   -3.9380   47.5110 C   0  0  0  0  0  0  0  0  0  0  0  0
    7.8610   -2.9440   46.6310 C   0  0  0  0  0  0  0  0  0  0  0  0
    8.8410   -1.8490   46.3650 C   0  0  0  0  0  0  0  0  0  0  0  0
    6.6700   -2.7670   45.7600 C   0  0  0  0  0  0  0  0  0  0  0  0
   10.0910   -1.5870   46.8140 C   0  0  0  0  0  0  0  0  0  0  0  0
    8.1900   -0.9590   45.3130 C   0  0  0  0  0  0  0  0  0  0  0  0
    5.4560   -3.4280   45.6410 C   0  0  0  0  0  0  0  0  0  0  0  0
    6.8900   -1.6250   44.9820 C   0  0  0  0  0  0  0  0  0  0  0  0
   10.9430   -2.3800   47.8260 C   0  0  2  0  0  0  0  0  0  0  0  0
   10.8440   -0.4820   46.4100 N   0  0  0  0  0  0  0  0  0  0  0  0
    4.4890   -2.9840   44.7140 C   0  0  0  0  0  0  0  0  0  0  0  0
    5.9610   -1.1670   44.0540 C   0  0  0  0  0  0  0  0  0  0  0  0
   12.0740   -1.3790   48.1600 C   0  0  1  0  0  0  0  0  0  0  0  0
   12.2310   -0.5610   46.8700 C   0  0  0  0  0  0  0  0  0  0  0  0
    4.7630   -1.8610   43.9150 C   0  0  0  0  0  0  0  0  0  0  0  0
   11.4760   -3.7040   47.2440 C   0  0  0  0  0  0  0  0  0  0  0  0
   11.7090   -3.6630   45.8510 O   0  0  0  0  0  0  0  0  0  0  0  0
   12.7220   -4.0200   47.8410 O   0  0  0  0  0  0  0  0  0  0  0  0
    3.1960   -3.6640   44.6100 C   0  0  0  0  0  0  0  0  0  0  0  0
    2.2630   -3.2990   43.6270 C   0  0  0  0  0  0  0  0  0  0  0  0
    2.8570   -4.6870   45.5100 C   0  0  0  0  0  0  0  0  0  0  0  0
    1.0280   -3.9470   43.5430 C   0  0  0  0  0  0  0  0  0  0  0  0
    1.6190   -5.3300   45.4300 C   0  0  0  0  0  0  0  0  0  0  0  0
    0.7060   -4.9600   44.4450 C   0  0  0  0  0  0  0  0  0  0  0  0
   11.6340   -0.4940   49.2160 O   0  0  0  0  0  0  0  0  0  0  0  0
    6.5100   -4.0780   49.8120 O   0  0  0  0  0  0  0  0  0  0  0  0
  1  7  1  0
  1  2  1  0
  1 33  1  1
  2  3  1  0
  3  4  1  0
  4  6  1  0
  4  5  2  0
  7  8  1  0
  8  9  1  0
  9 11  2  0
  9 10  1  0
 10 13  1  0
 10 12  2  3
 11 15  1  0
 11 14  1  0
 12 17  1  0
 12 16  1  0
 13 15  2  0
 14 18  2  0
 15 19  1  0
 16 23  1  6
 16 20  1  0
 17 21  1  0
 18 22  1  0
 18 26  1  0
 19 22  2  0
 20 21  1  0
 20 32  1  1
 23 24  1  0
 23 25  1  0
 26 27  2  0
 26 28  1  0
 27 29  1  0
 28 30  2  0
 29 31  2  0
 30 31  1  0
M  END
>  <vina_dock>  (690) 
-8.357

$$$$
O14757_PocketFlow_idx-in-all-generaetd-166
     RDKit          3D

 35 39  0  0  0  0  0  0  0  0999 V2000
    7.5420   -2.2750   45.7890 C   0  0  0  0  0  0  0  0  0  0  0  0
    8.0030   -3.4380   46.4340 C   0  0  0  0  0  0  0  0  0  0  0  0
    9.2330   -3.4590   47.1130 C   0  0  0  0  0  0  0  0  0  0  0  0
   10.0030   -2.2890   47.1530 C   0  0  0  0  0  0  0  0  0  0  0  0
    9.5630   -1.1310   46.5160 C   0  0  0  0  0  0  0  0  0  0  0  0
    8.3440   -1.1260   45.8330 C   0  0  0  0  0  0  0  0  0  0  0  0
    6.2490   -2.2700   45.0970 C   0  0  0  0  0  0  0  0  0  0  0  0
    3.8180   -2.3970   43.7610 C   0  0  0  0  0  0  0  0  0  0  0  0
    4.6530   -1.3010   43.5580 C   0  0  0  0  0  0  0  0  0  0  0  0
    4.1420   -3.3900   44.6200 N   0  0  0  0  0  0  0  0  0  0  0  0
    5.8740   -1.2390   44.2350 C   0  0  0  0  0  0  0  0  0  0  0  0
    5.3330   -3.3090   45.2570 C   0  0  0  0  0  0  0  0  0  0  0  0
    2.5380   -2.5480   43.0480 C   0  0  0  0  0  0  0  0  0  0  0  0
    2.2940   -1.7580   41.9050 C   0  0  0  0  0  0  0  0  0  0  0  0
    1.1000   -1.8610   41.1870 C   0  0  0  0  0  0  0  0  0  0  0  0
    1.5320   -3.4590   43.4620 C   0  0  0  0  0  0  0  0  0  0  0  0
    0.1220   -2.7570   41.5990 C   0  0  0  0  0  0  0  0  0  0  0  0
    0.3360   -3.5520   42.7250 C   0  0  0  0  0  0  0  0  0  0  0  0
    1.7070   -4.3800   44.6550 C   0  0  0  0  0  0  0  0  0  0  0  0
    1.9890   -5.8240   44.2220 C   0  0  0  0  0  0  0  0  0  0  0  0
    0.9380   -6.7760   44.7350 C   0  0  0  0  0  0  0  0  0  0  0  0
    1.1730   -7.5210   45.8970 C   0  0  0  0  0  0  0  0  0  0  0  0
   -0.2970   -6.8990   44.0810 C   0  0  0  0  0  0  0  0  0  0  0  0
    0.1960   -8.3860   46.3900 C   0  0  0  0  0  0  0  0  0  0  0  0
   -1.2930   -7.7620   44.5720 C   0  0  0  0  0  0  0  0  0  0  0  0
   -1.0410   -8.5180   45.7390 C   0  0  0  0  0  0  0  0  0  0  0  0
   -2.5350   -7.8920   43.9260 C   0  0  0  0  0  0  0  0  0  0  0  0
   -2.0350   -9.3810   46.2280 C   0  0  0  0  0  0  0  0  0  0  0  0
   -3.5140   -8.7550   44.4260 C   0  0  0  0  0  0  0  0  0  0  0  0
   -3.2630   -9.4990   45.5760 C   0  0  0  0  0  0  0  0  0  0  0  0
    9.7150   -4.7170   47.7930 C   0  0  0  0  0  0  0  0  0  0  0  0
    9.3680   -5.8950   47.0330 N   0  0  0  0  0  0  0  0  0  0  0  0
   10.2730   -6.5130   46.2280 C   0  0  0  0  0  0  0  0  0  0  0  0
   11.2930   -6.0180   45.7780 O   0  0  0  0  0  0  0  0  0  0  0  0
    9.9240   -7.7940   45.9560 N   0  0  0  0  0  0  0  0  0  0  0  0
  1  7  1  0
  1  6  1  0
  1  2  2  0
  2  3  1  0
  3  4  2  0
  3 31  1  0
  4  5  1  0
  5  6  2  0
  7 11  2  0
  7 12  1  0
  8 13  1  0
  8  9  2  0
  8 10  1  0
  9 11  1  0
 10 12  2  0
 13 14  2  0
 13 16  1  0
 14 15  1  0
 15 17  2  0
 16 18  2  0
 16 19  1  0
 17 18  1  0
 19 20  1  0
 20 21  1  0
 21 23  1  0
 21 22  2  0
 22 24  1  0
 23 25  2  0
 24 26  2  0
 25 27  1  0
 25 26  1  0
 26 28  1  0
 27 29  2  0
 28 30  2  0
 29 30  1  0
 31 32  1  0
 32 33  1  0
 33 34  2  0
 33 35  1  0
M  END
>  <vina_dock>  (691) 
-11.109

$$$$
O14757_PocketFlow_idx-in-all-generaetd-804
     RDKit          3D

 35 40  0  0  0  0  0  0  0  0999 V2000
    6.2930   -3.2030   46.4210 C   0  0  0  0  0  0  0  0  0  0  0  0
    5.5000   -4.2080   46.9900 C   0  0  0  0  0  0  0  0  0  0  0  0
    5.7750   -2.5620   45.2800 C   0  0  0  0  0  0  0  0  0  0  0  0
    4.5270   -2.8990   44.7200 C   0  0  0  0  0  0  0  0  0  0  0  0
    4.0630   -2.2290   43.5790 C   0  0  0  0  0  0  0  0  0  0  0  0
    2.8490   -2.5160   42.9830 C   0  0  0  0  0  0  0  0  0  0  0  0
    2.0360   -3.5210   43.5430 C   0  0  0  0  0  0  0  0  0  0  0  0
    2.4760   -4.2270   44.7070 C   0  0  0  0  0  0  0  0  0  0  0  0
    3.7360   -3.9110   45.3000 C   0  0  0  0  0  0  0  0  0  0  0  0
    4.2570   -4.5550   46.4460 C   0  0  0  0  0  0  0  0  0  0  0  0
    2.5050   -1.8150   41.8880 N   0  0  0  0  0  0  0  0  0  0  0  0
    1.3260   -2.0910   41.2920 C   0  0  0  0  0  0  0  0  0  0  0  0
    0.4330   -3.0430   41.7470 C   0  0  0  0  0  0  0  0  0  0  0  0
    0.8060   -3.7610   42.8860 C   0  0  0  0  0  0  0  0  0  0  0  0
    7.6080   -2.8350   46.9880 C   0  0  0  0  0  0  0  0  0  0  0  0
    7.9970   -3.4520   48.1070 N   0  0  0  0  0  0  0  0  0  0  0  0
    8.3290   -1.9130   46.3440 N   0  0  0  0  0  0  0  0  0  0  0  0
    9.1890   -3.0740   48.5540 C   0  0  0  0  0  0  0  0  0  0  0  0
    9.4930   -1.6130   46.8980 C   0  0  0  0  0  0  0  0  0  0  0  0
    9.9850   -2.1700   47.9930 N   0  0  0  0  0  0  0  0  0  0  0  0
   10.2760   -0.6710   46.2620 N   0  0  0  0  0  0  0  0  0  0  0  0
    1.6240   -5.2850   45.2920 C   0  0  0  0  0  0  0  0  0  0  0  0
    1.9830   -6.6360   45.1790 C   0  0  0  0  0  0  0  0  0  0  0  0
    0.4340   -4.9560   45.9660 C   0  0  0  0  0  0  0  0  0  0  0  0
    1.1680   -7.6210   45.7270 C   0  0  0  0  0  0  0  0  0  0  0  0
   -0.3780   -5.9540   46.5130 C   0  0  0  0  0  0  0  0  0  0  0  0
    1.5190   -8.9080   45.6110 F   0  0  0  0  0  0  0  0  0  0  0  0
   -0.0080   -7.2910   46.3930 C   0  0  0  0  0  0  0  0  0  0  0  0
   -0.8600   -3.3160   41.0310 C   0  0  0  0  0  0  0  0  0  0  0  0
   -1.7680   -2.1110   40.9500 C   0  0  0  0  0  0  0  0  0  0  0  0
   -1.4450   -0.9280   41.6320 C   0  0  0  0  0  0  0  0  0  0  0  0
   -2.9320   -2.1460   40.1670 C   0  0  0  0  0  0  0  0  0  0  0  0
   -2.2740    0.1910   41.5410 C   0  0  0  0  0  0  0  0  0  0  0  0
   -3.7600   -1.0250   40.0770 C   0  0  0  0  0  0  0  0  0  0  0  0
   -3.4320    0.1420   40.7640 C   0  0  0  0  0  0  0  0  0  0  0  0
  1  3  1  0
  1 15  1  0
  1  2  2  0
  2 10  1  0
  3  4  2  0
  4  5  1  0
  4  9  1  0
  5  6  2  0
  6 11  1  0
  6  7  1  0
  7 14  1  0
  7  8  2  0
  8 22  1  0
  8  9  1  0
  9 10  2  0
 11 12  2  0
 12 13  1  0
 13 29  1  0
 13 14  2  0
 15 17  1  0
 15 16  2  0
 16 18  1  0
 17 19  2  0
 18 20  2  0
 19 21  1  0
 19 20  1  0
 22 23  2  0
 22 24  1  0
 23 25  1  0
 24 26  2  0
 25 27  1  0
 25 28  2  0
 26 28  1  0
 29 30  1  0
 30 32  1  0
 30 31  2  0
 31 33  1  0
 32 34  2  0
 33 35  2  0
 34 35  1  0
M  END
>  <vina_dock>  (692) 
-11.184

$$$$
O14757_PocketFlow_idx-in-all-generaetd-77
     RDKit          3D

 35 37  0  0  0  0  0  0  0  0999 V2000
    9.1240   -5.5130   48.6060 O   0  0  0  0  0  0  0  0  0  0  0  0
    8.0600   -6.1270   48.6280 C   0  0  0  0  0  0  0  0  0  0  0  0
    8.0190   -7.6410   48.6500 C   0  0  0  0  0  0  0  0  0  0  0  0
    6.9790   -8.1490   49.6390 C   0  0  0  0  0  0  0  0  0  0  0  0
    5.5870   -7.5180   49.4220 C   0  0  1  0  0  0  0  0  0  0  0  0
    6.8070   -5.5210   48.6050 N   0  0  0  0  0  0  0  0  0  0  0  0
    5.6240   -6.3550   48.4140 C   0  0  0  0  0  0  0  0  0  0  0  0
    6.7170   -4.0970   48.3270 C   0  0  0  0  0  0  0  0  0  0  0  0
    6.0290   -3.8840   47.0100 C   0  0  0  0  0  0  0  0  0  0  0  0
    4.8770   -3.2080   46.8820 C   0  0  0  0  0  0  0  0  0  0  0  0
    4.2460   -2.9520   45.5830 C   0  0  0  0  0  0  0  0  0  0  0  0
    4.6490   -1.8110   44.8640 C   0  0  0  0  0  0  0  0  0  0  0  0
    3.2980   -3.8250   45.0120 C   0  0  0  0  0  0  0  0  0  0  0  0
    4.1110   -1.5430   43.6010 C   0  0  0  0  0  0  0  0  0  0  0  0
    2.7670   -3.5440   43.7400 C   0  0  0  0  0  0  0  0  0  0  0  0
    3.1710   -2.4070   43.0360 C   0  0  0  0  0  0  0  0  0  0  0  0
    2.8110   -5.0270   45.7420 C   0  0  0  0  0  0  0  0  0  0  0  0
    3.2930   -6.1430   45.7500 O   0  0  0  0  0  0  0  0  0  0  0  0
    1.6920   -4.7520   46.4420 O   0  0  0  0  0  0  0  0  0  0  0  0
    4.5460   -0.3420   42.8630 C   0  0  0  0  0  0  0  0  0  0  0  0
    3.8640    0.6580   42.7160 O   0  0  0  0  0  0  0  0  0  0  0  0
    5.7710   -0.3460   42.3210 F   0  0  0  0  0  0  0  0  0  0  0  0
    4.5260   -8.5590   49.0440 C   0  0  0  0  0  0  0  0  0  0  0  0
    4.5230   -9.0730   47.8000 C   0  0  0  0  0  0  0  0  0  0  0  0
    3.6210   -8.9190   50.0230 N   0  0  0  0  0  0  0  0  0  0  0  0
    3.6050  -10.1250   47.2390 C   0  0  0  0  0  0  0  0  0  0  0  0
    2.4010   -9.4940   46.5940 C   0  0  0  0  0  0  0  0  0  0  0  0
    1.1330   -9.4840   47.0540 C   0  0  0  0  0  0  0  0  0  0  0  0
    0.6820  -10.1060   48.3470 C   0  0  0  0  0  0  0  0  0  0  0  0
    0.0740   -8.8380   46.2430 C   0  0  0  0  0  0  0  0  0  0  0  0
   -1.2590   -9.2580   46.3510 C   0  0  0  0  0  0  0  0  0  0  0  0
    0.3750   -7.7800   45.3710 C   0  0  0  0  0  0  0  0  0  0  0  0
   -2.2650   -8.6410   45.6020 C   0  0  0  0  0  0  0  0  0  0  0  0
   -0.6310   -7.1650   44.6220 C   0  0  0  0  0  0  0  0  0  0  0  0
   -1.9500   -7.5940   44.7370 C   0  0  0  0  0  0  0  0  0  0  0  0
  1  2  2  0
  2  6  1  0
  2  3  1  0
  3  4  1  0
  5  4  1  6
  5  7  1  0
  5 23  1  0
  6  8  1  0
  6  7  1  0
  8  9  1  0
  9 10  2  3
 10 11  1  0
 11 12  2  0
 11 13  1  0
 12 14  1  0
 13 15  2  0
 13 17  1  0
 14 20  1  0
 14 16  2  0
 15 16  1  0
 17 18  2  0
 17 19  1  0
 20 22  1  0
 20 21  2  0
 23 24  2  3
 23 25  1  0
 24 26  1  0
 26 27  1  0
 27 28  2  3
 28 30  1  0
 28 29  1  0
 30 32  1  0
 30 31  2  0
 31 33  1  0
 32 34  2  0
 33 35  2  0
 34 35  1  0
M  END
>  <vina_dock>  (693) 
-8.613

$$$$
O14757_PocketFlow_idx-in-all-generaetd-88
     RDKit          3D

 18 20  0  0  0  0  0  0  0  0999 V2000
    3.8270   -2.3470   43.6220 C   0  0  0  0  0  0  0  0  0  0  0  0
    4.1780   -3.3870   44.4940 C   0  0  0  0  0  0  0  0  0  0  0  0
    5.3970   -3.3730   45.1830 C   0  0  0  0  0  0  0  0  0  0  0  0
    6.3060   -2.3170   45.0260 C   0  0  0  0  0  0  0  0  0  0  0  0
    4.7350   -1.2920   43.4630 C   0  0  0  0  0  0  0  0  0  0  0  0
    5.9530   -1.2750   44.1550 C   0  0  0  0  0  0  0  0  0  0  0  0
    2.5450   -2.3630   42.8960 C   0  0  0  0  0  0  0  0  0  0  0  0
    0.0930   -2.3930   41.5060 C   0  0  0  0  0  0  0  0  0  0  0  0
    1.0540   -1.4320   41.2030 C   0  0  0  0  0  0  0  0  0  0  0  0
    0.3450   -3.3380   42.4960 C   0  0  0  0  0  0  0  0  0  0  0  0
    2.2690   -1.4180   41.8930 C   0  0  0  0  0  0  0  0  0  0  0  0
    1.5610   -3.3230   43.1840 C   0  0  0  0  0  0  0  0  0  0  0  0
    7.5870   -2.3010   45.7510 C   0  0  0  0  0  0  0  0  0  0  0  0
    8.0320   -3.4300   46.4590 C   0  0  0  0  0  0  0  0  0  0  0  0
    8.4040   -1.1580   45.7530 C   0  0  0  0  0  0  0  0  0  0  0  0
    9.2480   -3.4160   47.1470 C   0  0  0  0  0  0  0  0  0  0  0  0
    9.6200   -1.1430   46.4410 C   0  0  0  0  0  0  0  0  0  0  0  0
   10.0420   -2.2720   47.1370 C   0  0  0  0  0  0  0  0  0  0  0  0
  1  7  1  0
  1  5  1  0
  1  2  2  0
  2  3  1  0
  3  4  2  0
  4  6  1  0
  4 13  1  0
  5  6  2  0
  7 11  2  0
  7 12  1  0
  8  9  2  0
  8 10  1  0
  9 11  1  0
 10 12  2  0
 13 15  1  0
 13 14  2  0
 14 16  1  0
 15 17  2  0
 16 18  2  0
 17 18  1  0
M  END
>  <vina_dock>  (694) 
-8.88

$$$$
O14757_PocketFlow_idx-in-all-generaetd-833
     RDKit          3D

 29 30  0  0  0  0  0  0  0  0999 V2000
    5.4530   -1.4980   44.7430 C   0  0  0  0  0  0  0  0  0  0  0  0
    4.3700   -2.0280   45.4510 C   0  0  0  0  0  0  0  0  0  0  0  0
    4.5680   -3.0520   46.3770 C   0  0  0  0  0  0  0  0  0  0  0  0
    6.7390   -1.9930   44.9840 C   0  0  0  0  0  0  0  0  0  0  0  0
    6.9500   -3.0270   45.9120 C   0  0  0  0  0  0  0  0  0  0  0  0
    5.8530   -3.5490   46.6090 C   0  0  0  0  0  0  0  0  0  0  0  0
    5.2710   -0.4040   43.7830 C   0  0  0  0  0  0  0  0  0  0  0  0
    4.3940   -0.3680   42.7660 C   0  0  0  0  0  0  0  0  0  0  0  0
    3.4660   -1.4140   42.3900 C   0  0  0  0  0  0  0  0  0  0  0  0
    2.2080   -1.1630   41.9950 C   0  0  0  0  0  0  0  0  0  0  0  0
    1.2790   -2.2130   41.6360 C   0  0  0  0  0  0  0  0  0  0  0  0
    0.7810   -3.1520   42.4560 C   0  0  0  0  0  0  0  0  0  0  0  0
    1.0330   -3.3430   43.9240 C   0  0  0  0  0  0  0  0  0  0  0  0
    2.1180   -4.3290   44.2690 C   0  0  0  0  0  0  0  0  0  0  0  0
    3.2210   -6.4610   45.0030 C   0  0  0  0  0  0  0  0  0  0  0  0
    2.0250   -5.5830   44.7530 C   0  0  0  0  0  0  0  0  0  0  0  0
    2.6200   -7.6120   45.7920 C   0  0  0  0  0  0  0  0  0  0  0  0
    0.7890   -6.3670   45.0860 C   0  0  0  0  0  0  0  0  0  0  0  0
    1.2540   -7.7560   45.2720 N   0  0  0  0  0  0  0  0  0  0  0  0
    8.3470   -3.5330   46.1780 C   0  0  0  0  0  0  0  0  0  0  0  0
    8.8200   -3.1800   47.5600 C   0  0  0  0  0  0  0  0  0  0  0  0
    8.7670   -3.9210   48.6780 C   0  0  0  0  0  0  0  0  0  0  0  0
    8.2480   -5.2640   48.7960 C   0  0  0  0  0  0  0  0  0  0  0  0
    6.9640   -5.5220   49.0930 C   0  0  0  0  0  0  0  0  0  0  0  0
    6.4450   -6.8650   49.2290 C   0  0  0  0  0  0  0  0  0  0  0  0
    5.5270   -7.3830   48.3970 C   0  0  0  0  0  0  0  0  0  0  0  0
    5.0060   -8.7230   48.5450 C   0  0  0  0  0  0  0  0  0  0  0  0
    5.5430   -9.8500   48.0510 C   0  0  0  0  0  0  0  0  0  0  0  0
    6.7930  -10.0150   47.2450 C   0  0  0  0  0  0  0  0  0  0  0  0
  1  7  1  0
  1  4  1  0
  1  2  2  0
  2  3  1  0
  3  6  2  0
  4  5  2  0
  5 20  1  0
  5  6  1  0
  7  8  2  3
  8  9  1  0
  9 10  2  3
 10 11  1  0
 11 12  2  3
 12 13  1  0
 13 14  1  0
 14 16  2  3
 15 16  1  0
 15 17  1  0
 16 18  1  0
 17 19  1  0
 18 19  1  0
 20 21  1  0
 21 22  2  3
 22 23  1  0
 23 24  2  3
 24 25  1  0
 25 26  2  3
 26 27  1  0
 27 28  2  3
 28 29  1  0
M  END
>  <vina_dock>  (695) 
-7.887

$$$$
O14757_PocketFlow_idx-in-all-generaetd-648
     RDKit          3D

 19 19  0  0  0  0  0  0  0  0999 V2000
    0.6200   -6.7250   44.2860 C   0  0  0  0  0  0  0  0  0  0  0  0
   -0.7350   -7.1120   44.8770 C   0  0  0  0  0  0  0  0  0  0  0  0
   -0.8480   -6.8090   46.3450 C   0  0  0  0  0  0  0  0  0  0  0  0
   -0.4120   -7.4940   47.2540 O   0  0  0  0  0  0  0  0  0  0  0  0
   -1.4730   -5.6450   46.5990 O   0  0  0  0  0  0  0  0  0  0  0  0
    0.8610   -5.2100   44.3200 C   0  0  0  0  0  0  0  0  0  0  0  0
    2.2820   -4.8320   44.7910 C   0  0  1  0  0  0  0  0  0  0  0  0
    3.2760   -5.9920   44.6680 C   0  0  0  0  0  0  0  0  0  0  0  0
    2.7870   -3.6090   44.0360 C   0  0  0  0  0  0  0  0  0  0  0  0
    4.0710   -3.0910   44.2520 C   0  0  0  0  0  0  0  0  0  0  0  0
    1.9580   -2.9760   43.0920 C   0  0  0  0  0  0  0  0  0  0  0  0
    4.5050   -1.9760   43.5400 C   0  0  0  0  0  0  0  0  0  0  0  0
    2.3930   -1.8440   42.3790 C   0  0  0  0  0  0  0  0  0  0  0  0
    5.7360   -1.4970   43.7570 F   0  0  0  0  0  0  0  0  0  0  0  0
    3.6840   -1.3530   42.6090 C   0  0  0  0  0  0  0  0  0  0  0  0
    1.4990   -1.1940   41.3540 C   0  0  0  0  0  0  0  0  0  0  0  0
    1.6110   -1.7490   40.1150 F   0  0  0  0  0  0  0  0  0  0  0  0
    1.7570    0.1340   41.1890 F   0  0  0  0  0  0  0  0  0  0  0  0
    0.1820   -1.2810   41.6870 F   0  0  0  0  0  0  0  0  0  0  0  0
  1  6  1  0
  1  2  1  0
  2  3  1  0
  3  5  1  0
  3  4  2  0
  6  7  1  0
  7  9  1  0
  7  8  1  6
  9 11  2  0
  9 10  1  0
 10 12  2  0
 11 13  1  0
 12 15  1  0
 12 14  1  0
 13 16  1  0
 13 15  2  0
 16 17  1  0
 16 18  1  0
 16 19  1  0
M  END
>  <vina_dock>  (696) 
-7.976

$$$$
O14757_PocketFlow_idx-in-all-generaetd-569
     RDKit          3D

 24 26  0  0  0  0  0  0  0  0999 V2000
   -1.0270   -7.3130   45.2700 C   0  0  0  0  0  0  0  0  0  0  0  0
   -0.7640   -6.3750   46.2890 C   0  0  0  0  0  0  0  0  0  0  0  0
    0.1540   -5.3430   46.0360 C   0  0  0  0  0  0  0  0  0  0  0  0
    0.7510   -5.1810   44.7770 C   0  0  0  0  0  0  0  0  0  0  0  0
    0.4310   -6.0840   43.7590 C   0  0  0  0  0  0  0  0  0  0  0  0
   -0.4360   -7.1500   44.0090 C   0  0  0  0  0  0  0  0  0  0  0  0
   -1.9010   -8.4830   45.4550 C   0  0  0  0  0  0  0  0  0  0  0  0
   -1.6930   -9.5390   46.2620 C   0  0  0  0  0  0  0  0  0  0  0  0
   -0.5440   -9.7770   47.1470 C   0  0  0  0  0  0  0  0  0  0  0  0
    0.7550   -9.9440   46.6590 C   0  0  0  0  0  0  0  0  0  0  0  0
   -0.7520   -9.7920   48.5310 C   0  0  0  0  0  0  0  0  0  0  0  0
    1.8240  -10.1510   47.5360 C   0  0  0  0  0  0  0  0  0  0  0  0
    0.3150   -9.9990   49.4100 C   0  0  0  0  0  0  0  0  0  0  0  0
    1.6130  -10.1710   48.9190 C   0  0  0  0  0  0  0  0  0  0  0  0
    2.7550  -10.4250   49.8580 C   0  0  0  0  0  0  0  0  0  0  0  0
   -1.2150   -6.5640   47.6120 N   0  0  0  0  0  0  0  0  0  0  0  0
    1.6560   -4.0430   44.5620 C   0  0  0  0  0  0  0  0  0  0  0  0
    2.9480   -4.1670   44.2130 C   0  0  0  0  0  0  0  0  0  0  0  0
    3.8490   -3.0260   44.0000 C   0  0  0  0  0  0  0  0  0  0  0  0
    4.9750   -2.8910   44.8220 C   0  0  0  0  0  0  0  0  0  0  0  0
    3.5910   -2.0380   43.0400 C   0  0  0  0  0  0  0  0  0  0  0  0
    5.8410   -1.8040   44.6680 C   0  0  0  0  0  0  0  0  0  0  0  0
    4.4560   -0.9520   42.8880 C   0  0  0  0  0  0  0  0  0  0  0  0
    5.5830   -0.8370   43.7000 C   0  0  0  0  0  0  0  0  0  0  0  0
  1  6  1  0
  1  7  1  0
  1  2  2  0
  2  3  1  0
  2 16  1  0
  3  4  2  0
  4  5  1  0
  4 17  1  0
  5  6  2  0
  7  8  2  3
  8  9  1  0
  9 10  2  0
  9 11  1  0
 10 12  1  0
 11 13  2  0
 12 14  2  0
 13 14  1  0
 14 15  1  0
 17 18  2  3
 18 19  1  0
 19 21  1  0
 19 20  2  0
 20 22  1  0
 21 23  2  0
 22 24  2  0
 23 24  1  0
M  END
>  <vina_dock>  (697) 
-8.763

$$$$
O14757_PocketFlow_idx-in-all-generaetd-714
     RDKit          3D

 14 15  0  0  0  0  0  0  0  0999 V2000
    0.4530   -2.7780   41.8130 C   0  0  0  0  0  0  0  0  0  0  0  0
    0.8540   -3.5590   42.9040 C   0  0  0  0  0  0  0  0  0  0  0  0
    2.0890   -3.3460   43.5460 C   0  0  0  0  0  0  0  0  0  0  0  0
    2.9590   -2.3330   43.0900 C   0  0  0  0  0  0  0  0  0  0  0  0
    2.5540   -1.5720   41.9780 C   0  0  0  0  0  0  0  0  0  0  0  0
    1.3190   -1.7860   41.3540 C   0  0  0  0  0  0  0  0  0  0  0  0
    4.2760   -2.1160   43.7610 C   0  0  0  0  0  0  0  0  0  0  0  0
    4.9370   -0.9490   43.6450 C   0  0  0  0  0  0  0  0  0  0  0  0
    4.7470   -3.2660   44.6230 C   0  0  0  0  0  0  0  0  0  0  0  0
    3.6160   -3.7530   45.5200 C   0  0  0  0  0  0  0  0  0  0  0  0
    2.4590   -4.2720   44.6790 C   0  0  0  0  0  0  0  0  0  0  0  0
   -0.8710   -3.0250   41.1370 C   0  0  0  0  0  0  0  0  0  0  0  0
   -1.9160   -2.1570   41.6670 N   0  0  0  0  0  0  0  0  0  0  0  0
    6.1470   -0.6230   44.1970 O   0  0  0  0  0  0  0  0  0  0  0  0
  1 12  1  0
  1  6  2  0
  1  2  1  0
  2  3  2  0
  3  4  1  0
  3 11  1  0
  4  5  2  0
  4  7  1  0
  5  6  1  0
  7  8  2  3
  7  9  1  0
  8 14  1  0
  9 10  1  0
 10 11  1  0
 12 13  1  0
M  END
>  <vina_dock>  (698) 
-7.534

$$$$
O14757_PocketFlow_idx-in-all-generaetd-925
     RDKit          3D

 25 26  0  0  0  0  0  0  0  0999 V2000
    1.2260   -4.1320   45.3200 C   0  0  0  0  0  0  0  0  0  0  0  0
    1.7570   -4.3060   43.8910 C   0  0  0  0  0  0  0  0  0  0  0  0
    1.8900   -3.0080   43.1160 C   0  0  0  0  0  0  0  0  0  0  0  0
    5.2950   -1.6290   44.0370 C   0  0  0  0  0  0  0  0  0  0  0  0
    4.1810   -2.4780   43.9840 C   0  0  0  0  0  0  0  0  0  0  0  0
    5.2900   -0.4460   43.3050 C   0  0  0  0  0  0  0  0  0  0  0  0
    3.0430   -2.1750   43.2010 C   0  0  0  0  0  0  0  0  0  0  0  0
    4.1860   -0.1200   42.5190 C   0  0  0  0  0  0  0  0  0  0  0  0
    3.0680   -0.9680   42.4550 C   0  0  0  0  0  0  0  0  0  0  0  0
    0.8160   -2.6260   42.2920 C   0  0  0  0  0  0  0  0  0  0  0  0
    1.9760   -0.6170   41.6500 C   0  0  0  0  0  0  0  0  0  0  0  0
    0.8580   -1.4410   41.5660 C   0  0  0  0  0  0  0  0  0  0  0  0
    6.4590   -1.9780   44.8520 C   0  0  0  0  0  0  0  0  0  0  0  0
    6.4070   -2.6630   46.0050 C   0  0  0  0  0  0  0  0  0  0  0  0
    5.1780   -3.1940   46.6990 C   0  0  0  0  0  0  0  0  0  0  0  0
    5.3910   -4.5890   47.3080 C   0  0  0  0  0  0  0  0  0  0  0  0
    4.4130   -5.5720   46.8380 N   0  0  0  0  0  0  0  0  0  0  0  0
    0.6380   -5.3930   45.9640 C   0  0  0  0  0  0  0  0  0  0  0  0
    1.1910   -6.7310   45.4580 C   0  0  0  0  0  0  0  0  0  0  0  0
    0.1290   -7.8230   45.3390 C   0  0  0  0  0  0  0  0  0  0  0  0
   -1.2250   -7.3540   44.7840 C   0  0  0  0  0  0  0  0  0  0  0  0
   -2.5130   -7.9050   45.4190 C   0  0  2  0  0  0  0  0  0  0  0  0
   -2.2000   -9.4560   46.2730 Cl  0  0  0  0  0  0  0  0  0  0  0  0
   -3.6800   -8.0600   44.4240 C   0  0  0  0  0  0  0  0  0  0  0  0
   -3.2730   -7.8350   43.0330 N   0  0  0  0  0  0  0  0  0  0  0  0
  1  2  1  0
  1 18  1  0
  2  3  1  0
  3 10  2  0
  3  7  1  0
  4  6  2  0
  4  5  1  0
  4 13  1  0
  5  7  2  0
  6  8  1  0
  7  9  1  0
  8  9  2  0
  9 11  1  0
 10 12  1  0
 11 12  2  0
 13 14  2  3
 14 15  1  0
 15 16  1  0
 16 17  1  0
 18 19  1  0
 19 20  1  0
 20 21  1  0
 21 22  1  0
 22 24  1  0
 22 23  1  6
 24 25  1  0
M  END
>  <vina_dock>  (699) 
-8.046

$$$$
O14757_PocketFlow_idx-in-all-generaetd-401
     RDKit          3D

 16 17  0  0  0  0  0  0  0  0999 V2000
    5.9590   -2.2170   44.8020 C   0  0  0  0  0  0  0  0  0  0  0  0
    5.0690   -3.2930   44.9390 C   0  0  0  0  0  0  0  0  0  0  0  0
    5.6350   -1.1510   43.9560 C   0  0  0  0  0  0  0  0  0  0  0  0
    3.8620   -3.3380   44.2190 C   0  0  0  0  0  0  0  0  0  0  0  0
    3.5690   -2.2630   43.3620 C   0  0  0  0  0  0  0  0  0  0  0  0
    4.4420   -1.1780   43.2350 C   0  0  0  0  0  0  0  0  0  0  0  0
    7.2200   -2.2400   45.5950 C   0  0  0  0  0  0  0  0  0  0  0  0
    7.6250   -3.2900   46.0780 O   0  0  0  0  0  0  0  0  0  0  0  0
    7.8970   -1.0420   45.7050 N   0  0  0  0  0  0  0  0  0  0  0  0
    9.1850   -0.9880   46.3500 C   0  0  0  0  0  0  0  0  0  0  0  0
    2.9350   -4.4720   44.3600 C   0  0  0  0  0  0  0  0  0  0  0  0
    3.3890   -5.7770   44.5610 C   0  0  0  0  0  0  0  0  0  0  0  0
    1.5450   -4.3060   44.3020 C   0  0  0  0  0  0  0  0  0  0  0  0
    2.5910   -6.8650   44.7080 N   0  0  0  0  0  0  0  0  0  0  0  0
    0.6960   -5.4030   44.4430 C   0  0  0  0  0  0  0  0  0  0  0  0
    1.2610   -6.6500   44.6430 C   0  0  0  0  0  0  0  0  0  0  0  0
  1  3  2  0
  1  2  1  0
  1  7  1  0
  2  4  2  0
  3  6  1  0
  4  5  1  0
  4 11  1  0
  5  6  2  0
  7  9  1  0
  7  8  2  0
  9 10  1  0
 11 13  1  0
 11 12  2  0
 12 14  1  0
 13 15  2  0
 14 16  2  0
 15 16  1  0
M  END
>  <vina_dock>  (700) 
-7.758

$$$$
O14757_PocketFlow_idx-in-all-generaetd-859
     RDKit          3D

 11 11  0  0  0  0  0  0  0  0999 V2000
    3.8320   -2.2650   43.1120 C   0  0  0  0  0  0  0  0  0  0  0  0
    4.7260   -1.3590   43.5430 C   0  0  0  0  0  0  0  0  0  0  0  0
    3.3180   -3.3950   43.8890 C   0  0  0  0  0  0  0  0  0  0  0  0
    3.6350   -5.5360   44.9850 C   0  0  0  0  0  0  0  0  0  0  0  0
    2.2850   -5.5630   45.3320 C   0  0  0  0  0  0  0  0  0  0  0  0
    4.1500   -4.4570   44.2630 C   0  0  0  0  0  0  0  0  0  0  0  0
    1.4480   -4.5140   44.9540 C   0  0  0  0  0  0  0  0  0  0  0  0
    1.9620   -3.4340   44.2320 C   0  0  0  0  0  0  0  0  0  0  0  0
    5.3590   -1.2640   44.9030 C   0  0  0  0  0  0  0  0  0  0  0  0
    6.7450   -1.8480   45.0040 C   0  0  0  0  0  0  0  0  0  0  0  0
    7.1590   -2.8660   45.7730 C   0  0  0  0  0  0  0  0  0  0  0  0
  1  2  2  3
  1  3  1  0
  2  9  1  0
  3  8  2  0
  3  6  1  0
  4  6  2  0
  4  5  1  0
  5  7  2  0
  7  8  1  0
  9 10  1  0
 10 11  2  0
M  END
>  <vina_dock>  (701) 
-5.48

$$$$
O14757_PocketFlow_idx-in-all-generaetd-148
     RDKit          3D

 10 10  0  0  0  0  0  0  0  0999 V2000
    1.7710   -2.9180   42.9530 C   0  0  0  0  0  0  0  0  0  0  0  0
    2.6320   -3.4300   43.8480 C   0  0  0  0  0  0  0  0  0  0  0  0
    0.4240   -3.5140   42.6620 C   0  0  0  0  0  0  0  0  0  0  0  0
    0.0220   -3.2890   41.2130 C   0  0  0  0  0  0  0  0  0  0  0  0
    3.9470   -2.8510   44.1540 C   0  0  0  0  0  0  0  0  0  0  0  0
    4.3460   -1.6850   43.4870 C   0  0  0  0  0  0  0  0  0  0  0  0
    4.7940   -3.3900   45.1310 C   0  0  0  0  0  0  0  0  0  0  0  0
    5.5760   -1.0870   43.7700 C   0  0  0  0  0  0  0  0  0  0  0  0
    6.0250   -2.7930   45.4140 C   0  0  0  0  0  0  0  0  0  0  0  0
    6.4170   -1.6420   44.7320 C   0  0  0  0  0  0  0  0  0  0  0  0
  1  3  1  0
  1  2  2  3
  2  5  1  0
  3  4  1  0
  5  6  2  0
  5  7  1  0
  6  8  1  0
  7  9  2  0
  8 10  2  0
  9 10  1  0
M  END
>  <vina_dock>  (702) 
-5.869

$$$$
O14757_PocketFlow_idx-in-all-generaetd-154
     RDKit          3D

 26 29  0  0  0  0  0  0  0  0999 V2000
    2.4890   -7.3130   45.3700 C   0  0  0  0  0  0  0  0  0  0  0  0
    2.4830   -5.9690   44.6180 C   0  0  0  0  0  0  0  0  0  0  0  0
    1.8750   -4.7920   45.4170 C   0  0  2  0  0  0  0  0  0  0  0  0
    0.9150   -3.3390   43.6460 C   0  0  0  0  0  0  0  0  0  0  0  0
    2.2690   -2.7400   43.4700 C   0  0  0  0  0  0  0  0  0  0  0  0
    0.0010   -3.1210   42.8580 O   0  0  0  0  0  0  0  0  0  0  0  0
    0.7460   -4.1970   44.7090 N   0  0  0  0  0  0  0  0  0  0  0  0
    2.5470   -2.0170   42.3090 C   0  0  0  0  0  0  0  0  0  0  0  0
    3.2670   -2.9470   44.4440 C   0  0  0  0  0  0  0  0  0  0  0  0
    3.8280   -1.5120   42.1020 C   0  0  0  0  0  0  0  0  0  0  0  0
    2.8850   -3.6610   45.7300 C   0  0  2  0  0  0  0  0  0  0  0  0
    4.5660   -2.4590   44.2230 C   0  0  0  0  0  0  0  0  0  0  0  0
    4.8330   -1.7430   43.0450 C   0  0  0  0  0  0  0  0  0  0  0  0
    4.0590   -4.0880   46.6300 C   0  0  0  0  0  0  0  0  0  0  0  0
    5.6260   -2.7960   45.1940 C   0  0  0  0  0  0  0  0  0  0  0  0
    5.4090   -4.0970   45.9210 C   0  0  0  0  0  0  0  0  0  0  0  0
    6.6780   -2.0000   45.4430 C   0  0  0  0  0  0  0  0  0  0  0  0
    1.1560   -7.9100   45.7490 C   0  0  0  0  0  0  0  0  0  0  0  0
   -0.0140   -7.6400   45.0240 C   0  0  0  0  0  0  0  0  0  0  0  0
    1.0840   -8.8080   46.8260 C   0  0  0  0  0  0  0  0  0  0  0  0
   -1.2370   -8.2100   45.4060 C   0  0  0  0  0  0  0  0  0  0  0  0
   -0.1260   -9.4050   47.1850 C   0  0  0  0  0  0  0  0  0  0  0  0
   -1.2880   -9.1070   46.4750 C   0  0  0  0  0  0  0  0  0  0  0  0
   -2.4960   -7.8880   44.6900 C   0  0  0  0  0  0  0  0  0  0  0  0
   -3.5790   -7.5790   45.4650 N   0  0  0  0  0  0  0  0  0  0  0  0
   -2.5730   -7.9440   43.4710 O   0  0  0  0  0  0  0  0  0  0  0  0
  1  2  1  0
  1 18  1  0
  3  2  1  6
  3  7  1  0
  3 11  1  0
  4  6  2  0
  4  5  1  0
  4  7  1  0
  5  8  1  0
  5  9  2  0
  8 10  2  0
  9 12  1  0
  9 11  1  0
 10 13  1  0
 11 14  1  6
 12 13  2  0
 12 15  1  0
 14 16  1  0
 15 17  2  0
 15 16  1  0
 18 19  2  0
 18 20  1  0
 19 21  1  0
 20 22  2  0
 21 24  1  0
 21 23  2  0
 22 23  1  0
 24 26  2  0
 24 25  1  0
M  END
>  <vina_dock>  (703) 
-9.205

$$$$
O14757_PocketFlow_idx-in-all-generaetd-713
     RDKit          3D

 35 38  0  0  0  0  0  0  0  0999 V2000
    0.5580   -5.1310   44.9180 C   0  0  0  0  0  0  0  0  0  0  0  0
    1.4590   -4.0990   44.2830 C   0  0  0  0  0  0  0  0  0  0  0  0
    3.1270   -2.1700   43.1280 C   0  0  0  0  0  0  0  0  0  0  0  0
    3.5950   -2.8980   44.2340 C   0  0  0  0  0  0  0  0  0  0  0  0
    1.8450   -2.3840   42.5960 C   0  0  0  0  0  0  0  0  0  0  0  0
    2.7410   -3.8620   44.7990 C   0  0  0  0  0  0  0  0  0  0  0  0
    1.0220   -3.3580   43.1780 C   0  0  0  0  0  0  0  0  0  0  0  0
    4.9380   -2.6610   44.7850 C   0  0  0  0  0  0  0  0  0  0  0  0
    5.7430   -1.6170   44.3070 C   0  0  0  0  0  0  0  0  0  0  0  0
    5.4550   -3.4720   45.8070 C   0  0  0  0  0  0  0  0  0  0  0  0
    7.0190   -1.3920   44.8330 C   0  0  0  0  0  0  0  0  0  0  0  0
    6.7340   -3.2500   46.3360 C   0  0  0  0  0  0  0  0  0  0  0  0
    7.5330   -2.2070   45.8570 C   0  0  0  0  0  0  0  0  0  0  0  0
    7.2690   -4.3110   47.5900 Cl  0  0  0  0  0  0  0  0  0  0  0  0
    8.9080   -1.9480   46.4100 C   0  0  0  0  0  0  0  0  0  0  0  0
    9.7680   -2.9850   46.2110 F   0  0  0  0  0  0  0  0  0  0  0  0
    9.5150   -0.8640   45.8420 F   0  0  0  0  0  0  0  0  0  0  0  0
    8.9060   -1.6960   47.7480 F   0  0  0  0  0  0  0  0  0  0  0  0
    1.3770   -1.6060   41.3910 C   0  0  0  0  0  0  0  0  0  0  0  0
    1.7640   -2.1810   40.2190 F   0  0  0  0  0  0  0  0  0  0  0  0
    0.0210   -1.4910   41.3230 F   0  0  0  0  0  0  0  0  0  0  0  0
    1.8590   -0.3320   41.3600 F   0  0  0  0  0  0  0  0  0  0  0  0
    0.6430   -6.5110   44.2550 C   0  0  0  0  0  0  0  0  0  0  0  0
   -0.7350   -7.1420   44.0160 C   0  0  0  0  0  0  0  0  0  0  0  0
   -1.2470   -7.8720   45.2340 C   0  0  0  0  0  0  0  0  0  0  0  0
   -0.4240   -8.3120   46.1960 C   0  0  0  0  0  0  0  0  0  0  0  0
   -2.7350   -8.0850   45.3330 C   0  0  0  0  0  0  0  0  0  0  0  0
   -0.9910   -9.0290   47.3400 C   0  0  0  0  0  0  0  0  0  0  0  0
   -3.2360   -8.3640   46.6470 O   0  0  0  0  0  0  0  0  0  0  0  0
   -0.2220   -9.7070   48.3030 C   0  0  0  0  0  0  0  0  0  0  0  0
   -2.3850   -9.0100   47.5030 C   0  0  0  0  0  0  0  0  0  0  0  0
    1.6760   -9.8330   48.2050 Br  0  0  0  0  0  0  0  0  0  0  0  0
   -0.8350  -10.3360   49.3940 C   0  0  0  0  0  0  0  0  0  0  0  0
   -2.9920   -9.6240   48.6000 C   0  0  0  0  0  0  0  0  0  0  0  0
   -2.2190  -10.2910   49.5450 C   0  0  0  0  0  0  0  0  0  0  0  0
  1 23  1  0
  1  2  1  0
  2  7  2  0
  2  6  1  0
  3  5  2  0
  3  4  1  0
  4  8  1  0
  4  6  2  0
  5 19  1  0
  5  7  1  0
  8  9  2  0
  8 10  1  0
  9 11  1  0
 10 12  2  0
 11 13  2  0
 12 13  1  0
 12 14  1  0
 13 15  1  0
 15 17  1  0
 15 16  1  0
 15 18  1  0
 19 20  1  0
 19 21  1  0
 19 22  1  0
 23 24  1  0
 24 25  1  0
 25 27  2  0
 25 26  1  0
 26 28  2  0
 27 29  1  0
 28 31  1  0
 28 30  1  0
 29 31  1  0
 30 32  1  0
 30 33  2  0
 31 34  1  0
 33 35  1  0
 34 35  2  0
M  END
>  <vina_dock>  (704) 
-11.036

$$$$
O14757_PocketFlow_idx-in-all-generaetd-612
     RDKit          3D

 20 22  0  0  0  0  0  0  0  0999 V2000
    0.7630   -6.8300   45.7830 C   0  0  0  0  0  0  0  0  0  0  0  0
    1.9880   -7.0810   45.1500 C   0  0  0  0  0  0  0  0  0  0  0  0
    2.7640   -6.0290   44.6540 C   0  0  0  0  0  0  0  0  0  0  0  0
    2.3410   -4.6960   44.7720 C   0  0  0  0  0  0  0  0  0  0  0  0
    1.1120   -4.4520   45.4030 C   0  0  0  0  0  0  0  0  0  0  0  0
    0.3320   -5.5020   45.9000 C   0  0  0  0  0  0  0  0  0  0  0  0
   -0.1040   -7.9640   46.3190 C   0  0  1  0  0  0  0  0  0  0  0  0
   -0.3280   -7.7790   47.8270 C   0  0  0  0  0  0  0  0  0  0  0  0
   -1.3700   -8.1810   45.4950 C   0  0  0  0  0  0  0  0  0  0  0  0
   -2.7190   -7.9080   43.4850 C   0  0  0  0  0  0  0  0  0  0  0  0
   -3.7460   -8.6560   44.0540 C   0  0  0  0  0  0  0  0  0  0  0  0
   -1.5400   -7.6730   44.1980 C   0  0  0  0  0  0  0  0  0  0  0  0
   -3.5950   -9.1740   45.3370 C   0  0  0  0  0  0  0  0  0  0  0  0
   -2.4180   -8.9400   46.0500 C   0  0  0  0  0  0  0  0  0  0  0  0
    3.1600   -3.5900   44.2500 C   0  0  0  0  0  0  0  0  0  0  0  0
    4.4490   -3.3430   44.7520 C   0  0  0  0  0  0  0  0  0  0  0  0
    2.6770   -2.7490   43.2340 C   0  0  0  0  0  0  0  0  0  0  0  0
    5.2280   -2.2930   44.2540 C   0  0  0  0  0  0  0  0  0  0  0  0
    3.4540   -1.6980   42.7360 C   0  0  0  0  0  0  0  0  0  0  0  0
    4.7300   -1.4720   43.2470 C   0  0  0  0  0  0  0  0  0  0  0  0
  1  2  2  0
  1  6  1  0
  1  7  1  0
  2  3  1  0
  3  4  2  0
  4 15  1  0
  4  5  1  0
  5  6  2  0
  7  9  1  0
  7  8  1  1
  9 12  2  0
  9 14  1  0
 10 11  2  0
 10 12  1  0
 11 13  1  0
 13 14  2  0
 15 17  1  0
 15 16  2  0
 16 18  1  0
 17 19  2  0
 18 20  2  0
 19 20  1  0
M  END
>  <vina_dock>  (705) 
-8.524

$$$$
O14757_PocketFlow_idx-in-all-generaetd-717
     RDKit          3D

 23 26  0  0  0  0  0  0  0  0999 V2000
    0.8810   -2.8170   42.3980 C   0  0  0  0  0  0  0  0  0  0  0  0
    1.1270   -3.7460   43.4040 C   0  0  0  0  0  0  0  0  0  0  0  0
    2.3410   -3.7140   44.1010 C   0  0  0  0  0  0  0  0  0  0  0  0
    3.3500   -2.7580   43.8230 C   0  0  0  0  0  0  0  0  0  0  0  0
    4.6120   -2.6880   44.5150 C   0  0  0  0  0  0  0  0  0  0  0  0
    5.5470   -1.6860   44.1530 C   0  0  0  0  0  0  0  0  0  0  0  0
    5.2390   -0.7840   43.1320 C   0  0  0  0  0  0  0  0  0  0  0  0
    4.0200   -0.8500   42.4630 C   0  0  0  0  0  0  0  0  0  0  0  0
    3.0740   -1.8220   42.7930 C   0  0  0  0  0  0  0  0  0  0  0  0
    1.8530   -1.8610   42.0970 C   0  0  0  0  0  0  0  0  0  0  0  0
    6.7880   -1.5910   44.8100 C   0  0  0  0  0  0  0  0  0  0  0  0
    7.1550   -2.4690   45.8390 C   0  0  0  0  0  0  0  0  0  0  0  0
    6.2400   -3.4590   46.2000 C   0  0  0  0  0  0  0  0  0  0  0  0
    5.0010   -3.5650   45.5560 C   0  0  0  0  0  0  0  0  0  0  0  0
   -0.3850   -2.8040   41.6260 C   0  0  0  0  0  0  0  0  0  0  0  0
   -1.2110   -1.9100   41.6250 O   0  0  0  0  0  0  0  0  0  0  0  0
   -0.5610   -3.9160   40.8900 O   0  0  0  0  0  0  0  0  0  0  0  0
    8.4580   -2.3520   46.5130 C   0  0  0  0  0  0  0  0  0  0  0  0
    9.3740   -1.3520   46.1470 C   0  0  0  0  0  0  0  0  0  0  0  0
    8.8230   -3.2350   47.5430 C   0  0  0  0  0  0  0  0  0  0  0  0
   10.6120   -1.2390   46.7870 C   0  0  0  0  0  0  0  0  0  0  0  0
   10.0600   -3.1250   48.1820 C   0  0  0  0  0  0  0  0  0  0  0  0
   10.9530   -2.1250   47.8040 C   0  0  0  0  0  0  0  0  0  0  0  0
  1 15  1  0
  1 10  2  0
  1  2  1  0
  2  3  2  0
  3  4  1  0
  4  9  2  0
  4  5  1  0
  5  6  2  0
  5 14  1  0
  6  7  1  0
  6 11  1  0
  7  8  2  0
  8  9  1  0
  9 10  1  0
 11 12  2  0
 12 13  1  0
 12 18  1  0
 13 14  2  0
 15 17  1  0
 15 16  2  0
 18 19  2  0
 18 20  1  0
 19 21  1  0
 20 22  2  0
 21 23  2  0
 22 23  1  0
M  END
>  <vina_dock>  (706) 
-10.252

$$$$
O14757_PocketFlow_idx-in-all-generaetd-155
     RDKit          3D

 14 15  0  0  0  0  0  0  0  0999 V2000
    6.9420   -1.8910   45.2430 C   0  0  0  0  0  0  0  0  0  0  0  0
    7.2920   -2.9770   45.9420 C   0  0  0  0  0  0  0  0  0  0  0  0
    5.7170   -1.7910   44.4370 C   0  0  0  0  0  0  0  0  0  0  0  0
    5.6040   -0.7530   43.5060 C   0  0  0  0  0  0  0  0  0  0  0  0
    4.6830   -2.7300   44.5330 C   0  0  0  0  0  0  0  0  0  0  0  0
    4.4660   -0.6380   42.7030 C   0  0  0  0  0  0  0  0  0  0  0  0
    3.5310   -2.6300   43.7320 C   0  0  0  0  0  0  0  0  0  0  0  0
    3.4200   -1.5650   42.8050 C   0  0  0  0  0  0  0  0  0  0  0  0
    2.4900   -3.5650   43.8300 C   0  0  0  0  0  0  0  0  0  0  0  0
    2.2690   -1.4630   42.0040 C   0  0  0  0  0  0  0  0  0  0  0  0
    1.3610   -3.4400   43.0260 C   0  0  0  0  0  0  0  0  0  0  0  0
    1.2410   -2.3990   42.1160 C   0  0  0  0  0  0  0  0  0  0  0  0
    0.3740   -4.3400   43.1320 F   0  0  0  0  0  0  0  0  0  0  0  0
    8.4190   -3.1240   46.7080 N   0  0  0  0  0  0  0  0  0  0  0  0
  1  3  1  0
  1  2  2  3
  2 14  1  0
  3  4  2  0
  3  5  1  0
  4  6  1  0
  5  7  2  0
  6  8  2  0
  7  8  1  0
  7  9  1  0
  8 10  1  0
  9 11  2  0
 10 12  2  0
 11 12  1  0
 11 13  1  0
M  END
>  <vina_dock>  (707) 
-7.421

$$$$
O14757_PocketFlow_idx-in-all-generaetd-329
     RDKit          3D

 30 33  0  0  0  0  0  0  0  0999 V2000
    1.8470   -6.1370   44.5690 C   0  0  0  0  0  0  0  0  0  0  0  0
    2.7460   -5.7680   45.4980 C   0  0  0  0  0  0  0  0  0  0  0  0
    0.5450   -6.7400   44.8870 C   0  0  0  0  0  0  0  0  0  0  0  0
   -1.0340   -7.7400   46.4600 C   0  0  0  0  0  0  0  0  0  0  0  0
   -1.9330   -7.9510   45.4070 C   0  0  0  0  0  0  0  0  0  0  0  0
    0.2060   -7.1400   46.1870 C   0  0  0  0  0  0  0  0  0  0  0  0
   -1.5990   -7.5700   44.1090 C   0  0  0  0  0  0  0  0  0  0  0  0
   -0.3650   -6.9710   43.8490 C   0  0  0  0  0  0  0  0  0  0  0  0
   -1.3810   -8.1700   47.8640 C   0  0  0  0  0  0  0  0  0  0  0  0
   -0.9850   -9.6160   48.1850 C   0  0  0  0  0  0  0  0  0  0  0  0
    0.4250   -9.7680   48.6910 C   0  0  0  0  0  0  0  0  0  0  0  0
    1.4390  -10.2600   47.8730 C   0  0  0  0  0  0  0  0  0  0  0  0
    0.6740   -9.4100   49.9760 N   0  0  0  0  0  0  0  0  0  0  0  0
    2.7210  -10.3990   48.2860 N   0  0  0  0  0  0  0  0  0  0  0  0
    1.9540   -9.5440   50.3900 C   0  0  0  0  0  0  0  0  0  0  0  0
    2.9540  -10.0270   49.5640 C   0  0  0  0  0  0  0  0  0  0  0  0
    4.0970   -5.1440   45.2700 C   0  0  0  0  0  0  0  0  0  0  0  0
    4.5230   -4.1410   46.3040 C   0  0  0  0  0  0  0  0  0  0  0  0
    5.2820   -3.0480   46.1210 C   0  0  0  0  0  0  0  0  0  0  0  0
    5.8470   -2.5320   44.8260 C   0  0  0  0  0  0  0  0  0  0  0  0
    4.7860   -1.9110   43.9480 C   0  0  0  0  0  0  0  0  0  0  0  0
    3.6300   -2.6280   43.6070 C   0  0  0  0  0  0  0  0  0  0  0  0
    4.9300   -0.5980   43.4850 C   0  0  0  0  0  0  0  0  0  0  0  0
    2.6280   -2.0550   42.8030 C   0  0  0  0  0  0  0  0  0  0  0  0
    3.9440   -0.0170   42.6860 C   0  0  0  0  0  0  0  0  0  0  0  0
    1.4710   -2.7700   42.4560 C   0  0  0  0  0  0  0  0  0  0  0  0
    2.7890   -0.7330   42.3360 C   0  0  0  0  0  0  0  0  0  0  0  0
    0.4850   -2.1880   41.6560 C   0  0  0  0  0  0  0  0  0  0  0  0
    1.7890   -0.1600   41.5320 C   0  0  0  0  0  0  0  0  0  0  0  0
    0.6440   -0.8850   41.1940 C   0  0  0  0  0  0  0  0  0  0  0  0
  1  3  1  0
  1  2  2  3
  2 17  1  0
  3  8  1  0
  3  6  2  0
  4  5  2  0
  4  6  1  0
  4  9  1  0
  5  7  1  0
  7  8  2  0
  9 10  1  0
 10 11  1  0
 11 12  2  0
 11 13  1  0
 12 14  1  0
 13 15  2  0
 14 16  2  0
 15 16  1  0
 17 18  1  0
 18 19  2  3
 19 20  1  0
 20 21  1  0
 21 23  1  0
 21 22  2  0
 22 24  1  0
 23 25  2  0
 24 27  2  0
 24 26  1  0
 25 27  1  0
 26 28  2  0
 27 29  1  0
 28 30  1  0
 29 30  2  0
M  END
>  <vina_dock>  (708) 
-9.205

$$$$
O14757_PocketFlow_idx-in-all-generaetd-952
     RDKit          3D

 26 29  0  0  0  0  0  0  0  0999 V2000
    1.2760   -2.8750   42.6380 C   0  0  0  0  0  0  0  0  0  0  0  0
    1.5750   -3.8230   43.6160 C   0  0  0  0  0  0  0  0  0  0  0  0
    2.7890   -3.7590   44.3090 C   0  0  0  0  0  0  0  0  0  0  0  0
    3.7490   -2.7480   44.0500 C   0  0  0  0  0  0  0  0  0  0  0  0
    5.0110   -2.6280   44.7250 C   0  0  0  0  0  0  0  0  0  0  0  0
    5.8600   -1.5610   44.3500 C   0  0  0  0  0  0  0  0  0  0  0  0
    7.0900   -1.4100   44.9780 C   0  0  0  0  0  0  0  0  0  0  0  0
    7.5350   -2.2860   45.9790 C   0  0  0  0  0  0  0  0  0  0  0  0
    6.7040   -3.3350   46.3620 C   0  0  0  0  0  0  0  0  0  0  0  0
    5.4640   -3.5060   45.7430 C   0  0  0  0  0  0  0  0  0  0  0  0
    3.4220   -1.8020   43.0560 C   0  0  0  0  0  0  0  0  0  0  0  0
    2.2010   -1.8670   42.3600 C   0  0  0  0  0  0  0  0  0  0  0  0
    5.5390   -0.6690   43.4060 N   0  0  0  0  0  0  0  0  0  0  0  0
    4.3490   -0.8020   42.7860 C   0  0  0  0  0  0  0  0  0  0  0  0
   -0.0210   -2.9790   41.9280 C   0  0  0  0  0  0  0  0  0  0  0  0
   -0.7650   -2.0520   41.6650 O   0  0  0  0  0  0  0  0  0  0  0  0
   -0.3250   -4.2410   41.5790 O   0  0  0  0  0  0  0  0  0  0  0  0
    8.8690   -2.0750   46.6540 C   0  0  0  0  0  0  0  0  0  0  0  0
    8.8960   -2.6480   48.0430 C   0  0  0  0  0  0  0  0  0  0  0  0
    9.5740   -3.7260   48.4690 C   0  0  0  0  0  0  0  0  0  0  0  0
   10.4220   -4.5660   47.6220 C   0  0  0  0  0  0  0  0  0  0  0  0
    9.8410   -5.5600   46.8300 C   0  0  0  0  0  0  0  0  0  0  0  0
   11.8080   -4.3840   47.5960 C   0  0  0  0  0  0  0  0  0  0  0  0
   10.6400   -6.3640   46.0130 C   0  0  0  0  0  0  0  0  0  0  0  0
   12.6060   -5.1890   46.7800 C   0  0  0  0  0  0  0  0  0  0  0  0
   12.0210   -6.1770   45.9880 C   0  0  0  0  0  0  0  0  0  0  0  0
  1 15  1  0
  1 12  2  0
  1  2  1  0
  2  3  2  0
  3  4  1  0
  4 11  2  0
  4  5  1  0
  5  6  2  0
  5 10  1  0
  6 13  1  0
  6  7  1  0
  7  8  2  0
  8  9  1  0
  8 18  1  0
  9 10  2  0
 11 12  1  0
 11 14  1  0
 13 14  2  0
 15 17  1  0
 15 16  2  0
 18 19  1  0
 19 20  2  3
 20 21  1  0
 21 22  2  0
 21 23  1  0
 22 24  1  0
 23 25  2  0
 24 26  2  0
 25 26  1  0
M  END
>  <vina_dock>  (709) 
-8.983

$$$$
O14757_PocketFlow_idx-in-all-generaetd-841
     RDKit          3D

 22 24  0  0  0  0  0  0  0  0999 V2000
   -0.7700   -8.0270   45.6280 C   0  0  0  0  0  0  0  0  0  0  0  0
   -1.4790   -7.6510   44.3330 C   0  0  0  0  0  0  0  0  0  0  0  0
   -2.8590   -8.2380   44.2580 C   0  0  0  0  0  0  0  0  0  0  0  0
   -3.3900   -8.9330   45.1080 O   0  0  0  0  0  0  0  0  0  0  0  0
   -3.5110   -7.8970   43.1320 O   0  0  0  0  0  0  0  0  0  0  0  0
   -0.5590   -6.8240   46.5510 C   0  0  0  0  0  0  0  0  0  0  0  0
    0.3710   -5.8610   45.9480 C   0  0  0  0  0  0  0  0  0  0  0  0
    1.1360   -5.0760   45.4540 C   0  0  0  0  0  0  0  0  0  0  0  0
    2.0470   -4.1330   44.8640 C   0  0  0  0  0  0  0  0  0  0  0  0
    1.7450   -3.4380   43.6720 C   0  0  0  0  0  0  0  0  0  0  0  0
    3.2600   -3.9270   45.5240 C   0  0  0  0  0  0  0  0  0  0  0  0
    2.6970   -2.5200   43.1470 C   0  0  0  0  0  0  0  0  0  0  0  0
    0.5200   -3.6280   42.9830 C   0  0  0  0  0  0  0  0  0  0  0  0
    4.2090   -3.0320   45.0280 C   0  0  0  0  0  0  0  0  0  0  0  0
    3.9480   -2.3140   43.8360 C   0  0  0  0  0  0  0  0  0  0  0  0
    2.3510   -1.8440   41.9480 C   0  0  0  0  0  0  0  0  0  0  0  0
    0.2190   -2.9460   41.8080 C   0  0  0  0  0  0  0  0  0  0  0  0
    5.4180   -2.8540   45.7260 C   0  0  0  0  0  0  0  0  0  0  0  0
    4.9650   -1.4240   43.4010 C   0  0  0  0  0  0  0  0  0  0  0  0
    1.1370   -2.0510   41.2880 C   0  0  0  0  0  0  0  0  0  0  0  0
    6.3900   -1.9720   45.2660 C   0  0  0  0  0  0  0  0  0  0  0  0
    6.1640   -1.2550   44.1030 C   0  0  0  0  0  0  0  0  0  0  0  0
  1  2  1  0
  1  6  1  0
  2  3  1  0
  3  5  1  0
  3  4  2  0
  6  7  1  0
  7  8  3  0
  8  9  1  0
  9 10  2  0
  9 11  1  0
 10 13  1  0
 10 12  1  0
 11 14  2  0
 12 16  1  0
 12 15  2  0
 13 17  2  0
 14 15  1  0
 14 18  1  0
 15 19  1  0
 16 20  2  0
 17 20  1  0
 18 21  2  0
 19 22  2  0
 21 22  1  0
M  END
>  <vina_dock>  (710) 
-9.259

$$$$
O14757_PocketFlow_idx-in-all-generaetd-280
     RDKit          3D

 12 13  0  0  0  0  0  0  0  0999 V2000
    0.4210   -3.4990   42.6630 C   0  0  0  0  0  0  0  0  0  0  0  0
    1.6550   -3.3770   43.3100 C   0  0  0  0  0  0  0  0  0  0  0  0
    2.5790   -2.3910   42.9280 C   0  0  0  0  0  0  0  0  0  0  0  0
    2.2270   -1.5300   41.8740 C   0  0  0  0  0  0  0  0  0  0  0  0
    0.0930   -2.6360   41.6210 C   0  0  0  0  0  0  0  0  0  0  0  0
    0.9940   -1.6520   41.2260 C   0  0  0  0  0  0  0  0  0  0  0  0
    3.8780   -2.2620   43.6090 C   0  0  0  0  0  0  0  0  0  0  0  0
    4.3110   -3.2310   44.5300 C   0  0  0  0  0  0  0  0  0  0  0  0
    4.7220   -1.1680   43.3580 C   0  0  0  0  0  0  0  0  0  0  0  0
    5.5440   -3.1110   45.1770 C   0  0  0  0  0  0  0  0  0  0  0  0
    5.9550   -1.0460   44.0050 C   0  0  0  0  0  0  0  0  0  0  0  0
    6.3650   -2.0180   44.9140 C   0  0  0  0  0  0  0  0  0  0  0  0
  1  5  2  0
  1  2  1  0
  2  3  2  0
  3  4  1  0
  3  7  1  0
  4  6  2  0
  5  6  1  0
  7  9  1  0
  7  8  2  0
  8 10  1  0
  9 11  2  0
 10 12  2  0
 11 12  1  0
M  END
>  <vina_dock>  (711) 
-7.087

$$$$
O14757_PocketFlow_idx-in-all-generaetd-344
     RDKit          3D

 30 32  0  0  0  0  0  0  0  0999 V2000
    4.7670   -1.8920   45.7480 C   0  0  0  0  0  0  0  0  0  0  0  0
    5.0990   -3.3690   45.5210 C   0  0  0  0  0  0  0  0  0  0  0  0
    3.8890   -4.2340   45.7420 C   0  0  0  0  0  0  0  0  0  0  0  0
    3.4950   -5.1920   44.8880 C   0  0  0  0  0  0  0  0  0  0  0  0
    2.3310   -6.0720   45.0770 C   0  0  0  0  0  0  0  0  0  0  0  0
    1.4700   -8.2440   45.8050 C   0  0  0  0  0  0  0  0  0  0  0  0
    0.1820   -7.8530   45.4210 C   0  0  0  0  0  0  0  0  0  0  0  0
    2.5360   -7.3480   45.6220 C   0  0  0  0  0  0  0  0  0  0  0  0
   -0.0330   -6.5920   44.8650 C   0  0  0  0  0  0  0  0  0  0  0  0
    1.0360   -5.7110   44.6890 C   0  0  0  0  0  0  0  0  0  0  0  0
    1.7160   -9.6140   46.3920 C   0  0  0  0  0  0  0  0  0  0  0  0
    1.3340   -9.7280   47.8510 C   0  0  0  0  0  0  0  0  0  0  0  0
   -0.3760  -10.0370   49.5680 C   0  0  0  0  0  0  0  0  0  0  0  0
    0.6060   -9.8970   50.5480 C   0  0  0  0  0  0  0  0  0  0  0  0
   -0.0080   -9.8990   48.2250 C   0  0  0  0  0  0  0  0  0  0  0  0
    1.9460   -9.7310   50.1940 C   0  0  0  0  0  0  0  0  0  0  0  0
    2.3120   -9.6590   48.8500 C   0  0  0  0  0  0  0  0  0  0  0  0
   -1.7290  -10.0940   49.9280 N   0  0  0  0  0  0  0  0  0  0  0  0
    5.5270   -0.9410   44.8190 C   0  0  0  0  0  0  0  0  0  0  0  0
    5.2320   -1.0830   43.3210 C   0  0  0  0  0  0  0  0  0  0  0  0
    4.1140   -0.1820   42.7820 C   0  0  0  0  0  0  0  0  0  0  0  0
    2.8610   -0.9170   42.3720 C   0  0  0  0  0  0  0  0  0  0  0  0
    1.8720   -0.2720   41.6220 C   0  0  0  0  0  0  0  0  0  0  0  0
    2.6550   -2.2480   42.7570 C   0  0  0  0  0  0  0  0  0  0  0  0
    0.7000   -0.9440   41.2620 C   0  0  0  0  0  0  0  0  0  0  0  0
    1.4840   -2.9200   42.3970 C   0  0  0  0  0  0  0  0  0  0  0  0
    0.4960   -2.2750   41.6420 C   0  0  0  0  0  0  0  0  0  0  0  0
   -0.7840   -2.9890   41.2750 C   0  0  0  0  0  0  0  0  0  0  0  0
   -1.9480   -2.1810   41.6380 N   0  0  0  0  0  0  0  0  0  0  0  0
   -2.8630   -2.0420   40.5160 C   0  0  0  0  0  0  0  0  0  0  0  0
  1 19  1  0
  1  2  1  0
  2  3  1  0
  3  4  2  3
  4  5  1  0
  5 10  1  0
  5  8  2  0
  6  7  2  0
  6  8  1  0
  6 11  1  0
  7  9  1  0
  9 10  2  0
 11 12  1  0
 12 15  1  0
 12 17  2  0
 13 15  2  0
 13 18  1  0
 13 14  1  0
 14 16  2  0
 16 17  1  0
 19 20  1  0
 20 21  1  0
 21 22  1  0
 22 23  2  0
 22 24  1  0
 23 25  1  0
 24 26  2  0
 25 27  2  0
 26 27  1  0
 27 28  1  0
 28 29  1  0
 29 30  1  0
M  END
>  <vina_dock>  (712) 
-7.897

$$$$
O14757_PocketFlow_idx-in-all-generaetd-933
     RDKit          3D

 18 18  0  0  0  0  0  0  0  0999 V2000
    5.0280   -2.8800   44.7710 C   0  0  0  0  0  0  0  0  0  0  0  0
    3.7600   -3.5630   45.2180 C   0  0  0  0  0  0  0  0  0  0  0  0
    3.0170   -4.4440   44.5260 C   0  0  0  0  0  0  0  0  0  0  0  0
    1.7900   -5.0970   44.9830 C   0  0  0  0  0  0  0  0  0  0  0  0
    1.6030   -6.3980   44.6780 C   0  0  0  0  0  0  0  0  0  0  0  0
    0.8010   -4.2770   45.7770 C   0  0  0  0  0  0  0  0  0  0  0  0
    0.4340   -7.1960   45.0510 C   0  0  0  0  0  0  0  0  0  0  0  0
   -1.8080   -7.9730   44.6040 C   0  0  0  0  0  0  0  0  0  0  0  0
   -3.2060   -7.9920   43.5990 Cl  0  0  0  0  0  0  0  0  0  0  0  0
   -1.7960   -8.7200   45.7810 C   0  0  0  0  0  0  0  0  0  0  0  0
   -0.7010   -7.2120   44.2340 C   0  0  0  0  0  0  0  0  0  0  0  0
   -0.6650   -8.7050   46.5990 C   0  0  0  0  0  0  0  0  0  0  0  0
    0.4490   -7.9450   46.2350 C   0  0  0  0  0  0  0  0  0  0  0  0
    4.9010   -1.4100   44.4870 C   0  0  0  0  0  0  0  0  0  0  0  0
    4.4050   -0.8340   43.3790 C   0  0  0  0  0  0  0  0  0  0  0  0
    3.8000   -1.5310   42.1920 C   0  0  0  0  0  0  0  0  0  0  0  0
    2.3340   -1.1590   41.9560 C   0  0  0  0  0  0  0  0  0  0  0  0
    1.3620   -2.2840   42.2860 C   0  0  0  0  0  0  0  0  0  0  0  0
  1 14  1  0
  1  2  1  0
  2  3  2  3
  3  4  1  0
  4  5  2  3
  4  6  1  0
  5  7  1  0
  7 11  2  0
  7 13  1  0
  8  9  1  0
  8 11  1  0
  8 10  2  0
 10 12  1  0
 12 13  2  0
 14 15  2  3
 15 16  1  0
 16 17  1  0
 17 18  1  0
M  END
>  <vina_dock>  (713) 
-6.812

$$$$
O14757_PocketFlow_idx-in-all-generaetd-256
     RDKit          3D

 35 37  0  0  0  0  0  0  0  0999 V2000
    4.7870   -3.4250   45.2020 C   0  0  0  0  0  0  0  0  0  0  0  0
    4.0780   -2.6560   44.2580 C   0  0  0  0  0  0  0  0  0  0  0  0
    4.6330   -1.4970   43.7080 C   0  0  0  0  0  0  0  0  0  0  0  0
    5.8910   -1.0640   44.1220 C   0  0  0  0  0  0  0  0  0  0  0  0
    6.5980   -1.8110   45.0660 C   0  0  0  0  0  0  0  0  0  0  0  0
    6.0670   -2.9960   45.6190 C   0  0  0  0  0  0  0  0  0  0  0  0
    4.0980   -4.6530   45.7580 C   0  0  0  0  0  0  0  0  0  0  0  0
    3.5800   -5.5590   44.6350 C   0  0  0  0  0  0  0  0  0  0  0  0
    2.4010   -6.4000   45.0720 C   0  0  0  0  0  0  0  0  0  0  0  0
    0.2720   -8.0870   45.9810 C   0  0  0  0  0  0  0  0  0  0  0  0
    1.6140   -8.4570   46.1350 C   0  0  0  0  0  0  0  0  0  0  0  0
    0.0220   -6.8570   45.3490 C   0  0  0  0  0  0  0  0  0  0  0  0
    2.6580   -7.6320   45.6900 C   0  0  0  0  0  0  0  0  0  0  0  0
    1.0610   -6.0160   44.8950 C   0  0  0  0  0  0  0  0  0  0  0  0
   -0.8160   -8.9170   46.4300 N   0  0  0  0  0  0  0  0  0  0  0  0
   -0.5260  -10.2330   46.9930 C   0  0  0  0  0  0  0  0  0  0  0  0
   -2.1550   -8.5520   46.3600 C   0  0  0  0  0  0  0  0  0  0  0  0
   -2.9910   -8.6910   47.2480 O   0  0  0  0  0  0  0  0  0  0  0  0
    0.6980   -4.7480   44.2050 C   0  0  0  0  0  0  0  0  0  0  0  0
    0.8970   -3.6160   44.6020 O   0  0  0  0  0  0  0  0  0  0  0  0
    0.0750   -4.9710   43.0340 O   0  0  0  0  0  0  0  0  0  0  0  0
    6.8890   -3.7120   46.6740 C   0  0  0  0  0  0  0  0  0  0  0  0
    8.2090   -4.0830   46.1590 N   0  0  0  0  0  0  0  0  0  0  0  0
    9.2630   -3.7300   47.1060 C   0  0  0  0  0  0  0  0  0  0  0  0
    9.8490   -2.3750   46.7390 C   0  0  0  0  0  0  0  0  0  0  0  0
    3.8320   -0.7050   42.7450 C   0  0  0  0  0  0  0  0  0  0  0  0
    4.2780    0.3780   42.3730 O   0  0  0  0  0  0  0  0  0  0  0  0
    2.5830   -1.1070   42.2210 N   0  0  0  0  0  0  0  0  0  0  0  0
    1.4350   -0.3310   42.2040 C   0  0  0  0  0  0  0  0  0  0  0  0
    2.2520   -2.3240   41.6560 C   0  0  0  0  0  0  0  0  0  0  0  0
    0.4060   -1.0230   41.5970 C   0  0  0  0  0  0  0  0  0  0  0  0
    0.9340   -2.2920   41.2550 C   0  0  0  0  0  0  0  0  0  0  0  0
   -0.9830   -0.5290   41.3460 C   0  0  0  0  0  0  0  0  0  0  0  0
   -1.9690   -1.6300   40.9490 C   0  0  0  0  0  0  0  0  0  0  0  0
   -3.3390   -1.0910   40.5520 C   0  0  0  0  0  0  0  0  0  0  0  0
  1  2  2  0
  1  6  1  0
  1  7  1  0
  2  3  1  0
  3 26  1  0
  3  4  2  0
  4  5  1  0
  5  6  2  0
  6 22  1  0
  7  8  1  0
  8  9  1  0
  9 14  2  0
  9 13  1  0
 10 12  2  0
 10 11  1  0
 10 15  1  0
 11 13  2  0
 12 14  1  0
 14 19  1  0
 15 17  1  0
 15 16  1  0
 17 18  2  0
 19 21  1  0
 19 20  2  0
 22 23  1  0
 23 24  1  0
 24 25  1  0
 26 28  1  0
 26 27  2  0
 28 30  1  0
 28 29  1  0
 29 31  2  0
 30 32  2  0
 31 32  1  0
 31 33  1  0
 33 34  1  0
 34 35  1  0
M  END
>  <vina_dock>  (714) 
-8.097

$$$$
O14757_PocketFlow_idx-in-all-generaetd-665
     RDKit          3D

 35 37  0  0  0  0  0  0  0  0999 V2000
    5.7750   -1.1000   43.6210 C   0  0  0  0  0  0  0  0  0  0  0  0
    6.4250   -1.3880   44.9690 C   0  0  0  0  0  0  0  0  0  0  0  0
    7.0090   -2.6980   45.0260 O   0  0  0  0  0  0  0  0  0  0  0  0
    6.5980   -3.4110   46.1290 C   0  0  0  0  0  0  0  0  0  0  0  0
    7.4600   -3.4760   47.2420 C   0  0  0  0  0  0  0  0  0  0  0  0
    7.0570   -4.1740   48.3860 C   0  0  0  0  0  0  0  0  0  0  0  0
    5.8170   -4.8090   48.4170 C   0  0  0  0  0  0  0  0  0  0  0  0
    5.3840   -4.1270   46.1150 C   0  0  0  0  0  0  0  0  0  0  0  0
    4.9890   -4.7870   47.2940 C   0  0  0  0  0  0  0  0  0  0  0  0
    8.7860   -2.8420   47.2420 C   0  0  0  0  0  0  0  0  0  0  0  0
    9.9380   -3.4330   46.8580 C   0  0  0  0  0  0  0  0  0  0  0  0
   10.0170   -4.8620   46.3810 C   0  0  0  0  0  0  0  0  0  0  0  0
   11.2250   -2.6210   46.8790 C   0  0  2  0  0  0  0  0  0  0  0  0
   11.7880   -2.2390   45.5040 C   0  0  0  0  0  0  0  0  0  0  0  0
   12.4120   -3.2960   47.5450 C   0  0  0  0  0  0  0  0  0  0  0  0
   13.2410   -2.0280   45.7000 N   0  0  0  0  0  0  0  0  0  0  0  0
   13.5220   -2.6190   46.8160 C   0  0  0  0  0  0  0  0  0  0  0  0
    4.5000   -4.1650   44.8830 C   0  0  0  0  0  0  0  0  0  0  0  0
    3.1440   -4.8200   45.0650 C   0  0  0  0  0  0  0  0  0  0  0  0
    2.9300   -6.1400   44.6420 C   0  0  0  0  0  0  0  0  0  0  0  0
    2.0920   -4.1210   45.6740 C   0  0  0  0  0  0  0  0  0  0  0  0
    1.6820   -6.7450   44.8100 C   0  0  0  0  0  0  0  0  0  0  0  0
    0.8430   -4.7250   45.8420 C   0  0  0  0  0  0  0  0  0  0  0  0
    0.6330   -6.0390   45.4070 C   0  0  0  0  0  0  0  0  0  0  0  0
   -0.7120   -6.6360   45.5970 C   0  0  0  0  0  0  0  0  0  0  0  0
   -1.1610   -7.5940   44.9960 O   0  0  0  0  0  0  0  0  0  0  0  0
   -1.4410   -5.9980   46.5310 O   0  0  0  0  0  0  0  0  0  0  0  0
    4.4580   -0.3370   43.7410 C   0  0  0  0  0  0  0  0  0  0  0  0
    4.0050    0.1730   42.4840 O   0  0  0  0  0  0  0  0  0  0  0  0
    2.6160    0.4850   42.4030 C   0  0  0  0  0  0  0  0  0  0  0  0
    1.8610   -0.3540   41.3680 C   0  0  0  0  0  0  0  0  0  0  0  0
    0.9080   -1.2310   41.9750 O   0  0  0  0  0  0  0  0  0  0  0  0
    1.4880   -2.4190   42.5140 C   0  0  0  0  0  0  0  0  0  0  0  0
    0.4770   -3.5470   42.3480 C   0  0  0  0  0  0  0  0  0  0  0  0
   -0.2960   -3.4280   41.0470 C   0  0  0  0  0  0  0  0  0  0  0  0
  1 28  1  0
  1  2  1  0
  2  3  1  0
  3  4  1  0
  4  8  2  0
  4  5  1  0
  5 10  1  0
  5  6  2  0
  6  7  1  0
  7  9  2  0
  8 18  1  0
  8  9  1  0
 10 11  2  3
 11 12  1  0
 11 13  1  0
 13 14  1  6
 13 15  1  0
 14 16  1  0
 15 17  1  0
 16 17  1  0
 18 19  1  0
 19 20  2  0
 19 21  1  0
 20 22  1  0
 21 23  2  0
 22 24  2  0
 23 24  1  0
 24 25  1  0
 25 26  2  0
 25 27  1  0
 28 29  1  0
 29 30  1  0
 30 31  1  0
 31 32  1  0
 32 33  1  0
 33 34  1  0
 34 35  1  0
M  END
>  <vina_dock>  (715) 
-7.01

$$$$
O14757_PocketFlow_idx-in-all-generaetd-324
     RDKit          3D

 20 22  0  0  0  0  0  0  0  0999 V2000
    6.5450   -2.0350   45.2140 C   0  0  0  0  0  0  0  0  0  0  0  0
    6.0610   -3.1890   45.8230 C   0  0  0  0  0  0  0  0  0  0  0  0
    5.7930   -1.4160   44.2120 C   0  0  0  0  0  0  0  0  0  0  0  0
    4.5550   -1.9440   43.8040 C   0  0  0  0  0  0  0  0  0  0  0  0
    3.8150   -1.3050   42.7950 C   0  0  0  0  0  0  0  0  0  0  0  0
    2.6010   -1.8200   42.3420 C   0  0  0  0  0  0  0  0  0  0  0  0
    2.0740   -2.9380   42.9820 C   0  0  0  0  0  0  0  0  0  0  0  0
    2.7820   -3.6130   43.9970 C   0  0  0  0  0  0  0  0  0  0  0  0
    4.0470   -3.1170   44.4150 C   0  0  0  0  0  0  0  0  0  0  0  0
    4.8290   -3.7200   45.4310 C   0  0  0  0  0  0  0  0  0  0  0  0
    7.8060   -1.4820   45.6130 C   0  0  0  0  0  0  0  0  0  0  0  0
    8.8270   -1.0350   45.9370 N   0  0  0  0  0  0  0  0  0  0  0  0
    2.1690   -4.8080   44.5900 C   0  0  0  0  0  0  0  0  0  0  0  0
    0.9840   -4.7350   45.3250 C   0  0  0  0  0  0  0  0  0  0  0  0
    2.7320   -6.0730   44.4370 C   0  0  0  0  0  0  0  0  0  0  0  0
    0.4330   -5.8970   45.8680 C   0  0  0  0  0  0  0  0  0  0  0  0
    2.2170   -7.2140   44.9590 N   0  0  0  0  0  0  0  0  0  0  0  0
    1.0820   -7.1060   45.6660 C   0  0  0  0  0  0  0  0  0  0  0  0
    0.5500   -8.2880   46.1730 N   0  0  0  0  0  0  0  0  0  0  0  0
    1.8280   -1.1010   41.4240 N   0  0  0  0  0  0  0  0  0  0  0  0
  1  3  2  0
  1 11  1  0
  1  2  1  0
  2 10  2  0
  3  4  1  0
  4  5  2  0
  4  9  1  0
  5  6  1  0
  6 20  1  0
  6  7  2  0
  7  8  1  0
  8  9  2  0
  8 13  1  0
  9 10  1  0
 11 12  3  0
 13 15  1  0
 13 14  2  0
 14 16  1  0
 15 17  2  0
 16 18  2  0
 17 18  1  0
 18 19  1  0
M  END
>  <vina_dock>  (716) 
-8.633

$$$$
O14757_PocketFlow_idx-in-all-generaetd-724
     RDKit          3D

 21 23  0  0  0  0  0  0  0  0999 V2000
    0.3590   -2.7280   41.3480 C   0  0  0  0  0  0  0  0  0  0  0  0
    0.3840   -3.4720   42.6770 C   0  0  0  0  0  0  0  0  0  0  0  0
    1.7230   -3.4010   43.3710 C   0  0  0  0  0  0  0  0  0  0  0  0
    2.6810   -2.4140   43.0700 C   0  0  0  0  0  0  0  0  0  0  0  0
    2.3900   -1.4030   41.9720 C   0  0  0  0  0  0  0  0  0  0  0  0
    0.9280   -1.3330   41.5340 C   0  0  0  0  0  0  0  0  0  0  0  0
    3.9270   -2.3930   43.7680 C   0  0  0  0  0  0  0  0  0  0  0  0
    4.9340   -1.4390   43.4960 C   0  0  0  0  0  0  0  0  0  0  0  0
    6.1390   -1.4000   44.2020 C   0  0  0  0  0  0  0  0  0  0  0  0
    4.1840   -3.3530   44.7870 C   0  0  0  0  0  0  0  0  0  0  0  0
    3.2110   -4.3490   45.0560 C   0  0  0  0  0  0  0  0  0  0  0  0
    1.9860   -4.3260   44.3840 C   0  0  0  0  0  0  0  0  0  0  0  0
    6.3990   -2.3240   45.2090 C   0  0  0  0  0  0  0  0  0  0  0  0
    5.4120   -3.2790   45.4950 C   0  0  0  0  0  0  0  0  0  0  0  0
    3.3160   -5.2610   46.1350 N   0  0  0  0  0  0  0  0  0  0  0  0
    7.6710   -2.2350   45.9440 C   0  0  0  0  0  0  0  0  0  0  0  0
    8.5880   -1.2680   45.7790 C   0  0  0  0  0  0  0  0  0  0  0  0
    7.8880   -3.1880   46.8840 F   0  0  0  0  0  0  0  0  0  0  0  0
    9.8230   -1.2080   46.5320 C   0  0  0  0  0  0  0  0  0  0  0  0
   10.9050   -1.9370   46.2220 C   0  0  0  0  0  0  0  0  0  0  0  0
   12.1870   -1.8840   46.9880 C   0  0  0  0  0  0  0  0  0  0  0  0
  1  6  1  0
  1  2  1  0
  2  3  1  0
  3  4  2  0
  3 12  1  0
  4  5  1  0
  4  7  1  0
  5  6  1  0
  7  8  2  0
  7 10  1  0
  8  9  1  0
  9 13  2  0
 10 11  1  0
 10 14  2  0
 11 12  2  0
 11 15  1  0
 13 14  1  0
 13 16  1  0
 16 17  2  3
 16 18  1  0
 17 19  1  0
 19 20  2  3
 20 21  1  0
M  END
>  <vina_dock>  (717) 
-9.54

$$$$
O14757_PocketFlow_idx-in-all-generaetd-0
     RDKit          3D

 35 40  0  0  0  0  0  0  0  0999 V2000
   13.0190   -0.4050   48.3150 C   0  0  0  0  0  0  0  0  0  0  0  0
   11.9470   -1.2550   47.9770 C   0  0  0  0  0  0  0  0  0  0  0  0
   11.7470   -1.6450   46.5340 C   0  0  2  0  0  0  0  0  0  0  0  0
   10.3680   -1.2830   46.0520 C   0  0  0  0  0  0  0  0  0  0  0  0
    9.2080   -1.6150   46.6440 C   0  0  0  0  0  0  0  0  0  0  0  0
    7.8610   -1.2600   46.0760 C   0  0  0  0  0  0  0  0  0  0  0  0
   13.1970   -0.0040   49.6350 C   0  0  0  0  0  0  0  0  0  0  0  0
   12.3900   -0.4000   50.6290 N   0  0  0  0  0  0  0  0  0  0  0  0
    6.8340   -2.3840   46.1170 C   0  0  0  0  0  0  0  0  0  0  0  0
    5.6800   -2.3730   45.2750 C   0  0  0  0  0  0  0  0  0  0  0  0
    4.7420   -3.4360   45.3600 C   0  0  0  0  0  0  0  0  0  0  0  0
    3.6230   -3.4200   44.4860 C   0  0  0  0  0  0  0  0  0  0  0  0
    3.3850   -2.3830   43.5710 C   0  0  0  0  0  0  0  0  0  0  0  0
    4.2950   -1.3350   43.5250 C   0  0  0  0  0  0  0  0  0  0  0  0
    5.4200   -1.3330   44.3540 C   0  0  0  0  0  0  0  0  0  0  0  0
    7.0090   -3.3950   47.0760 C   0  0  0  0  0  0  0  0  0  0  0  0
    6.0800   -4.4260   47.1530 C   0  0  0  0  0  0  0  0  0  0  0  0
    4.9480   -4.4630   46.3210 C   0  0  0  0  0  0  0  0  0  0  0  0
   11.0830   -1.6790   48.9940 C   0  0  0  0  0  0  0  0  0  0  0  0
   10.0060   -2.5620   48.8340 N   0  0  0  0  0  0  0  0  0  0  0  0
   11.3690   -1.2270   50.2870 C   0  0  0  0  0  0  0  0  0  0  0  0
    9.1680   -2.5230   47.8360 C   0  0  0  0  0  0  0  0  0  0  0  0
    8.1350   -3.4170   47.9070 N   0  0  0  0  0  0  0  0  0  0  0  0
   12.1190   -3.1070   46.2500 C   0  0  0  0  0  0  0  0  0  0  0  0
   14.2390    0.8610   49.9770 N   0  0  0  0  0  0  0  0  0  0  0  0
    3.9990   -5.6250   46.4970 C   0  0  2  0  0  0  0  0  0  0  0  0
    4.5120   -6.6140   47.2780 F   0  0  0  0  0  0  0  0  0  0  0  0
    3.7570   -6.1990   45.2230 O   0  0  0  0  0  0  0  0  0  0  0  0
    2.4500   -6.7510   45.1390 C   0  0  0  0  0  0  0  0  0  0  0  0
    2.2020   -2.3980   42.6950 C   0  0  0  0  0  0  0  0  0  0  0  0
    1.2160   -3.3890   42.8340 C   0  0  0  0  0  0  0  0  0  0  0  0
    2.0220   -1.4210   41.7020 C   0  0  0  0  0  0  0  0  0  0  0  0
    0.0900   -3.4070   42.0040 C   0  0  0  0  0  0  0  0  0  0  0  0
    0.8980   -1.4400   40.8690 C   0  0  0  0  0  0  0  0  0  0  0  0
   -0.0660   -2.4340   41.0190 C   0  0  0  0  0  0  0  0  0  0  0  0
  1  2  2  0
  1  7  1  0
  2  3  1  0
  2 19  1  0
  3  4  1  0
  3 24  1  1
  4  5  2  0
  5  6  1  0
  5 22  1  0
  6  9  1  0
  7 25  1  0
  7  8  2  0
  8 21  1  0
  9 10  2  0
  9 16  1  0
 10 15  1  0
 10 11  1  0
 11 12  1  0
 11 18  2  0
 12 13  2  0
 13 30  1  0
 13 14  1  0
 14 15  2  0
 16 17  2  0
 16 23  1  0
 17 18  1  0
 18 26  1  0
 19 20  1  0
 19 21  2  0
 20 22  2  0
 22 23  1  0
 26 28  1  0
 26 27  1  1
 28 29  1  0
 30 32  1  0
 30 31  2  0
 31 33  1  0
 32 34  2  0
 33 35  2  0
 34 35  1  0
M  END
>  <vina_dock>  (718) 
-9.497

$$$$
O14757_PocketFlow_idx-in-all-generaetd-718
     RDKit          3D

 35 39  0  0  0  0  0  0  0  0999 V2000
    0.5020   -3.9730   43.8160 N   0  0  0  0  0  0  0  0  0  0  0  0
    0.8770   -2.9920   42.9190 C   0  0  0  0  0  0  0  0  0  0  0  0
    5.1160   -1.2610   43.7150 C   0  0  0  0  0  0  0  0  0  0  0  0
    4.8810    0.0060   43.1660 C   0  0  0  0  0  0  0  0  0  0  0  0
    4.1840   -2.2800   43.4830 C   0  0  0  0  0  0  0  0  0  0  0  0
    3.7400    0.2470   42.3930 C   0  0  0  0  0  0  0  0  0  0  0  0
    3.0310   -2.0300   42.7290 C   0  0  0  0  0  0  0  0  0  0  0  0
    2.7980   -0.7670   42.1680 C   0  0  0  0  0  0  0  0  0  0  0  0
    2.2060   -3.1130   42.5140 O   0  0  0  0  0  0  0  0  0  0  0  0
    1.6470   -0.4740   41.3050 C   0  0  0  0  0  0  0  0  0  0  0  0
    0.4480   -1.0650   41.4060 C   0  0  0  0  0  0  0  0  0  0  0  0
    0.0720   -2.0440   42.4000 C   0  0  0  0  0  0  0  0  0  0  0  0
    6.3520   -1.5230   44.5440 C   0  0  0  0  0  0  0  0  0  0  0  0
    6.1310   -2.4990   45.6760 C   0  0  0  0  0  0  0  0  0  0  0  0
    7.0310   -4.0630   47.3280 C   0  0  0  0  0  0  0  0  0  0  0  0
    7.2200   -3.1580   46.2720 C   0  0  0  0  0  0  0  0  0  0  0  0
    5.7290   -4.3050   47.7830 C   0  0  0  0  0  0  0  0  0  0  0  0
    4.6400   -3.6550   47.2000 C   0  0  0  0  0  0  0  0  0  0  0  0
    4.8400   -2.7560   46.1530 C   0  0  0  0  0  0  0  0  0  0  0  0
    8.1680   -4.7390   47.9500 C   0  0  0  0  0  0  0  0  0  0  0  0
    9.2550   -5.1820   47.2210 N   0  0  0  0  0  0  0  0  0  0  0  0
    8.2670   -4.9930   49.2670 N   0  0  0  0  0  0  0  0  0  0  0  0
   10.0360   -5.7200   48.1240 C   0  0  0  0  0  0  0  0  0  0  0  0
    9.4540   -5.6120   49.3440 N   0  0  0  0  0  0  0  0  0  0  0  0
    0.9040   -4.2370   45.0950 C   0  0  0  0  0  0  0  0  0  0  0  0
    1.2240   -5.4160   45.6460 C   0  0  0  0  0  0  0  0  0  0  0  0
    1.2420   -6.7550   44.9690 C   0  0  0  0  0  0  0  0  0  0  0  0
    0.0470   -7.6000   45.3420 C   0  0  0  0  0  0  0  0  0  0  0  0
   -1.1380   -7.5360   44.5950 C   0  0  0  0  0  0  0  0  0  0  0  0
    0.1170   -8.4830   46.4290 C   0  0  0  0  0  0  0  0  0  0  0  0
   -2.2340   -8.3390   44.9350 C   0  0  0  0  0  0  0  0  0  0  0  0
   -0.9790   -9.2750   46.7740 C   0  0  0  0  0  0  0  0  0  0  0  0
   -2.1570   -9.2030   46.0290 C   0  0  0  0  0  0  0  0  0  0  0  0
   -3.4530   -8.2200   44.1090 C   0  0  0  0  0  0  0  0  0  0  0  0
   -3.4920   -7.8660   42.8660 N   0  0  0  0  0  0  0  0  0  0  0  0
  1  2  1  0
  1 25  1  0
  2 12  2  0
  2  9  1  0
  3  4  2  0
  3  5  1  0
  3 13  1  0
  4  6  1  0
  5  7  2  0
  6  8  2  0
  7  8  1  0
  7  9  1  0
  8 10  1  0
 10 11  2  0
 11 12  1  0
 13 14  1  0
 14 19  1  0
 14 16  2  0
 15 16  1  0
 15 17  2  0
 15 20  1  0
 17 18  1  0
 18 19  2  0
 20 21  2  0
 20 22  1  0
 21 23  1  0
 22 24  1  0
 23 24  1  0
 25 26  2  3
 26 27  1  0
 27 28  1  0
 28 29  2  0
 28 30  1  0
 29 31  1  0
 30 32  2  0
 31 34  1  0
 31 33  2  0
 32 33  1  0
 34 35  2  3
M  END
>  <vina_dock>  (719) 
-10.538

$$$$
O14757_PocketFlow_idx-in-all-generaetd-949
     RDKit          3D

  5  4  0  0  0  0  0  0  0  0999 V2000
    6.6040   -1.3560   44.2200 F   0  0  0  0  0  0  0  0  0  0  0  0
    5.3290   -1.1380   43.8570 C   0  0  0  0  0  0  0  0  0  0  0  0
    4.8900   -2.1740   43.1220 F   0  0  0  0  0  0  0  0  0  0  0  0
    5.2570   -0.0110   43.1310 F   0  0  0  0  0  0  0  0  0  0  0  0
    4.5650   -1.0130   44.9540 F   0  0  0  0  0  0  0  0  0  0  0  0
  1  2  1  0
  2  3  1  0
  2  4  1  0
  2  5  1  0
M  END
>  <vina_dock>  (720) 
-2.984

$$$$
O14757_PocketFlow_idx-in-all-generaetd-236
     RDKit          3D

 24 24  0  0  0  0  0  0  0  0999 V2000
    2.2820   -5.0650   44.9670 C   0  0  0  0  0  0  0  0  0  0  0  0
    1.7170   -6.2950   44.9930 C   0  0  0  0  0  0  0  0  0  0  0  0
    3.7480   -4.8830   45.3430 C   0  0  1  0  0  0  0  0  0  0  0  0
    4.4990   -4.7920   44.1990 F   0  0  0  0  0  0  0  0  0  0  0  0
    4.0610   -3.6270   46.1720 C   0  0  0  0  0  0  0  0  0  0  0  0
    5.4610   -3.0810   46.0210 C   0  0  0  0  0  0  0  0  0  0  0  0
    6.5200   -3.6910   46.7130 C   0  0  0  0  0  0  0  0  0  0  0  0
    5.7460   -1.9940   45.1780 C   0  0  0  0  0  0  0  0  0  0  0  0
    7.8280   -3.2230   46.5680 C   0  0  0  0  0  0  0  0  0  0  0  0
    7.0540   -1.5100   45.0560 C   0  0  0  0  0  0  0  0  0  0  0  0
    8.0940   -2.1330   45.7430 C   0  0  0  0  0  0  0  0  0  0  0  0
    4.7130   -1.3720   44.5200 O   0  0  0  0  0  0  0  0  0  0  0  0
    4.7190   -1.6220   42.8510 Cl  0  0  0  0  0  0  0  0  0  0  0  0
    1.5230   -3.7940   44.6430 C   0  0  0  0  0  0  0  0  0  0  0  0
    1.6810   -3.3870   43.1730 C   0  0  0  0  0  0  0  0  0  0  0  0
    0.3400   -3.1320   42.4860 C   0  0  0  0  0  0  0  0  0  0  0  0
    0.2400   -1.7930   41.9470 N   0  0  0  0  0  0  0  0  0  0  0  0
    1.2700   -1.1660   41.3120 C   0  0  0  0  0  0  0  0  0  0  0  0
    1.7480   -0.0800   41.5940 O   0  0  0  0  0  0  0  0  0  0  0  0
    1.8010   -1.8210   40.2710 F   0  0  0  0  0  0  0  0  0  0  0  0
    0.3080   -6.7250   44.7580 C   0  0  0  0  0  0  0  0  0  0  0  0
   -0.1340   -6.5210   43.4950 F   0  0  0  0  0  0  0  0  0  0  0  0
    0.1490   -8.0440   45.0280 F   0  0  0  0  0  0  0  0  0  0  0  0
   -0.5410   -6.0530   45.5770 F   0  0  0  0  0  0  0  0  0  0  0  0
  1 14  1  0
  1  2  2  3
  1  3  1  0
  2 21  1  0
  3  4  1  6
  3  5  1  0
  5  6  1  0
  6  8  2  0
  6  7  1  0
  7  9  2  0
  8 12  1  0
  8 10  1  0
  9 11  1  0
 10 11  2  0
 12 13  1  0
 14 15  1  0
 15 16  1  0
 16 17  1  0
 17 18  1  0
 18 20  1  0
 18 19  2  0
 21 22  1  0
 21 23  1  0
 21 24  1  0
M  END
>  <vina_dock>  (721) 
-7.525

$$$$
O14757_PocketFlow_idx-in-all-generaetd-378
     RDKit          3D

 11 11  0  0  0  0  0  0  0  0999 V2000
    1.2540   -3.4830   43.4120 C   0  0  0  0  0  0  0  0  0  0  0  0
    2.5810   -3.4740   43.8620 C   0  0  0  0  0  0  0  0  0  0  0  0
    3.5020   -2.5440   43.3720 C   0  0  0  0  0  0  0  0  0  0  0  0
    0.8830   -2.6130   42.3850 C   0  0  0  0  0  0  0  0  0  0  0  0
    3.0940   -1.6460   42.3800 C   0  0  0  0  0  0  0  0  0  0  0  0
    1.7920   -1.6840   41.8820 C   0  0  0  0  0  0  0  0  0  0  0  0
    0.3750   -4.4940   43.8270 N   0  0  0  0  0  0  0  0  0  0  0  0
    4.8440   -2.4590   43.8040 N   0  0  0  0  0  0  0  0  0  0  0  0
    5.3270   -1.8280   44.9360 C   0  0  0  0  0  0  0  0  0  0  0  0
    6.8230   -1.9660   45.0710 C   0  0  0  0  0  0  0  0  0  0  0  0
    4.6830   -1.1880   45.7590 O   0  0  0  0  0  0  0  0  0  0  0  0
  1  4  2  0
  1  7  1  0
  1  2  1  0
  2  3  2  0
  3  5  1  0
  3  8  1  0
  4  6  1  0
  5  6  2  0
  8  9  1  0
  9 10  1  0
  9 11  2  0
M  END
>  <vina_dock>  (722) 
-5.669

$$$$
O14757_PocketFlow_idx-in-all-generaetd-914
     RDKit          3D

  6  6  0  0  0  0  0  0  0  0999 V2000
    3.4470   -2.2450   43.1340 C   0  0  0  0  0  0  0  0  0  0  0  0
    4.0610   -1.0320   42.8210 C   0  0  0  0  0  0  0  0  0  0  0  0
    5.2610   -0.6780   43.4380 C   0  0  0  0  0  0  0  0  0  0  0  0
    5.8460   -1.5370   44.3690 C   0  0  0  0  0  0  0  0  0  0  0  0
    4.0320   -3.1030   44.0650 C   0  0  0  0  0  0  0  0  0  0  0  0
    5.2310   -2.7500   44.6820 C   0  0  0  0  0  0  0  0  0  0  0  0
  1  2  2  0
  1  5  1  0
  2  3  1  0
  3  4  2  0
  4  6  1  0
  5  6  2  0
M  END
>  <vina_dock>  (723) 
-3.983

$$$$
O14757_PocketFlow_idx-in-all-generaetd-74
     RDKit          3D

 35 38  0  0  0  0  0  0  0  0999 V2000
   -0.2160   -2.0290   41.7730 C   0  0  0  0  0  0  0  0  0  0  0  0
    0.7640   -1.1070   41.4160 C   0  0  0  0  0  0  0  0  0  0  0  0
    2.0840   -1.2770   41.8350 C   0  0  0  0  0  0  0  0  0  0  0  0
    2.4540   -2.3770   42.6260 C   0  0  0  0  0  0  0  0  0  0  0  0
    1.4660   -3.3220   42.9970 C   0  0  0  0  0  0  0  0  0  0  0  0
    0.1380   -3.1270   42.5580 C   0  0  0  0  0  0  0  0  0  0  0  0
   -1.4660   -1.7460   41.2980 O   0  0  0  0  0  0  0  0  0  0  0  0
   -1.8570   -0.3700   41.2640 C   0  0  0  0  0  0  0  0  0  0  0  0
   -3.3630   -0.2690   40.9360 C   0  0  2  0  0  0  0  0  0  0  0  0
   -3.7610   -1.2360   39.8200 C   0  0  0  0  0  0  0  0  0  0  0  0
   -3.7460    1.0930   40.5330 N   0  0  0  0  0  0  0  0  0  0  0  0
    1.7580   -4.5030   43.8280 C   0  0  0  0  0  0  0  0  0  0  0  0
    3.0750   -4.7820   44.2330 C   0  0  0  0  0  0  0  0  0  0  0  0
    0.7350   -5.3660   44.2510 C   0  0  0  0  0  0  0  0  0  0  0  0
    3.3650   -5.9010   45.0170 C   0  0  0  0  0  0  0  0  0  0  0  0
    1.0220   -6.4880   45.0300 C   0  0  0  0  0  0  0  0  0  0  0  0
    2.3330   -6.7490   45.4050 C   0  0  0  0  0  0  0  0  0  0  0  0
    2.5720   -7.8600   46.1570 O   0  0  0  0  0  0  0  0  0  0  0  0
    3.9050   -2.4950   43.0570 C   0  0  0  0  0  0  0  0  0  0  0  0
    4.3980   -1.3340   43.9480 C   0  0  2  0  0  0  0  0  0  0  0  0
    4.8660   -0.1320   43.1180 C   0  0  0  0  0  0  0  0  0  0  0  0
    5.4620   -1.8520   44.9060 C   0  0  0  0  0  0  0  0  0  0  0  0
    5.0890   -2.7720   45.9000 C   0  0  0  0  0  0  0  0  0  0  0  0
    6.8070   -1.4950   44.8100 C   0  0  0  0  0  0  0  0  0  0  0  0
    6.0230   -3.3220   46.7940 C   0  0  0  0  0  0  0  0  0  0  0  0
    7.7490   -2.0280   45.6980 C   0  0  0  0  0  0  0  0  0  0  0  0
    7.3850   -2.9460   46.7110 C   0  0  0  0  0  0  0  0  0  0  0  0
    5.6050   -4.2490   47.7640 C   0  0  0  0  0  0  0  0  0  0  0  0
    8.2920   -3.5350   47.6320 C   0  0  0  0  0  0  0  0  0  0  0  0
    6.5100   -4.8100   48.6630 C   0  0  0  0  0  0  0  0  0  0  0  0
    7.8520   -4.4530   48.6000 C   0  0  0  0  0  0  0  0  0  0  0  0
    9.7420   -3.2030   47.6170 C   0  0  0  0  0  0  0  0  0  0  0  0
   10.1960   -2.3060   48.3140 O   0  0  0  0  0  0  0  0  0  0  0  0
   10.5010   -3.9730   46.7580 N   0  0  0  0  0  0  0  0  0  0  0  0
   11.8970   -3.6850   46.5480 C   0  0  0  0  0  0  0  0  0  0  0  0
  1  7  1  0
  1  2  2  0
  1  6  1  0
  2  3  1  0
  3  4  2  0
  4  5  1  0
  4 19  1  0
  5  6  2  0
  5 12  1  0
  7  8  1  0
  8  9  1  0
  9 10  1  6
  9 11  1  0
 12 13  2  0
 12 14  1  0
 13 15  1  0
 14 16  2  0
 15 17  2  0
 16 17  1  0
 17 18  1  0
 19 20  1  0
 20 21  1  6
 20 22  1  0
 22 24  1  0
 22 23  2  0
 23 25  1  0
 24 26  2  0
 25 27  2  0
 25 28  1  0
 26 27  1  0
 27 29  1  0
 28 30  2  0
 29 32  1  0
 29 31  2  0
 30 31  1  0
 32 34  1  0
 32 33  2  0
 34 35  1  0
M  END
>  <vina_dock>  (724) 
-9.893

$$$$
O14757_PocketFlow_idx-in-all-generaetd-97
     RDKit          3D

 11 11  0  0  0  0  0  0  0  0999 V2000
    3.2800   -2.5990   43.3920 C   0  0  0  0  0  0  0  0  0  0  0  0
    2.0460   -2.5530   42.7120 C   0  0  0  0  0  0  0  0  0  0  0  0
    0.9480   -3.2660   43.2170 C   0  0  0  0  0  0  0  0  0  0  0  0
    1.0670   -4.0260   44.3810 C   0  0  0  0  0  0  0  0  0  0  0  0
    2.2840   -4.0820   45.0510 C   0  0  0  0  0  0  0  0  0  0  0  0
    3.3830   -3.3780   44.5590 C   0  0  0  0  0  0  0  0  0  0  0  0
    4.5150   -1.8860   42.8920 C   0  0  0  0  0  0  0  0  0  0  0  0
    4.6290   -0.4980   43.4640 C   0  0  0  0  0  0  0  0  0  0  0  0
    4.2830    0.5130   42.8570 O   0  0  0  0  0  0  0  0  0  0  0  0
    1.8440   -1.7860   41.4800 C   0  0  0  0  0  0  0  0  0  0  0  0
    1.1590   -0.6360   41.4670 C   0  0  0  0  0  0  0  0  0  0  0  0
  1  2  2  0
  1  7  1  0
  1  6  1  0
  2 10  1  0
  2  3  1  0
  3  4  2  0
  4  5  1  0
  5  6  2  0
  7  8  1  0
  8  9  2  0
 10 11  2  0
M  END
>  <vina_dock>  (725) 
-6.086

$$$$
O14757_PocketFlow_idx-in-all-generaetd-322
     RDKit          3D

 35 38  0  0  0  0  0  0  0  0999 V2000
    4.7580   -4.5490   46.0680 C   0  0  0  0  0  0  0  0  0  0  0  0
    3.4110   -4.1440   46.3480 O   0  0  0  0  0  0  0  0  0  0  0  0
    2.4360   -4.4500   45.4390 C   0  0  0  0  0  0  0  0  0  0  0  0
    0.9590   -6.2400   44.6510 C   0  0  0  0  0  0  0  0  0  0  0  0
    0.4440   -5.3590   43.6960 C   0  0  0  0  0  0  0  0  0  0  0  0
    1.9380   -5.7570   45.5330 C   0  0  0  0  0  0  0  0  0  0  0  0
    0.9430   -4.0600   43.5930 C   0  0  0  0  0  0  0  0  0  0  0  0
    0.3130   -2.9990   42.3900 Cl  0  0  0  0  0  0  0  0  0  0  0  0
    1.9410   -3.6050   44.4520 C   0  0  0  0  0  0  0  0  0  0  0  0
    0.4500   -7.5460   44.8390 N   0  0  0  0  0  0  0  0  0  0  0  0
   -0.8630   -7.9270   45.2290 C   0  0  0  0  0  0  0  0  0  0  0  0
    0.7910   -9.3340   49.9620 Cl  0  0  0  0  0  0  0  0  0  0  0  0
   -0.3930   -9.1370   48.7400 C   0  0  0  0  0  0  0  0  0  0  0  0
   -0.0650   -8.6000   47.5070 C   0  0  0  0  0  0  0  0  0  0  0  0
   -1.7040   -9.5050   48.9450 C   0  0  0  0  0  0  0  0  0  0  0  0
   -1.0670   -8.4520   46.5160 C   0  0  0  0  0  0  0  0  0  0  0  0
   -2.6790   -9.3640   48.0140 N   0  0  0  0  0  0  0  0  0  0  0  0
   -2.3760   -8.8420   46.8220 C   0  0  0  0  0  0  0  0  0  0  0  0
   -3.3670   -8.7150   45.9560 N   0  0  0  0  0  0  0  0  0  0  0  0
   -1.8740   -7.7870   44.3590 N   0  0  0  0  0  0  0  0  0  0  0  0
   -3.0780   -8.1890   44.7670 C   0  0  0  0  0  0  0  0  0  0  0  0
    5.7070   -3.4000   45.7790 C   0  0  0  0  0  0  0  0  0  0  0  0
    6.8990   -3.2340   46.5190 C   0  0  0  0  0  0  0  0  0  0  0  0
    5.4440   -2.5060   44.7250 C   0  0  0  0  0  0  0  0  0  0  0  0
    7.7660   -2.1690   46.2200 C   0  0  0  0  0  0  0  0  0  0  0  0
    6.3140   -1.4530   44.4360 C   0  0  0  0  0  0  0  0  0  0  0  0
    7.4730   -1.2830   45.1860 C   0  0  0  0  0  0  0  0  0  0  0  0
    7.2910   -4.1480   47.6170 C   0  0  0  0  0  0  0  0  0  0  0  0
    8.4250   -4.8790   47.5700 C   0  0  0  0  0  0  0  0  0  0  0  0
    6.2980   -4.1750   48.7610 C   0  0  0  0  0  0  0  0  0  0  0  0
    6.8500   -3.7880   50.0570 N   0  0  0  0  0  0  0  0  0  0  0  0
    9.3940   -4.9090   46.4900 C   0  0  0  0  0  0  0  0  0  0  0  0
   10.6180   -4.3530   46.4780 C   0  0  0  0  0  0  0  0  0  0  0  0
   11.2510   -3.5930   47.5300 C   0  0  0  0  0  0  0  0  0  0  0  0
   11.1600   -2.2590   47.6130 C   0  0  0  0  0  0  0  0  0  0  0  0
  1 22  1  0
  1  2  1  0
  2  3  1  0
  3  9  1  0
  3  6  2  0
  4  5  2  0
  4 10  1  0
  4  6  1  0
  5  7  1  0
  7  8  1  0
  7  9  2  0
 10 11  1  0
 11 20  1  0
 11 16  2  0
 12 13  1  0
 13 14  2  0
 13 15  1  0
 14 16  1  0
 15 17  2  0
 16 18  1  0
 17 18  1  0
 18 19  2  0
 19 21  1  0
 20 21  2  0
 22 24  1  0
 22 23  2  0
 23 25  1  0
 23 28  1  0
 24 26  2  0
 25 27  2  0
 26 27  1  0
 28 29  2  3
 28 30  1  0
 29 32  1  0
 30 31  1  0
 32 33  2  3
 33 34  1  0
 34 35  2  0
M  END
>  <vina_dock>  (726) 
-8.462

$$$$
O14757_PocketFlow_idx-in-all-generaetd-29
     RDKit          3D

 32 37  0  0  0  0  0  0  0  0999 V2000
    3.5990   -2.8570   44.0240 C   0  0  0  0  0  0  0  0  0  0  0  0
    3.1100   -2.0970   42.9510 C   0  0  0  0  0  0  0  0  0  0  0  0
    1.8470   -2.3460   42.4150 C   0  0  0  0  0  0  0  0  0  0  0  0
    2.7780   -3.8760   44.5420 C   0  0  0  0  0  0  0  0  0  0  0  0
    1.5010   -4.1440   44.0180 C   0  0  0  0  0  0  0  0  0  0  0  0
    1.0500   -3.3610   42.9440 C   0  0  0  0  0  0  0  0  0  0  0  0
    4.9320   -2.5980   44.5910 C   0  0  0  0  0  0  0  0  0  0  0  0
   11.9400   -2.6860   50.0670 C   0  0  0  0  0  0  0  0  0  0  0  0
   10.8490   -3.0950   49.2750 C   0  0  0  0  0  0  0  0  0  0  0  0
   12.5710   -1.4830   49.8130 C   0  0  0  0  0  0  0  0  0  0  0  0
   10.1710   -4.3150   49.5180 C   0  0  0  0  0  0  0  0  0  0  0  0
   10.4260   -2.2540   48.2100 C   0  0  0  0  0  0  0  0  0  0  0  0
   12.2010   -0.6530   48.8310 N   0  0  0  0  0  0  0  0  0  0  0  0
   10.5800   -5.2510   50.6290 C   0  0  0  0  0  0  0  0  0  0  0  0
    9.0800   -4.6790   48.7180 C   0  0  0  0  0  0  0  0  0  0  0  0
   11.1540   -1.0520   48.0640 C   0  0  0  0  0  0  0  0  0  0  0  0
    9.3190   -2.6630   47.4000 C   0  0  0  0  0  0  0  0  0  0  0  0
    8.6390   -3.8620   47.6710 C   0  0  0  0  0  0  0  0  0  0  0  0
    8.8330   -1.8470   46.2440 C   0  0  0  0  0  0  0  0  0  0  0  0
    7.4780   -4.3490   46.8390 C   0  0  0  0  0  0  0  0  0  0  0  0
    7.4890   -2.1140   45.6790 C   0  0  0  0  0  0  0  0  0  0  0  0
    9.5100   -0.9610   45.7350 O   0  0  0  0  0  0  0  0  0  0  0  0
    6.8230   -3.2980   45.9920 C   0  0  0  0  0  0  0  0  0  0  0  0
    6.8950   -1.1760   44.8290 C   0  0  0  0  0  0  0  0  0  0  0  0
    5.5510   -3.5330   45.4400 C   0  0  0  0  0  0  0  0  0  0  0  0
    5.6270   -1.4160   44.2940 C   0  0  0  0  0  0  0  0  0  0  0  0
    0.6600   -5.2150   44.5800 C   0  0  0  0  0  0  0  0  0  0  0  0
    0.0750   -6.1880   43.7500 C   0  0  0  0  0  0  0  0  0  0  0  0
    0.4190   -5.2970   45.9610 C   0  0  0  0  0  0  0  0  0  0  0  0
   -0.7210   -7.2040   44.2830 C   0  0  0  0  0  0  0  0  0  0  0  0
   -0.3780   -6.3130   46.4960 C   0  0  0  0  0  0  0  0  0  0  0  0
   -0.9470   -7.2660   45.6560 C   0  0  0  0  0  0  0  0  0  0  0  0
  1  2  2  0
  1  4  1  0
  1  7  1  0
  2  3  1  0
  3  6  2  0
  4  5  2  0
  5  6  1  0
  5 27  1  0
  7 26  2  0
  7 25  1  0
  8  9  2  0
  8 10  1  0
  9 12  1  0
  9 11  1  0
 10 13  2  0
 11 15  2  0
 11 14  1  0
 12 17  1  0
 12 16  2  0
 13 16  1  0
 15 18  1  0
 17 19  1  0
 17 18  2  0
 18 20  1  0
 19 21  1  0
 19 22  2  0
 20 23  1  0
 21 24  2  0
 21 23  1  0
 23 25  2  0
 24 26  1  0
 27 28  2  0
 27 29  1  0
 28 30  1  0
 29 31  2  0
 30 32  2  0
 31 32  1  0
M  END
>  <vina_dock>  (727) 
-10.854

$$$$
O14757_PocketFlow_idx-in-all-generaetd-879
     RDKit          3D

 18 19  0  0  0  0  0  0  0  0999 V2000
    2.9610   -1.6000   42.4060 C   0  0  0  0  0  0  0  0  0  0  0  0
    3.7990   -0.4820   42.4930 C   0  0  0  0  0  0  0  0  0  0  0  0
    4.7990   -0.4240   43.4630 C   0  0  0  0  0  0  0  0  0  0  0  0
    4.9750   -1.4850   44.3510 C   0  0  0  0  0  0  0  0  0  0  0  0
    4.1550   -2.6180   44.2760 C   0  0  0  0  0  0  0  0  0  0  0  0
    3.1520   -2.6670   43.2950 C   0  0  0  0  0  0  0  0  0  0  0  0
    1.8910   -1.6710   41.3470 C   0  0  0  0  0  0  0  0  0  0  0  0
    0.5110   -1.8140   41.9290 C   0  0  0  0  0  0  0  0  0  0  0  0
   -0.0040   -2.8450   42.3290 O   0  0  0  0  0  0  0  0  0  0  0  0
   -0.1560   -0.6430   42.0040 O   0  0  0  0  0  0  0  0  0  0  0  0
    4.3460   -3.7700   45.2360 C   0  0  0  0  0  0  0  0  0  0  0  0
    3.2320   -4.7710   45.2160 C   0  0  0  0  0  0  0  0  0  0  0  0
    2.0000   -4.5360   45.7890 C   0  0  0  0  0  0  0  0  0  0  0  0
    3.3620   -6.0160   44.6380 C   0  0  0  0  0  0  0  0  0  0  0  0
    0.9930   -5.4320   45.7990 N   0  0  0  0  0  0  0  0  0  0  0  0
    2.3830   -6.9420   44.6190 N   0  0  0  0  0  0  0  0  0  0  0  0
    1.2380   -6.6100   45.2210 C   0  0  0  0  0  0  0  0  0  0  0  0
    0.2150   -7.5350   45.2000 N   0  0  0  0  0  0  0  0  0  0  0  0
  1  7  1  0
  1  2  2  0
  1  6  1  0
  2  3  1  0
  3  4  2  0
  4  5  1  0
  5  6  2  0
  5 11  1  0
  7  8  1  0
  8 10  1  0
  8  9  2  0
 11 12  1  0
 12 14  1  0
 12 13  2  0
 13 15  1  0
 14 16  2  0
 15 17  2  0
 16 17  1  0
 17 18  1  0
M  END
>  <vina_dock>  (728) 
-7.242

$$$$
O14757_PocketFlow_idx-in-all-generaetd-443
     RDKit          3D

 35 37  0  0  0  0  0  0  0  0999 V2000
    1.2400   -4.9240   45.6550 C   0  0  0  0  0  0  0  0  0  0  0  0
    2.5580   -4.5050   45.8720 C   0  0  0  0  0  0  0  0  0  0  0  0
    3.2180   -3.6480   44.9740 C   0  0  0  0  0  0  0  0  0  0  0  0
    2.5440   -3.2200   43.8240 C   0  0  0  0  0  0  0  0  0  0  0  0
    1.2420   -3.6550   43.5570 C   0  0  0  0  0  0  0  0  0  0  0  0
    0.6140   -4.5180   44.4670 C   0  0  0  0  0  0  0  0  0  0  0  0
    0.5650   -5.8390   46.4810 N   0  0  0  0  0  0  0  0  0  0  0  0
   -0.4150   -6.7430   45.8780 C   0  0  0  0  0  0  0  0  0  0  0  0
   -0.1360   -8.1880   46.2790 C   0  0  0  0  0  0  0  0  0  0  0  0
    1.3360   -8.4730   46.3100 C   0  0  0  0  0  0  0  0  0  0  0  0
    2.1420   -8.2740   45.4160 O   0  0  0  0  0  0  0  0  0  0  0  0
    1.7420   -8.9560   47.5010 O   0  0  0  0  0  0  0  0  0  0  0  0
    4.5980   -3.2130   45.2360 C   0  0  0  0  0  0  0  0  0  0  0  0
    5.3000   -3.8360   46.2910 C   0  0  0  0  0  0  0  0  0  0  0  0
    5.2410   -2.2040   44.4830 C   0  0  0  0  0  0  0  0  0  0  0  0
    6.6170   -3.4860   46.6240 C   0  0  0  0  0  0  0  0  0  0  0  0
    6.5590   -1.8480   44.8250 C   0  0  0  0  0  0  0  0  0  0  0  0
    7.2330   -2.4790   45.8740 C   0  0  0  0  0  0  0  0  0  0  0  0
    4.5470   -1.4900   43.3250 C   0  0  0  0  0  0  0  0  0  0  0  0
    4.4540    0.0160   43.5830 C   0  0  0  0  0  0  0  0  0  0  0  0
    5.2330   -1.7740   41.9840 C   0  0  0  0  0  0  0  0  0  0  0  0
    7.3270   -4.1550   47.7270 C   0  0  0  0  0  0  0  0  0  0  0  0
    8.6170   -3.7560   48.1030 C   0  0  0  0  0  0  0  0  0  0  0  0
    6.7320   -5.2180   48.4320 C   0  0  0  0  0  0  0  0  0  0  0  0
    9.2830   -4.3940   49.1480 C   0  0  0  0  0  0  0  0  0  0  0  0
    7.3840   -5.8730   49.4920 C   0  0  0  0  0  0  0  0  0  0  0  0
    8.6700   -5.4470   49.8310 C   0  0  0  0  0  0  0  0  0  0  0  0
    6.7340   -6.9560   50.1140 N   0  0  0  0  0  0  0  0  0  0  0  0
    5.4900   -7.4890   49.9050 C   0  0  0  0  0  0  0  0  0  0  0  0
    5.0740   -8.4410   49.0660 C   0  0  0  0  0  0  0  0  0  0  0  0
    0.5440   -3.2410   42.2860 C   0  0  0  0  0  0  0  0  0  0  0  0
    1.3920   -2.2650   41.4770 C   0  0  0  0  0  0  0  0  0  0  0  0
    0.8140   -0.8790   41.5270 C   0  0  0  0  0  0  0  0  0  0  0  0
   -0.3520   -0.5660   41.6890 O   0  0  0  0  0  0  0  0  0  0  0  0
    1.7600    0.0670   41.3640 O   0  0  0  0  0  0  0  0  0  0  0  0
  1  6  2  0
  1  2  1  0
  1  7  1  0
  2  3  2  0
  3  4  1  0
  3 13  1  0
  4  5  2  0
  5 31  1  0
  5  6  1  0
  7  8  1  0
  8  9  1  0
  9 10  1  0
 10 11  2  0
 10 12  1  0
 13 15  1  0
 13 14  2  0
 14 16  1  0
 15 19  1  0
 15 17  2  0
 16 18  2  0
 16 22  1  0
 17 18  1  0
 19 21  1  0
 19 20  1  0
 22 23  2  0
 22 24  1  0
 23 25  1  0
 24 26  2  0
 25 27  2  0
 26 27  1  0
 26 28  1  0
 28 29  1  0
 29 30  2  0
 31 32  1  0
 32 33  1  0
 33 35  1  0
 33 34  2  0
M  END
>  <vina_dock>  (729) 
-8.343

$$$$
O14757_PocketFlow_idx-in-all-generaetd-673
     RDKit          3D

 17 17  0  0  0  0  0  0  0  0999 V2000
    4.0150   -4.1570   46.4340 C   0  0  0  0  0  0  0  0  0  0  0  0
    3.7290   -5.2180   45.4030 C   0  0  0  0  0  0  0  0  0  0  0  0
    2.6260   -5.3510   44.6470 C   0  0  0  0  0  0  0  0  0  0  0  0
    1.3810   -4.5020   44.6440 C   0  0  2  0  0  0  0  0  0  0  0  0
    0.3020   -5.3390   44.7590 F   0  0  0  0  0  0  0  0  0  0  0  0
    1.2940   -3.6400   43.4010 C   0  0  0  0  0  0  0  0  0  0  0  0
    2.2500   -2.6410   43.1560 C   0  0  0  0  0  0  0  0  0  0  0  0
    0.2680   -3.8380   42.4650 C   0  0  0  0  0  0  0  0  0  0  0  0
    2.1760   -1.8560   42.0040 C   0  0  0  0  0  0  0  0  0  0  0  0
    0.1960   -3.0520   41.3140 C   0  0  0  0  0  0  0  0  0  0  0  0
    1.1490   -2.0620   41.0840 C   0  0  0  0  0  0  0  0  0  0  0  0
    5.4810   -3.8310   46.4690 C   0  0  0  0  0  0  0  0  0  0  0  0
    6.1030   -2.7310   46.0110 C   0  0  0  0  0  0  0  0  0  0  0  0
    5.5490   -1.5950   45.2990 C   0  0  0  0  0  0  0  0  0  0  0  0
    5.6980   -1.4660   43.9700 C   0  0  0  0  0  0  0  0  0  0  0  0
    5.1740   -0.3900   43.0730 C   0  0  0  0  0  0  0  0  0  0  0  0
    4.8170   -0.7270   46.0710 O   0  0  0  0  0  0  0  0  0  0  0  0
  1  2  1  0
  1 12  1  0
  2  3  2  3
  3  4  1  0
  4  6  1  0
  4  5  1  6
  6  8  2  0
  6  7  1  0
  7  9  2  0
  8 10  1  0
  9 11  1  0
 10 11  2  0
 12 13  2  3
 13 14  1  0
 14 15  2  3
 14 17  1  0
 15 16  1  0
M  END
>  <vina_dock>  (730) 
-6.843

$$$$
O14757_PocketFlow_idx-in-all-generaetd-572
     RDKit          3D

 27 29  0  0  0  0  0  0  0  0999 V2000
    7.9720   -3.2570   49.2940 C   0  0  0  0  0  0  0  0  0  0  0  0
    7.2400   -3.4310   47.9890 C   0  0  0  0  0  0  0  0  0  0  0  0
    6.0160   -4.1120   47.9400 C   0  0  0  0  0  0  0  0  0  0  0  0
    7.7560   -2.8850   46.8120 C   0  0  0  0  0  0  0  0  0  0  0  0
    5.3090   -4.2600   46.7320 C   0  0  0  0  0  0  0  0  0  0  0  0
    7.0700   -3.0330   45.6060 C   0  0  0  0  0  0  0  0  0  0  0  0
    4.0330   -5.0680   46.7490 C   0  0  0  0  0  0  0  0  0  0  0  0
    5.8410   -3.7160   45.5510 C   0  0  0  0  0  0  0  0  0  0  0  0
    3.1940   -4.9790   45.4750 C   0  0  2  0  0  0  0  0  0  0  0  0
    5.1220   -3.8260   44.2130 C   0  0  1  0  0  0  0  0  0  0  0  0
    4.0620   -4.9490   44.2190 C   0  0  0  0  0  0  0  0  0  0  0  0
    2.2380   -3.8100   45.5330 C   0  0  0  0  0  0  0  0  0  0  0  0
    1.0890   -3.8670   45.1040 O   0  0  0  0  0  0  0  0  0  0  0  0
    4.5640   -2.5110   43.6600 C   0  0  0  0  0  0  0  0  0  0  0  0
    3.4110   -2.5500   42.8530 C   0  0  0  0  0  0  0  0  0  0  0  0
    5.1470   -1.2600   43.9130 C   0  0  0  0  0  0  0  0  0  0  0  0
    2.8420   -1.3790   42.3200 C   0  0  0  0  0  0  0  0  0  0  0  0
    4.5960   -0.0890   43.3870 C   0  0  0  0  0  0  0  0  0  0  0  0
    3.4510   -0.1470   42.5960 C   0  0  0  0  0  0  0  0  0  0  0  0
    1.6120   -1.4510   41.4430 C   0  0  0  0  0  0  0  0  0  0  0  0
    0.4760   -2.6510   42.1160 Cl  0  0  0  0  0  0  0  0  0  0  0  0
    0.9590   -0.2560   41.3520 F   0  0  0  0  0  0  0  0  0  0  0  0
    1.8980   -1.8080   40.1590 F   0  0  0  0  0  0  0  0  0  0  0  0
    7.6850   -4.3530   50.1880 N   0  0  0  0  0  0  0  0  0  0  0  0
    8.4850   -5.4540   50.1690 C   0  0  0  0  0  0  0  0  0  0  0  0
    9.6740   -5.4700   49.8910 O   0  0  0  0  0  0  0  0  0  0  0  0
    7.8100   -6.5820   50.5060 N   0  0  0  0  0  0  0  0  0  0  0  0
  1  2  1  0
  1 24  1  0
  2  4  2  0
  2  3  1  0
  3  5  2  0
  4  6  1  0
  5  8  1  0
  5  7  1  0
  6  8  2  0
  7  9  1  0
  8 10  1  0
  9 11  1  0
  9 12  1  1
 10 14  1  1
 10 11  1  0
 12 13  2  0
 14 15  2  0
 14 16  1  0
 15 17  1  0
 16 18  2  0
 17 20  1  0
 17 19  2  0
 18 19  1  0
 20 23  1  0
 20 22  1  0
 20 21  1  0
 24 25  1  0
 25 26  2  0
 25 27  1  0
M  END
>  <vina_dock>  (731) 
-7.648

$$$$
O14757_PocketFlow_idx-in-all-generaetd-723
     RDKit          3D

 35 39  0  0  0  0  0  0  0  0999 V2000
    9.0150   -1.5860   46.1090 C   0  0  0  0  0  0  0  0  0  0  0  0
    7.9690   -1.1510   45.2940 C   0  0  0  0  0  0  0  0  0  0  0  0
    6.8070   -1.9250   45.1450 C   0  0  0  0  0  0  0  0  0  0  0  0
    5.7160   -1.4680   44.2520 C   0  0  0  0  0  0  0  0  0  0  0  0
    4.5040   -2.3140   44.1110 C   0  0  0  0  0  0  0  0  0  0  0  0
    3.4840   -1.9050   43.2520 C   0  0  0  0  0  0  0  0  0  0  0  0
    8.8250   -2.7780   46.8270 C   0  0  0  0  0  0  0  0  0  0  0  0
    7.6640   -3.5490   46.6830 C   0  0  0  0  0  0  0  0  0  0  0  0
    6.6540   -3.1410   45.8160 C   0  0  0  0  0  0  0  0  0  0  0  0
    2.3430   -2.6900   43.1180 C   0  0  0  0  0  0  0  0  0  0  0  0
    2.1950   -3.8770   43.8500 C   0  0  0  0  0  0  0  0  0  0  0  0
    3.2200   -4.3020   44.7320 C   0  0  0  0  0  0  0  0  0  0  0  0
    4.4080   -3.5200   44.8310 C   0  0  0  0  0  0  0  0  0  0  0  0
    5.4570   -3.8690   45.7140 N   0  0  0  0  0  0  0  0  0  0  0  0
    2.9900   -5.4880   45.4720 C   0  0  0  0  0  0  0  0  0  0  0  0
    1.8110   -6.2440   45.3390 C   0  0  0  0  0  0  0  0  0  0  0  0
    1.6020   -7.4130   46.0850 C   0  0  0  0  0  0  0  0  0  0  0  0
    0.4250   -8.1490   45.9380 C   0  0  0  0  0  0  0  0  0  0  0  0
   -0.5610   -7.7410   45.0410 C   0  0  0  0  0  0  0  0  0  0  0  0
   -0.3670   -6.5730   44.3040 C   0  0  0  0  0  0  0  0  0  0  0  0
    0.8150   -5.8170   44.4430 C   0  0  0  0  0  0  0  0  0  0  0  0
    1.0210   -4.6370   43.7140 C   0  0  0  0  0  0  0  0  0  0  0  0
    5.8210   -0.4150   43.6320 O   0  0  0  0  0  0  0  0  0  0  0  0
   10.1740   -0.8410   46.3670 N   0  0  0  0  0  0  0  0  0  0  0  0
   11.3290   -1.4790   47.0220 C   0  0  0  0  0  0  0  0  0  0  0  0
   12.4080   -1.8740   46.0210 C   0  0  0  0  0  0  0  0  0  0  0  0
   12.3150   -1.8730   44.8030 O   0  0  0  0  0  0  0  0  0  0  0  0
   13.5370   -2.3120   46.6170 O   0  0  0  0  0  0  0  0  0  0  0  0
   -1.6650   -8.5480   45.0050 O   0  0  0  0  0  0  0  0  0  0  0  0
   -1.9230   -9.4160   46.1120 C   0  0  0  0  0  0  0  0  0  0  0  0
   -2.6480   -8.6600   47.1870 C   0  0  0  0  0  0  0  0  0  0  0  0
   -2.7530   -8.9480   48.4950 C   0  0  0  0  0  0  0  0  0  0  0  0
   -2.1920  -10.0960   49.1690 C   0  0  0  0  0  0  0  0  0  0  0  0
   -0.9210  -10.2360   49.5800 C   0  0  0  0  0  0  0  0  0  0  0  0
    0.2160   -9.2740   49.4550 C   0  0  0  0  0  0  0  0  0  0  0  0
  1  2  2  0
  1 24  1  0
  1  7  1  0
  2  3  1  0
  3  4  1  0
  3  9  2  0
  4 23  2  0
  4  5  1  0
  5  6  2  0
  5 13  1  0
  6 10  1  0
  7  8  2  0
  8  9  1  0
  9 14  1  0
 10 11  2  0
 11 22  1  0
 11 12  1  0
 12 13  2  0
 12 15  1  0
 13 14  1  0
 15 16  2  0
 16 21  1  0
 16 17  1  0
 17 18  2  0
 18 19  1  0
 19 20  2  0
 19 29  1  0
 20 21  1  0
 21 22  2  0
 24 25  1  0
 25 26  1  0
 26 27  2  0
 26 28  1  0
 29 30  1  0
 30 31  1  0
 31 32  2  3
 32 33  1  0
 33 34  2  3
 34 35  1  0
M  END
>  <vina_dock>  (732) 
-9.923

$$$$
O14757_PocketFlow_idx-in-all-generaetd-972
     RDKit          3D

 34 37  0  0  0  0  0  0  0  0999 V2000
    5.0440   -2.1980   44.1390 C   0  0  0  0  0  0  0  0  0  0  0  0
    4.3130   -3.2840   44.6470 C   0  0  0  0  0  0  0  0  0  0  0  0
    2.9960   -3.5450   44.2320 C   0  0  0  0  0  0  0  0  0  0  0  0
    2.4160   -2.6960   43.2780 C   0  0  0  0  0  0  0  0  0  0  0  0
    4.4420   -1.3690   43.1820 C   0  0  0  0  0  0  0  0  0  0  0  0
    3.1370   -1.6200   42.7600 C   0  0  0  0  0  0  0  0  0  0  0  0
    2.4120   -0.5930   41.5850 Cl  0  0  0  0  0  0  0  0  0  0  0  0
    6.4510   -1.9280   44.6200 C   0  0  0  0  0  0  0  0  0  0  0  0
    6.8330   -2.6940   45.8670 C   0  0  0  0  0  0  0  0  0  0  0  0
    6.3020   -4.4420   47.4640 C   0  0  0  0  0  0  0  0  0  0  0  0
    5.9410   -3.6590   46.3680 C   0  0  0  0  0  0  0  0  0  0  0  0
    7.5040   -4.3280   48.0720 N   0  0  0  0  0  0  0  0  0  0  0  0
    8.3610   -3.4010   47.5790 C   0  0  0  0  0  0  0  0  0  0  0  0
    8.0690   -2.5560   46.5160 C   0  0  0  0  0  0  0  0  0  0  0  0
    5.3680   -5.5000   47.9920 C   0  0  0  0  0  0  0  0  0  0  0  0
    5.9900   -6.2720   49.1450 C   0  0  0  0  0  0  0  0  0  0  0  0
    9.1100   -1.5760   46.1530 C   0  0  0  0  0  0  0  0  0  0  0  0
   10.2750   -1.9090   45.9940 O   0  0  0  0  0  0  0  0  0  0  0  0
    8.7220   -0.2660   46.0930 N   0  0  0  0  0  0  0  0  0  0  0  0
    2.2430   -4.6760   44.7920 C   0  0  0  0  0  0  0  0  0  0  0  0
    1.0360   -4.4700   45.4740 C   0  0  0  0  0  0  0  0  0  0  0  0
    2.7160   -5.9890   44.6720 C   0  0  0  0  0  0  0  0  0  0  0  0
    0.3210   -5.5420   46.0230 C   0  0  0  0  0  0  0  0  0  0  0  0
    2.0030   -7.0610   45.2160 C   0  0  0  0  0  0  0  0  0  0  0  0
    0.7920   -6.8570   45.9020 C   0  0  0  0  0  0  0  0  0  0  0  0
    0.0750   -8.0750   46.4960 C   0  0  2  0  0  0  0  0  0  0  0  0
   -0.1910   -7.8220   47.8290 F   0  0  0  0  0  0  0  0  0  0  0  0
    0.9380   -9.3470   46.5290 C   0  0  0  0  0  0  0  0  0  0  0  0
   -1.2310   -8.3670   45.7440 C   0  0  0  0  0  0  0  0  0  0  0  0
   -2.1480   -9.2940   46.2700 C   0  0  0  0  0  0  0  0  0  0  0  0
   -1.5470   -7.7350   44.5270 C   0  0  0  0  0  0  0  0  0  0  0  0
   -3.3400   -9.5780   45.6030 C   0  0  0  0  0  0  0  0  0  0  0  0
   -2.7420   -8.0210   43.8620 C   0  0  0  0  0  0  0  0  0  0  0  0
   -3.6370   -8.9430   44.4000 C   0  0  0  0  0  0  0  0  0  0  0  0
  1  5  1  0
  1  8  1  0
  1  2  2  0
  2  3  1  0
  3  4  2  0
  3 20  1  0
  4  6  1  0
  5  6  2  0
  6  7  1  0
  8  9  1  0
  9 11  1  0
  9 14  2  0
 10 11  2  0
 10 15  1  0
 10 12  1  0
 12 13  2  0
 13 14  1  0
 14 17  1  0
 15 16  1  0
 17 18  2  0
 17 19  1  0
 20 22  1  0
 20 21  2  0
 21 23  1  0
 22 24  2  0
 23 25  2  0
 24 25  1  0
 25 26  1  0
 26 29  1  0
 26 28  1  1
 26 27  1  0
 29 31  1  0
 29 30  2  0
 30 32  1  0
 31 33  2  0
 32 34  2  0
 33 34  1  0
M  END
>  <vina_dock>  (733) 
-10.547

$$$$
O14757_PocketFlow_idx-in-all-generaetd-957
     RDKit          3D

 11 10  0  0  0  0  0  0  0  0999 V2000
    2.1230   -4.1280   44.9890 C   0  0  0  0  0  0  0  0  0  0  0  0
    3.4450   -4.7600   44.5330 C   0  0  0  0  0  0  0  0  0  0  0  0
    4.4850   -3.7500   44.1230 C   0  0  0  0  0  0  0  0  0  0  0  0
    4.5360   -2.4950   44.5960 C   0  0  0  0  0  0  0  0  0  0  0  0
    5.5640   -1.4830   44.1750 C   0  0  0  0  0  0  0  0  0  0  0  0
    4.9960   -0.5100   43.1530 C   0  0  0  0  0  0  0  0  0  0  0  0
    1.1230   -3.9590   43.8760 C   0  0  0  0  0  0  0  0  0  0  0  0
    1.1820   -2.9790   42.9600 C   0  0  0  0  0  0  0  0  0  0  0  0
    0.1850   -2.7830   41.8600 C   0  0  0  0  0  0  0  0  0  0  0  0
   -0.0580   -1.3460   41.7260 N   0  0  0  0  0  0  0  0  0  0  0  0
    0.9950   -0.6810   41.4140 C   0  0  0  0  0  0  0  0  0  0  0  0
  1  7  1  0
  1  2  1  0
  2  3  1  0
  3  4  2  3
  4  5  1  0
  5  6  1  0
  7  8  2  3
  8  9  1  0
  9 10  1  0
 10 11  1  0
M  END
>  <vina_dock>  (734) 
-5.069

$$$$
O14757_PocketFlow_idx-in-all-generaetd-125
     RDKit          3D

 12 12  0  0  0  0  0  0  0  0999 V2000
    0.8550   -4.3140   45.5780 C   0  0  2  0  0  0  0  0  0  0  0  0
    0.8120   -4.3510   44.0500 C   0  0  0  0  0  0  0  0  0  0  0  0
    1.9150   -3.4590   43.4760 C   0  0  0  0  0  0  0  0  0  0  0  0
    3.2000   -3.5780   44.2700 C   0  0  0  0  0  0  0  0  0  0  0  0
    4.1710   -2.6580   44.1020 C   0  0  0  0  0  0  0  0  0  0  0  0
    2.1120   -4.7320   46.1580 N   0  0  0  0  0  0  0  0  0  0  0  0
    3.2250   -4.7560   45.2080 C   0  0  0  0  0  0  0  0  0  0  0  0
   -0.0920   -5.2370   46.1450 N   0  0  0  0  0  0  0  0  0  0  0  0
    5.4490   -2.6060   44.7770 C   0  0  0  0  0  0  0  0  0  0  0  0
    6.2650   -1.5440   44.7050 C   0  0  0  0  0  0  0  0  0  0  0  0
    7.5150   -1.5240   45.3800 C   0  0  0  0  0  0  0  0  0  0  0  0
    8.5700   -1.5020   45.9520 C   0  0  0  0  0  0  0  0  0  0  0  0
  1  2  1  0
  1  8  1  1
  1  6  1  0
  2  3  1  0
  3  4  1  0
  4  5  2  3
  4  7  1  0
  5  9  1  0
  6  7  1  0
  9 10  2  3
 10 11  1  0
 11 12  3  0
M  END
>  <vina_dock>  (735) 
-6.149

$$$$
O14757_PocketFlow_idx-in-all-generaetd-867
     RDKit          3D

 35 39  0  0  0  0  0  0  0  0999 V2000
    3.5590   -2.6230   43.7740 C   0  0  0  0  0  0  0  0  0  0  0  0
    3.3530   -1.4050   42.9000 C   0  0  0  0  0  0  0  0  0  0  0  0
    2.6680   -3.7030   43.6700 C   0  0  0  0  0  0  0  0  0  0  0  0
    2.8700   -4.8710   44.4170 C   0  0  0  0  0  0  0  0  0  0  0  0
    3.9590   -4.9500   45.2930 C   0  0  0  0  0  0  0  0  0  0  0  0
    4.5620   -0.5200   42.8000 C   0  0  0  0  0  0  0  0  0  0  0  0
    4.8560   -3.8740   45.4250 C   0  0  0  0  0  0  0  0  0  0  0  0
    4.6390   -2.6930   44.6790 C   0  0  0  0  0  0  0  0  0  0  0  0
    5.5730   -0.5700   43.6820 C   0  0  0  0  0  0  0  0  0  0  0  0
    5.5560   -1.4890   44.8810 C   0  0  2  0  0  0  0  0  0  0  0  0
    6.9480   -1.8980   45.2990 C   0  0  0  0  0  0  0  0  0  0  0  0
    7.1880   -3.0330   45.9880 C   0  0  0  0  0  0  0  0  0  0  0  0
    6.0640   -4.0000   46.3550 C   0  0  1  0  0  0  0  0  0  0  0  0
    8.5740   -3.4160   46.4280 C   0  0  0  0  0  0  0  0  0  0  0  0
    1.9460   -6.0400   44.3250 C   0  0  0  0  0  0  0  0  0  0  0  0
    0.6150   -5.7580   44.1100 N   0  0  0  0  0  0  0  0  0  0  0  0
    2.3770   -7.1850   44.4340 O   0  0  0  0  0  0  0  0  0  0  0  0
   -0.3320   -6.8240   43.8810 C   0  0  0  0  0  0  0  0  0  0  0  0
   -0.8860   -7.3280   45.1880 C   0  0  0  0  0  0  0  0  0  0  0  0
   -0.4930   -6.7320   46.3940 C   0  0  0  0  0  0  0  0  0  0  0  0
   -1.8310   -8.3660   45.2200 C   0  0  0  0  0  0  0  0  0  0  0  0
   -1.0240   -7.1740   47.6090 C   0  0  0  0  0  0  0  0  0  0  0  0
   -2.3580   -8.8260   46.4370 C   0  0  0  0  0  0  0  0  0  0  0  0
   -1.9560   -8.2130   47.6300 C   0  0  0  0  0  0  0  0  0  0  0  0
   -3.3830   -9.9250   46.4600 C   0  0  0  0  0  0  0  0  0  0  0  0
    5.6430   -3.7920   47.7950 C   0  0  0  0  0  0  0  0  0  0  0  0
    5.9450   -4.5660   48.8510 C   0  0  0  0  0  0  0  0  0  0  0  0
    6.7410   -5.7390   48.7650 C   0  0  0  0  0  0  0  0  0  0  0  0
    7.4040   -6.7350   48.6840 C   0  0  0  0  0  0  0  0  0  0  0  0
    8.1900   -7.9200   48.5830 C   0  0  0  0  0  0  0  0  0  0  0  0
    9.4560   -7.8400   48.1330 C   0  0  0  0  0  0  0  0  0  0  0  0
    7.5940   -9.2470   48.9910 C   0  0  0  0  0  0  0  0  0  0  0  0
   10.3000   -9.0060   48.0240 C   0  0  0  0  0  0  0  0  0  0  0  0
    8.3350  -10.4730   48.4280 C   0  0  0  0  0  0  0  0  0  0  0  0
    9.7940  -10.2410   48.1490 C   0  0  0  0  0  0  0  0  0  0  0  0
  1  2  1  0
  1  3  1  0
  1  8  2  0
  2  6  1  0
  3  4  2  0
  4 15  1  0
  4  5  1  0
  5  7  2  0
  6  9  2  0
  7  8  1  0
  7 13  1  0
  8 10  1  0
 10  9  1  6
 10 11  1  0
 11 12  2  0
 12 13  1  0
 12 14  1  0
 13 26  1  1
 15 16  1  0
 15 17  2  0
 16 18  1  0
 18 19  1  0
 19 21  1  0
 19 20  2  0
 20 22  1  0
 21 23  2  0
 22 24  2  0
 23 25  1  0
 23 24  1  0
 26 27  2  3
 27 28  1  0
 28 29  3  0
 29 30  1  0
 30 31  2  0
 30 32  1  0
 31 33  1  0
 32 34  1  0
 33 35  2  0
 34 35  1  0
M  END
>  <vina_dock>  (736) 
-10.01

$$$$
O14757_PocketFlow_idx-in-all-generaetd-689
     RDKit          3D

 35 38  0  0  0  0  0  0  0  0999 V2000
    4.0420   -4.1310   45.6360 C   0  0  0  0  0  0  0  0  0  0  0  0
    3.5520   -5.4200   45.8810 C   0  0  0  0  0  0  0  0  0  0  0  0
    2.4250   -5.8920   45.1980 C   0  0  0  0  0  0  0  0  0  0  0  0
    1.7950   -5.0550   44.2640 C   0  0  0  0  0  0  0  0  0  0  0  0
    2.2810   -3.7650   43.9910 C   0  0  0  0  0  0  0  0  0  0  0  0
    3.4140   -3.3140   44.6850 C   0  0  0  0  0  0  0  0  0  0  0  0
    5.2540   -3.6790   46.3770 C   0  0  0  0  0  0  0  0  0  0  0  0
    6.3340   -3.3490   45.5780 N   0  0  0  0  0  0  0  0  0  0  0  0
    5.1870   -3.5990   47.5970 O   0  0  0  0  0  0  0  0  0  0  0  0
    7.6220   -2.9490   45.9990 C   0  0  0  0  0  0  0  0  0  0  0  0
    9.8180   -3.3600   47.0000 C   0  0  0  0  0  0  0  0  0  0  0  0
    8.5560   -3.8110   46.5850 C   0  0  0  0  0  0  0  0  0  0  0  0
   10.1470   -2.0210   46.7440 C   0  0  0  0  0  0  0  0  0  0  0  0
    9.2330   -1.1500   46.1520 C   0  0  0  0  0  0  0  0  0  0  0  0
    7.9730   -1.6120   45.7850 C   0  0  0  0  0  0  0  0  0  0  0  0
   10.8100   -4.1920   47.5280 N   0  0  0  0  0  0  0  0  0  0  0  0
   11.9210   -4.6780   46.7170 C   0  0  0  0  0  0  0  0  0  0  0  0
   11.4580   -5.7030   45.6950 C   0  0  0  0  0  0  0  0  0  0  0  0
    1.8820   -7.2720   45.4770 C   0  0  0  0  0  0  0  0  0  0  0  0
    0.4350   -7.4180   44.9970 C   0  0  0  0  0  0  0  0  0  0  0  0
   -0.4180   -8.1520   46.0100 C   0  0  0  0  0  0  0  0  0  0  0  0
   -1.7620   -8.4900   45.7610 C   0  0  0  0  0  0  0  0  0  0  0  0
    0.1720   -8.5260   47.2320 C   0  0  0  0  0  0  0  0  0  0  0  0
   -2.4610   -8.1080   44.4860 C   0  0  0  0  0  0  0  0  0  0  0  0
   -2.4900   -9.1650   46.7540 C   0  0  0  0  0  0  0  0  0  0  0  0
   -0.5530   -9.2220   48.2070 C   0  0  0  0  0  0  0  0  0  0  0  0
   -1.8940   -9.5250   47.9630 C   0  0  0  0  0  0  0  0  0  0  0  0
    0.0810   -9.5790   49.5190 C   0  0  0  0  0  0  0  0  0  0  0  0
    1.6260   -2.9150   42.9860 C   0  0  0  0  0  0  0  0  0  0  0  0
    0.2870   -3.1330   42.6220 C   0  0  0  0  0  0  0  0  0  0  0  0
    2.3250   -1.8650   42.3640 C   0  0  0  0  0  0  0  0  0  0  0  0
   -0.3230   -2.3240   41.6670 C   0  0  0  0  0  0  0  0  0  0  0  0
    1.7030   -1.0570   41.4080 C   0  0  0  0  0  0  0  0  0  0  0  0
    0.3750   -1.2880   41.0590 C   0  0  0  0  0  0  0  0  0  0  0  0
   -1.6190   -2.5200   41.2930 O   0  0  0  0  0  0  0  0  0  0  0  0
  1  6  1  0
  1  2  2  0
  1  7  1  0
  2  3  1  0
  3  4  2  0
  3 19  1  0
  4  5  1  0
  5 29  1  0
  5  6  2  0
  7  8  1  0
  7  9  2  0
  8 10  1  0
 10 15  2  0
 10 12  1  0
 11 12  2  0
 11 13  1  0
 11 16  1  0
 13 14  2  0
 14 15  1  0
 16 17  1  0
 17 18  1  0
 19 20  1  0
 20 21  1  0
 21 22  2  0
 21 23  1  0
 22 24  1  0
 22 25  1  0
 23 26  2  0
 25 27  2  0
 26 27  1  0
 26 28  1  0
 29 31  1  0
 29 30  2  0
 30 32  1  0
 31 33  2  0
 32 34  2  0
 32 35  1  0
 33 34  1  0
M  END
>  <vina_dock>  (737) 
-9.936

$$$$
O14757_PocketFlow_idx-in-all-generaetd-51
     RDKit          3D

 35 38  0  0  0  0  0  0  0  0999 V2000
    9.7110   -3.5920   48.9880 C   0  0  1  0  0  0  0  0  0  0  0  0
    8.3650   -3.5780   48.2560 C   0  0  0  0  0  0  0  0  0  0  0  0
    4.0080   -1.7110   43.0760 C   0  0  0  0  0  0  0  0  0  0  0  0
    4.7090   -2.1680   44.1510 C   0  0  0  0  0  0  0  0  0  0  0  0
    4.1160   -3.0190   45.0070 C   0  0  0  0  0  0  0  0  0  0  0  0
    5.9760   -1.7090   44.2160 C   0  0  0  0  0  0  0  0  0  0  0  0
    4.5410   -3.6130   46.1260 C   0  0  0  0  0  0  0  0  0  0  0  0
    6.9690   -1.9250   45.0830 C   0  0  0  0  0  0  0  0  0  0  0  0
    5.9130   -3.5220   46.8360 C   0  0  0  0  0  0  0  0  0  0  0  0
    6.9970   -2.7990   46.3620 C   0  0  0  0  0  0  0  0  0  0  0  0
    6.0460   -4.2460   48.0320 C   0  0  0  0  0  0  0  0  0  0  0  0
    8.2140   -2.8360   47.0730 C   0  0  0  0  0  0  0  0  0  0  0  0
    7.2510   -4.2690   48.7380 C   0  0  0  0  0  0  0  0  0  0  0  0
    2.6190   -1.8980   42.6670 C   0  0  0  0  0  0  0  0  0  0  0  0
   -1.1580   -2.6610   41.4120 O   0  0  0  0  0  0  0  0  0  0  0  0
    0.0370   -2.5490   41.6600 C   0  0  0  0  0  0  0  0  0  0  0  0
    0.9460   -1.6570   40.8540 C   0  0  0  0  0  0  0  0  0  0  0  0
    0.6400   -3.2960   42.6330 O   0  0  0  0  0  0  0  0  0  0  0  0
    1.9410   -0.9270   41.7440 C   0  0  0  0  0  0  0  0  0  0  0  0
    1.9600   -3.0150   43.0040 C   0  0  0  0  0  0  0  0  0  0  0  0
   10.3210   -4.9980   48.9530 C   0  0  0  0  0  0  0  0  0  0  0  0
   10.3310   -5.7870   47.7910 C   0  0  0  0  0  0  0  0  0  0  0  0
   10.8690   -5.5400   50.1290 C   0  0  0  0  0  0  0  0  0  0  0  0
   10.8930   -7.0650   47.7990 C   0  0  0  0  0  0  0  0  0  0  0  0
   11.4300   -6.8190   50.1350 C   0  0  0  0  0  0  0  0  0  0  0  0
   11.4460   -7.5790   48.9680 C   0  0  0  0  0  0  0  0  0  0  0  0
   10.6800   -2.4320   48.5210 C   0  0  2  0  0  0  0  0  0  0  0  0
   12.0350   -2.9580   48.0630 C   0  0  0  0  0  0  0  0  0  0  0  0
   12.5830   -2.8870   46.8380 C   0  0  0  0  0  0  0  0  0  0  0  0
   12.0110   -2.2630   45.6080 C   0  0  0  0  0  0  0  0  0  0  0  0
   10.8920   -1.3470   49.6000 C   0  0  0  0  0  0  0  0  0  0  0  0
   12.0150   -0.5950   49.6380 C   0  0  0  0  0  0  0  0  0  0  0  0
    9.7420   -1.2050   50.5670 C   0  0  0  0  0  0  0  0  0  0  0  0
   12.3430    0.4300   50.6030 C   0  0  0  0  0  0  0  0  0  0  0  0
   12.8460    1.6200   50.2510 C   0  0  0  0  0  0  0  0  0  0  0  0
  1  2  1  6
  1 27  1  0
  1 21  1  0
  2 12  2  0
  2 13  1  0
  3 14  1  0
  3  4  1  0
  4  6  2  0
  4  5  1  0
  5  7  1  0
  6  8  1  0
  7  9  2  0
  8 10  2  0
  9 10  1  0
  9 11  1  0
 10 12  1  0
 11 13  2  0
 14 19  1  0
 14 20  2  0
 15 16  2  0
 16 17  1  0
 16 18  1  0
 17 19  1  0
 18 20  1  0
 21 22  2  0
 21 23  1  0
 22 24  1  0
 23 25  2  0
 24 26  2  0
 25 26  1  0
 27 28  1  1
 27 31  1  0
 28 29  2  3
 29 30  1  0
 31 32  2  3
 31 33  1  0
 32 34  1  0
 34 35  2  0
M  END
>  <vina_dock>  (738) 
-8.054

$$$$
O14757_PocketFlow_idx-in-all-generaetd-469
     RDKit          3D

 35 38  0  0  0  0  0  0  0  0999 V2000
    4.1980   -3.0270   43.9710 C   0  0  0  0  0  0  0  0  0  0  0  0
    5.1500   -2.0210   44.2170 C   0  0  0  0  0  0  0  0  0  0  0  0
    5.0120   -0.7580   43.6180 C   0  0  0  0  0  0  0  0  0  0  0  0
    3.9460   -0.4890   42.7600 C   0  0  0  0  0  0  0  0  0  0  0  0
    2.9900   -1.4750   42.4930 C   0  0  0  0  0  0  0  0  0  0  0  0
    3.1250   -2.7320   43.1030 C   0  0  0  0  0  0  0  0  0  0  0  0
    4.2900   -4.4210   44.5580 C   0  0  0  0  0  0  0  0  0  0  0  0
    2.9610   -4.9970   44.9940 C   0  0  0  0  0  0  0  0  0  0  0  0
    2.0880   -4.2530   45.8000 C   0  0  0  0  0  0  0  0  0  0  0  0
    2.5920   -6.2960   44.6150 C   0  0  0  0  0  0  0  0  0  0  0  0
    0.8680   -4.7960   46.2140 C   0  0  0  0  0  0  0  0  0  0  0  0
    1.3740   -6.8390   45.0330 C   0  0  0  0  0  0  0  0  0  0  0  0
    0.4960   -6.0920   45.8270 C   0  0  0  0  0  0  0  0  0  0  0  0
   -0.8040   -6.6910   46.2960 C   0  0  0  0  0  0  0  0  0  0  0  0
   -0.7370   -7.0520   47.7070 N   0  0  0  0  0  0  0  0  0  0  0  0
    6.3070   -2.2230   45.1300 C   0  0  0  0  0  0  0  0  0  0  0  0
    7.3970   -1.7190   44.8900 O   0  0  0  0  0  0  0  0  0  0  0  0
    6.0590   -3.0290   46.2220 N   0  0  0  0  0  0  0  0  0  0  0  0
    7.1280   -3.4790   47.0960 C   0  0  0  0  0  0  0  0  0  0  0  0
    6.6180   -4.0860   48.4120 C   0  0  0  0  0  0  0  0  0  0  0  0
    6.7290   -5.5950   48.4610 C   0  0  0  0  0  0  0  0  0  0  0  0
    5.5950   -6.4050   48.3350 C   0  0  0  0  0  0  0  0  0  0  0  0
    7.9760   -6.2030   48.6240 C   0  0  0  0  0  0  0  0  0  0  0  0
    5.6850   -7.8110   48.3600 C   0  0  0  0  0  0  0  0  0  0  0  0
    8.0880   -7.5940   48.6400 C   0  0  0  0  0  0  0  0  0  0  0  0
    6.9530   -8.3890   48.5020 C   0  0  0  0  0  0  0  0  0  0  0  0
    4.4840   -8.6560   48.2540 C   0  0  0  0  0  0  0  0  0  0  0  0
    3.9420   -9.3080   49.3740 C   0  0  0  0  0  0  0  0  0  0  0  0
    3.8400   -8.8360   47.0220 C   0  0  0  0  0  0  0  0  0  0  0  0
    2.7990  -10.1030   49.2670 C   0  0  0  0  0  0  0  0  0  0  0  0
    2.6970   -9.6300   46.9120 C   0  0  0  0  0  0  0  0  0  0  0  0
    2.1750  -10.2610   48.0360 C   0  0  0  0  0  0  0  0  0  0  0  0
    1.8250   -1.1660   41.5860 C   0  0  0  0  0  0  0  0  0  0  0  0
    1.8250   -1.8890   40.4300 F   0  0  0  0  0  0  0  0  0  0  0  0
    1.7890    0.1420   41.2090 F   0  0  0  0  0  0  0  0  0  0  0  0
  1  6  2  0
  1  2  1  0
  1  7  1  0
  2  3  2  0
  2 16  1  0
  3  4  1  0
  4  5  2  0
  5 33  1  0
  5  6  1  0
  7  8  1  0
  8 10  1  0
  8  9  2  0
  9 11  1  0
 10 12  2  0
 11 13  2  0
 12 13  1  0
 13 14  1  0
 14 15  1  0
 16 17  2  0
 16 18  1  0
 18 19  1  0
 19 20  1  0
 20 21  1  0
 21 22  2  0
 21 23  1  0
 22 24  1  0
 23 25  2  0
 24 27  1  0
 24 26  2  0
 25 26  1  0
 27 29  1  0
 27 28  2  0
 28 30  1  0
 29 31  2  0
 30 32  2  0
 31 32  1  0
 33 34  1  0
 33 35  1  0
M  END
>  <vina_dock>  (739) 
-9.208

$$$$
O14757_PocketFlow_idx-in-all-generaetd-838
     RDKit          3D

 35 39  0  0  0  0  0  0  0  0999 V2000
    0.8950   -0.5130   41.7210 C   0  0  0  0  0  0  0  0  0  0  0  0
   -0.0160   -1.4520   42.0200 C   0  0  0  0  0  0  0  0  0  0  0  0
    2.2650   -0.6850   41.1240 C   0  0  0  0  0  0  0  0  0  0  0  0
    3.2980   -1.0450   42.1660 C   0  0  0  0  0  0  0  0  0  0  0  0
    5.2520   -1.7360   44.1020 C   0  0  0  0  0  0  0  0  0  0  0  0
    4.4600   -2.7200   43.4900 C   0  0  0  0  0  0  0  0  0  0  0  0
    5.0470   -0.4000   43.7230 C   0  0  0  0  0  0  0  0  0  0  0  0
    3.4970   -2.3800   42.5330 C   0  0  0  0  0  0  0  0  0  0  0  0
    4.0850   -0.0560   42.7670 C   0  0  0  0  0  0  0  0  0  0  0  0
    6.2660   -2.0950   45.1070 C   0  0  0  0  0  0  0  0  0  0  0  0
   12.6700   -1.9830   48.7600 C   0  0  0  0  0  0  0  0  0  0  0  0
   13.6450   -2.2490   49.6380 F   0  0  0  0  0  0  0  0  0  0  0  0
   12.8700   -1.0200   47.7830 C   0  0  0  0  0  0  0  0  0  0  0  0
   11.4690   -2.6740   48.8390 C   0  0  0  0  0  0  0  0  0  0  0  0
   11.8480   -0.7480   46.8710 C   0  0  0  0  0  0  0  0  0  0  0  0
   10.4440   -2.3950   47.9180 C   0  0  0  0  0  0  0  0  0  0  0  0
   10.6310   -1.4190   46.9170 C   0  0  0  0  0  0  0  0  0  0  0  0
    9.2170   -3.0650   47.9560 C   0  0  0  0  0  0  0  0  0  0  0  0
    9.6810   -1.1210   46.0170 N   0  0  0  0  0  0  0  0  0  0  0  0
    8.2220   -2.7580   47.0200 C   0  0  0  0  0  0  0  0  0  0  0  0
    8.5040   -1.7690   46.0600 C   0  0  0  0  0  0  0  0  0  0  0  0
    6.9780   -3.4070   47.0230 C   0  0  0  0  0  0  0  0  0  0  0  0
    7.5210   -1.4600   45.1270 C   0  0  0  0  0  0  0  0  0  0  0  0
    6.0110   -3.0760   46.0740 C   0  0  0  0  0  0  0  0  0  0  0  0
    0.1220   -2.8770   41.8250 C   0  0  0  0  0  0  0  0  0  0  0  0
    0.5060   -3.7680   42.7530 C   0  0  0  0  0  0  0  0  0  0  0  0
    0.8350   -3.5220   44.2000 C   0  0  0  0  0  0  0  0  0  0  0  0
    0.7510   -4.7830   45.0670 C   0  0  0  0  0  0  0  0  0  0  0  0
    0.8010   -6.1310   44.3120 C   0  0  2  0  0  0  0  0  0  0  0  0
   -0.3580   -7.1100   44.6020 C   0  0  0  0  0  0  0  0  0  0  0  0
    2.1480   -6.8360   44.5470 C   0  0  0  0  0  0  0  0  0  0  0  0
   -0.2960   -7.8630   45.8570 N   0  0  0  0  0  0  0  0  0  0  0  0
    2.1950   -7.5490   45.8950 C   0  0  0  0  0  0  0  0  0  0  0  0
   -0.7540   -7.1270   47.0260 C   0  0  0  0  0  0  0  0  0  0  0  0
    1.0090   -8.4990   46.0570 C   0  0  0  0  0  0  0  0  0  0  0  0
  1  3  1  0
  1  2  2  3
  2 25  1  0
  3  4  1  0
  4  8  2  0
  4  9  1  0
  5  6  2  0
  5  7  1  0
  5 10  1  0
  6  8  1  0
  7  9  2  0
 10 23  2  0
 10 24  1  0
 11 13  2  0
 11 14  1  0
 11 12  1  0
 13 15  1  0
 14 16  2  0
 15 17  2  0
 16 17  1  0
 16 18  1  0
 17 19  1  0
 18 20  2  0
 19 21  2  0
 20 21  1  0
 20 22  1  0
 21 23  1  0
 22 24  2  0
 25 26  2  3
 26 27  1  0
 27 28  1  0
 29 28  1  1
 29 31  1  0
 29 30  1  0
 30 32  1  0
 31 33  1  0
 32 35  1  0
 32 34  1  0
 33 35  1  0
M  END
>  <vina_dock>  (740) 
-9.362

$$$$
O14757_PocketFlow_idx-in-all-generaetd-514
     RDKit          3D

 22 24  0  0  0  0  0  0  0  0999 V2000
    2.9330   -3.0830   43.7950 C   0  0  0  0  0  0  0  0  0  0  0  0
    2.1830   -2.5120   42.7550 C   0  0  0  0  0  0  0  0  0  0  0  0
    0.9220   -3.0100   42.4210 C   0  0  0  0  0  0  0  0  0  0  0  0
    0.3860   -4.0890   43.1220 C   0  0  0  0  0  0  0  0  0  0  0  0
    1.1060   -4.6810   44.1660 C   0  0  0  0  0  0  0  0  0  0  0  0
    2.3770   -4.1720   44.4890 C   0  0  0  0  0  0  0  0  0  0  0  0
    4.2610   -2.5580   44.1530 C   0  0  0  0  0  0  0  0  0  0  0  0
    5.0700   -3.2150   45.0970 C   0  0  0  0  0  0  0  0  0  0  0  0
    6.3340   -2.7140   45.4370 C   0  0  0  0  0  0  0  0  0  0  0  0
    6.8050   -1.5460   44.8350 C   0  0  0  0  0  0  0  0  0  0  0  0
    4.7580   -1.3840   43.5610 C   0  0  0  0  0  0  0  0  0  0  0  0
    6.0170   -0.8810   43.8970 C   0  0  0  0  0  0  0  0  0  0  0  0
    7.1400   -3.4010   46.4040 C   0  0  0  0  0  0  0  0  0  0  0  0
    7.7920   -3.9580   47.1860 N   0  0  0  0  0  0  0  0  0  0  0  0
    0.5470   -5.8630   44.9210 C   0  0  0  0  0  0  0  0  0  0  0  0
   -0.1900   -6.6770   44.0120 O   0  0  0  0  0  0  0  0  0  0  0  0
   -1.1320   -7.5120   44.5470 C   0  0  0  0  0  0  0  0  0  0  0  0
   -0.8140   -8.0120   45.8130 C   0  0  0  0  0  0  0  0  0  0  0  0
   -2.3360   -7.8880   43.9490 C   0  0  0  0  0  0  0  0  0  0  0  0
   -1.6860   -8.8760   46.4770 C   0  0  0  0  0  0  0  0  0  0  0  0
   -3.2100   -8.7550   44.6130 C   0  0  0  0  0  0  0  0  0  0  0  0
   -2.8850   -9.2490   45.8760 C   0  0  0  0  0  0  0  0  0  0  0  0
  1  2  2  0
  1  7  1  0
  1  6  1  0
  2  3  1  0
  3  4  2  0
  4  5  1  0
  5  6  2  0
  5 15  1  0
  7 11  1  0
  7  8  2  0
  8  9  1  0
  9 10  2  0
  9 13  1  0
 10 12  1  0
 11 12  2  0
 13 14  3  0
 15 16  1  0
 16 17  1  0
 17 19  1  0
 17 18  2  0
 18 20  1  0
 19 21  2  0
 20 22  2  0
 21 22  1  0
M  END
>  <vina_dock>  (741) 
-8.683

$$$$
O14757_PocketFlow_idx-in-all-generaetd-455
     RDKit          3D

 27 30  0  0  0  0  0  0  0  0999 V2000
    6.4710   -1.4790   44.5990 C   0  0  0  0  0  0  0  0  0  0  0  0
    5.1470   -1.8610   43.9920 C   0  0  0  0  0  0  0  0  0  0  0  0
    4.5690   -1.0790   42.9890 C   0  0  0  0  0  0  0  0  0  0  0  0
    5.1930    0.0250   42.5560 F   0  0  0  0  0  0  0  0  0  0  0  0
    3.3410   -1.4160   42.4320 C   0  0  0  0  0  0  0  0  0  0  0  0
    4.4560   -2.9990   44.4360 C   0  0  0  0  0  0  0  0  0  0  0  0
    2.6660   -2.5520   42.8810 C   0  0  0  0  0  0  0  0  0  0  0  0
    3.2110   -3.3640   43.8900 C   0  0  0  0  0  0  0  0  0  0  0  0
    2.4990   -4.5620   44.3640 C   0  0  0  0  0  0  0  0  0  0  0  0
    1.1100   -4.6680   44.2530 C   0  0  0  0  0  0  0  0  0  0  0  0
    3.1940   -5.6350   44.9450 C   0  0  0  0  0  0  0  0  0  0  0  0
    0.4370   -5.8070   44.7080 C   0  0  0  0  0  0  0  0  0  0  0  0
    2.5340   -6.7890   45.4070 C   0  0  0  0  0  0  0  0  0  0  0  0
    1.1260   -6.8920   45.2940 C   0  0  0  0  0  0  0  0  0  0  0  0
    3.2670   -7.8390   45.9790 C   0  0  0  0  0  0  0  0  0  0  0  0
    0.4790   -8.0700   45.7700 C   0  0  0  0  0  0  0  0  0  0  0  0
    2.6310   -8.9870   46.4410 C   0  0  0  0  0  0  0  0  0  0  0  0
    1.2500   -9.1010   46.3370 C   0  0  0  0  0  0  0  0  0  0  0  0
   -0.9790   -8.2560   45.6900 C   0  0  0  0  0  0  0  0  0  0  0  0
   -1.6890   -7.8700   44.5430 C   0  0  0  0  0  0  0  0  0  0  0  0
   -1.6870   -8.8300   46.7580 C   0  0  0  0  0  0  0  0  0  0  0  0
   -3.0720   -8.0490   44.4670 C   0  0  0  0  0  0  0  0  0  0  0  0
   -3.0690   -9.0080   46.6820 C   0  0  0  0  0  0  0  0  0  0  0  0
   -3.7610   -8.6170   45.5370 C   0  0  0  0  0  0  0  0  0  0  0  0
    6.9830   -2.4790   45.6420 C   0  0  0  0  0  0  0  0  0  0  0  0
    8.2950   -2.0970   46.3320 C   0  0  0  0  0  0  0  0  0  0  0  0
    8.4970   -0.6530   46.3790 N   0  0  0  0  0  0  0  0  0  0  0  0
  1  2  1  0
  1 25  1  0
  2  3  2  0
  2  6  1  0
  3  5  1  0
  3  4  1  0
  5  7  2  0
  6  8  2  0
  7  8  1  0
  8  9  1  0
  9 10  2  0
  9 11  1  0
 10 12  1  0
 11 13  2  0
 12 14  2  0
 13 14  1  0
 13 15  1  0
 14 16  1  0
 15 17  2  0
 16 19  1  0
 16 18  2  0
 17 18  1  0
 19 20  2  0
 19 21  1  0
 20 22  1  0
 21 23  2  0
 22 24  2  0
 23 24  1  0
 25 26  1  0
 26 27  1  0
M  END
>  <vina_dock>  (742) 
-10.226

$$$$
O14757_PocketFlow_idx-in-all-generaetd-799
     RDKit          3D

 18 19  0  0  0  0  0  0  0  0999 V2000
    2.9740   -4.6340   45.3300 C   0  0  0  0  0  0  0  0  0  0  0  0
    1.6520   -5.3440   45.4070 C   0  0  0  0  0  0  0  0  0  0  0  0
    1.4640   -6.6160   45.0210 C   0  0  0  0  0  0  0  0  0  0  0  0
    0.1710   -7.3100   45.0970 C   0  0  0  0  0  0  0  0  0  0  0  0
   -2.0190   -7.8460   44.2180 C   0  0  0  0  0  0  0  0  0  0  0  0
   -2.3050   -8.6070   45.3450 C   0  0  0  0  0  0  0  0  0  0  0  0
   -0.7940   -7.1940   44.0870 C   0  0  0  0  0  0  0  0  0  0  0  0
   -1.3580   -8.7160   46.3600 C   0  0  0  0  0  0  0  0  0  0  0  0
   -0.1280   -8.0650   46.2390 C   0  0  0  0  0  0  0  0  0  0  0  0
   -2.9780   -7.7560   43.2520 O   0  0  0  0  0  0  0  0  0  0  0  0
    2.9790   -3.5560   44.2710 C   0  0  0  0  0  0  0  0  0  0  0  0
    1.8440   -3.3300   43.4760 C   0  0  0  0  0  0  0  0  0  0  0  0
    4.1080   -2.7470   44.0890 C   0  0  0  0  0  0  0  0  0  0  0  0
    1.8390   -2.3240   42.4970 C   0  0  0  0  0  0  0  0  0  0  0  0
    4.1090   -1.7390   43.1260 C   0  0  0  0  0  0  0  0  0  0  0  0
    2.9800   -1.5270   42.3340 C   0  0  0  0  0  0  0  0  0  0  0  0
    0.6080   -2.0760   41.6630 C   0  0  0  0  0  0  0  0  0  0  0  0
   -0.4920   -2.9390   42.0770 N   0  0  0  0  0  0  0  0  0  0  0  0
  1 11  1  0
  1  2  1  0
  2  3  2  3
  3  4  1  0
  4  7  1  0
  4  9  2  0
  5 10  1  0
  5  7  2  0
  5  6  1  0
  6  8  2  0
  8  9  1  0
 11 12  2  0
 11 13  1  0
 12 14  1  0
 13 15  2  0
 14 17  1  0
 14 16  2  0
 15 16  1  0
 17 18  1  0
M  END
>  <vina_dock>  (743) 
-7.855

$$$$
O14757_PocketFlow_idx-in-all-generaetd-739
     RDKit          3D

 30 33  0  0  0  0  0  0  0  0999 V2000
    5.4770   -1.6570   44.2230 C   0  0  0  0  0  0  0  0  0  0  0  0
    5.2400   -0.7660   43.1780 C   0  0  0  0  0  0  0  0  0  0  0  0
    4.0430   -0.8250   42.4630 C   0  0  0  0  0  0  0  0  0  0  0  0
    3.0600   -1.7790   42.7700 C   0  0  0  0  0  0  0  0  0  0  0  0
    1.8700   -1.8180   42.0310 C   0  0  0  0  0  0  0  0  0  0  0  0
    3.2760   -2.7050   43.8220 C   0  0  0  0  0  0  0  0  0  0  0  0
    4.5040   -2.6220   44.5250 C   0  0  0  0  0  0  0  0  0  0  0  0
    2.2580   -3.6600   44.1080 C   0  0  0  0  0  0  0  0  0  0  0  0
    1.0810   -3.6770   43.3370 C   0  0  0  0  0  0  0  0  0  0  0  0
    0.8870   -2.7620   42.3100 C   0  0  0  0  0  0  0  0  0  0  0  0
    6.7350   -1.6540   44.9810 C   0  0  0  0  0  0  0  0  0  0  0  0
    7.1300   -2.6780   45.7560 C   0  0  0  0  0  0  0  0  0  0  0  0
    8.3790   -2.7060   46.5220 C   0  0  0  0  0  0  0  0  0  0  0  0
    8.9760   -3.8430   47.0320 C   0  0  0  0  0  0  0  0  0  0  0  0
    9.0450   -1.5400   46.8510 C   0  0  0  0  0  0  0  0  0  0  0  0
   10.1140   -3.8450   47.7620 N   0  0  0  0  0  0  0  0  0  0  0  0
   10.1820   -1.4880   47.5780 N   0  0  0  0  0  0  0  0  0  0  0  0
   10.6610   -2.6540   48.0160 C   0  0  0  0  0  0  0  0  0  0  0  0
   11.8310   -2.6310   48.7440 N   0  0  0  0  0  0  0  0  0  0  0  0
    2.3880   -4.7020   45.2020 C   0  0  0  0  0  0  0  0  0  0  0  0
    2.0100   -6.0990   44.7000 C   0  0  0  0  0  0  0  0  0  0  0  0
    0.8860   -6.7470   45.5250 C   0  0  2  0  0  0  0  0  0  0  0  0
    1.2330   -8.1950   45.8790 C   0  0  0  0  0  0  0  0  0  0  0  0
   -0.5100   -6.7140   44.8680 C   0  0  2  0  0  0  0  0  0  0  0  0
    0.3370   -8.7410   46.8440 O   0  0  0  0  0  0  0  0  0  0  0  0
   -1.3910   -7.8800   45.3080 C   0  0  0  0  0  0  0  0  0  0  0  0
   -1.0080   -8.3250   46.6980 C   0  0  0  0  0  0  0  0  0  0  0  0
   -1.7970   -9.3580   47.0780 F   0  0  0  0  0  0  0  0  0  0  0  0
   -1.2270   -7.3190   47.5800 F   0  0  0  0  0  0  0  0  0  0  0  0
   -0.4040   -6.7540   43.4450 O   0  0  0  0  0  0  0  0  0  0  0  0
  1  2  2  0
  1  7  1  0
  1 11  1  0
  2  3  1  0
  3  4  2  0
  4  5  1  0
  4  6  1  0
  5 10  2  0
  6  8  1  0
  6  7  2  0
  8  9  2  0
  8 20  1  0
  9 10  1  0
 11 12  2  3
 12 13  1  0
 13 15  1  0
 13 14  2  0
 14 16  1  0
 15 17  2  0
 16 18  2  0
 17 18  1  0
 18 19  1  0
 20 21  1  0
 22 21  1  6
 22 24  1  0
 22 23  1  0
 23 25  1  0
 24 30  1  6
 24 26  1  0
 25 27  1  0
 26 27  1  0
 27 28  1  0
 27 29  1  0
M  END
>  <vina_dock>  (744) 
-10.043

$$$$
O14757_PocketFlow_idx-in-all-generaetd-645
     RDKit          3D

 35 40  0  0  0  0  0  0  0  0999 V2000
    6.4910   -5.7770   48.4760 C   0  0  0  0  0  0  0  0  0  0  0  0
    7.8660   -6.0270   48.1920 C   0  0  0  0  0  0  0  0  0  0  0  0
    8.3270   -7.3710   48.0960 C   0  0  0  0  0  0  0  0  0  0  0  0
    7.4120   -8.4270   48.2690 C   0  0  0  0  0  0  0  0  0  0  0  0
    6.0680   -8.1800   48.5200 C   0  0  0  0  0  0  0  0  0  0  0  0
    5.6110   -6.8690   48.6130 C   0  0  0  0  0  0  0  0  0  0  0  0
    5.9530   -4.3510   48.5550 C   0  0  0  0  0  0  0  0  0  0  0  0
    5.5330   -3.7210   47.2420 C   0  0  0  0  0  0  0  0  0  0  0  0
    0.9300   -1.6470   41.7730 C   0  0  0  0  0  0  0  0  0  0  0  0
    0.3000   -0.8170   40.9320 F   0  0  0  0  0  0  0  0  0  0  0  0
    2.2480   -1.3830   42.1340 C   0  0  0  0  0  0  0  0  0  0  0  0
    0.2540   -2.7520   42.2740 C   0  0  0  0  0  0  0  0  0  0  0  0
    2.9200   -2.2430   43.0130 C   0  0  0  0  0  0  0  0  0  0  0  0
    0.9020   -3.6070   43.1640 C   0  0  0  0  0  0  0  0  0  0  0  0
    4.3220   -2.0300   43.4630 C   0  0  0  0  0  0  0  0  0  0  0  0
    2.2290   -3.3500   43.5530 C   0  0  0  0  0  0  0  0  0  0  0  0
    5.2130   -1.4540   42.6300 C   0  0  0  0  0  0  0  0  0  0  0  0
    4.7780   -2.5810   44.7690 C   0  0  0  0  0  0  0  0  0  0  0  0
    2.9270   -4.2990   44.5070 C   0  0  0  0  0  0  0  0  0  0  0  0
    5.8240   -2.0290   45.5220 C   0  0  0  0  0  0  0  0  0  0  0  0
    4.0740   -3.6860   45.2840 C   0  0  0  0  0  0  0  0  0  0  0  0
    6.1990   -2.5940   46.7440 C   0  0  0  0  0  0  0  0  0  0  0  0
    4.4690   -4.2600   46.5050 C   0  0  0  0  0  0  0  0  0  0  0  0
    8.8080   -4.9020   48.0050 C   0  0  0  0  0  0  0  0  0  0  0  0
    9.1480   -4.4570   46.7170 C   0  0  0  0  0  0  0  0  0  0  0  0
    9.3790   -4.2500   49.1100 C   0  0  0  0  0  0  0  0  0  0  0  0
   10.0320   -3.3910   46.5390 C   0  0  0  0  0  0  0  0  0  0  0  0
   10.2640   -3.1840   48.9310 C   0  0  0  0  0  0  0  0  0  0  0  0
   10.5890   -2.7560   47.6460 C   0  0  0  0  0  0  0  0  0  0  0  0
    9.7340   -7.7180   47.8120 C   0  0  0  0  0  0  0  0  0  0  0  0
   10.1560   -8.0330   46.5070 C   0  0  0  0  0  0  0  0  0  0  0  0
   10.6810   -7.7650   48.8500 C   0  0  0  0  0  0  0  0  0  0  0  0
   11.4870   -8.3730   46.2460 C   0  0  0  0  0  0  0  0  0  0  0  0
   12.0120   -8.1090   48.5900 C   0  0  0  0  0  0  0  0  0  0  0  0
   12.4150   -8.4110   47.2880 C   0  0  0  0  0  0  0  0  0  0  0  0
  1  2  2  0
  1  7  1  0
  1  6  1  0
  2 24  1  0
  2  3  1  0
  3 30  1  0
  3  4  2  0
  4  5  1  0
  5  6  2  0
  7  8  1  0
  8 23  2  0
  8 22  1  0
  9 10  1  0
  9 11  2  0
  9 12  1  0
 11 13  1  0
 12 14  2  0
 13 15  1  0
 13 16  2  0
 14 16  1  0
 15 17  2  0
 15 18  1  0
 16 19  1  0
 18 21  2  0
 18 20  1  0
 19 21  1  0
 20 22  2  0
 21 23  1  0
 24 25  2  0
 24 26  1  0
 25 27  1  0
 26 28  2  0
 27 29  2  0
 28 29  1  0
 30 31  2  0
 30 32  1  0
 31 33  1  0
 32 34  2  0
 33 35  2  0
 34 35  1  0
M  END
>  <vina_dock>  (745) 
-9.353

$$$$
O14757_PocketFlow_idx-in-all-generaetd-636
     RDKit          3D

 35 37  0  0  0  0  0  0  0  0999 V2000
    0.2790   -3.0170   42.5400 C   0  0  0  0  0  0  0  0  0  0  0  0
    1.4210   -2.3220   42.1300 C   0  0  0  0  0  0  0  0  0  0  0  0
    0.3320   -3.9440   43.5760 C   0  0  0  0  0  0  0  0  0  0  0  0
    1.5530   -4.1830   44.2240 C   0  0  0  0  0  0  0  0  0  0  0  0
    2.7200   -3.4970   43.8480 C   0  0  0  0  0  0  0  0  0  0  0  0
    2.6380   -2.5720   42.7950 C   0  0  0  0  0  0  0  0  0  0  0  0
   -0.8990   -2.7750   41.8940 O   0  0  0  0  0  0  0  0  0  0  0  0
    1.3670   -1.3020   41.0220 C   0  0  1  0  0  0  0  0  0  0  0  0
    2.1430    0.2110   41.5580 Cl  0  0  0  0  0  0  0  0  0  0  0  0
    2.0140   -1.7230   39.8950 F   0  0  0  0  0  0  0  0  0  0  0  0
    1.5850   -5.1840   45.3080 C   0  0  0  0  0  0  0  0  0  0  0  0
    1.5460   -4.9010   46.4940 O   0  0  0  0  0  0  0  0  0  0  0  0
    1.6530   -6.4300   44.7150 O   0  0  0  0  0  0  0  0  0  0  0  0
    0.7040   -7.3580   45.1640 C   0  0  0  0  0  0  0  0  0  0  0  0
   -0.5590   -7.3180   44.5760 C   0  0  0  0  0  0  0  0  0  0  0  0
    0.9800   -8.2290   46.2160 C   0  0  0  0  0  0  0  0  0  0  0  0
   -1.5650   -8.1870   45.0250 C   0  0  0  0  0  0  0  0  0  0  0  0
   -0.0090   -9.1020   46.6590 C   0  0  0  0  0  0  0  0  0  0  0  0
   -1.2730   -9.0870   46.0640 C   0  0  0  0  0  0  0  0  0  0  0  0
   -2.9280   -8.1820   44.3810 C   0  0  0  0  0  0  0  0  0  0  0  0
   -3.7610   -7.2330   44.8970 F   0  0  0  0  0  0  0  0  0  0  0  0
   -3.5880   -9.3650   44.5180 F   0  0  0  0  0  0  0  0  0  0  0  0
   -2.8690   -7.9360   43.0430 F   0  0  0  0  0  0  0  0  0  0  0  0
    4.0040   -3.7200   44.5240 C   0  0  0  0  0  0  0  0  0  0  0  0
    4.4580   -2.9130   45.4950 C   0  0  0  0  0  0  0  0  0  0  0  0
    5.7180   -3.1650   46.2110 C   0  0  0  0  0  0  0  0  0  0  0  0
    6.9060   -2.4820   45.8750 C   0  0  0  0  0  0  0  0  0  0  0  0
    5.7210   -4.0610   47.2920 C   0  0  0  0  0  0  0  0  0  0  0  0
    6.9530   -1.4870   44.7450 C   0  0  0  0  0  0  0  0  0  0  0  0
    8.0720   -2.7180   46.6240 C   0  0  0  0  0  0  0  0  0  0  0  0
    6.8910   -4.2870   48.0220 C   0  0  0  0  0  0  0  0  0  0  0  0
    8.0690   -3.6180   47.6900 C   0  0  0  0  0  0  0  0  0  0  0  0
    6.8740   -5.2230   49.1620 C   0  0  0  0  0  0  0  0  0  0  0  0
    7.8530   -5.5110   49.8330 O   0  0  0  0  0  0  0  0  0  0  0  0
    5.7100   -5.8100   49.4750 F   0  0  0  0  0  0  0  0  0  0  0  0
  1  7  1  0
  1  2  2  0
  1  3  1  0
  2  8  1  0
  2  6  1  0
  3  4  2  0
  4  5  1  0
  4 11  1  0
  5  6  2  0
  5 24  1  0
  8 10  1  6
  8  9  1  0
 11 13  1  0
 11 12  2  0
 13 14  1  0
 14 15  2  0
 14 16  1  0
 15 17  1  0
 16 18  2  0
 17 20  1  0
 17 19  2  0
 18 19  1  0
 20 23  1  0
 20 22  1  0
 20 21  1  0
 24 25  2  3
 25 26  1  0
 26 27  2  0
 26 28  1  0
 27 29  1  0
 27 30  1  0
 28 31  2  0
 30 32  2  0
 31 32  1  0
 31 33  1  0
 33 35  1  0
 33 34  2  0
M  END
>  <vina_dock>  (746) 
-10.274

$$$$
O14757_PocketFlow_idx-in-all-generaetd-637
     RDKit          3D

 13 13  0  0  0  0  0  0  0  0999 V2000
    0.9820   -3.4450   43.7380 C   0  0  0  0  0  0  0  0  0  0  0  0
    2.3660   -3.9090   43.6940 N   0  0  0  0  0  0  0  0  0  0  0  0
    3.0270   -3.7820   44.9950 C   0  0  0  0  0  0  0  0  0  0  0  0
    4.3030   -2.9810   44.8680 C   0  0  0  0  0  0  0  0  0  0  0  0
    5.5960   -1.2160   43.8130 C   0  0  0  0  0  0  0  0  0  0  0  0
    6.6740   -1.4960   44.6500 C   0  0  0  0  0  0  0  0  0  0  0  0
    4.4150   -1.9520   43.9220 C   0  0  0  0  0  0  0  0  0  0  0  0
    6.5730   -2.5120   45.6000 C   0  0  0  0  0  0  0  0  0  0  0  0
    5.3930   -3.2500   45.7080 C   0  0  0  0  0  0  0  0  0  0  0  0
    0.3490   -3.4650   42.3810 C   0  0  0  0  0  0  0  0  0  0  0  0
    0.6460   -2.7210   41.3030 C   0  0  0  0  0  0  0  0  0  0  0  0
    1.6780   -1.7170   41.2090 C   0  0  0  0  0  0  0  0  0  0  0  0
    1.4670   -0.4330   41.5180 C   0  0  0  0  0  0  0  0  0  0  0  0
  1 10  1  0
  1  2  1  0
  2  3  1  0
  3  4  1  0
  4  7  2  0
  4  9  1  0
  5  7  1  0
  5  6  2  0
  6  8  1  0
  8  9  2  0
 10 11  2  3
 11 12  1  0
 12 13  2  0
M  END
>  <vina_dock>  (747) 
-5.968

$$$$
O14757_PocketFlow_idx-in-all-generaetd-981
     RDKit          3D

 35 37  0  0  0  0  0  0  0  0999 V2000
    5.1470   -7.7150   47.6670 C   0  0  0  0  0  0  0  0  0  0  0  0
    6.1700   -8.6070   48.0310 C   0  0  0  0  0  0  0  0  0  0  0  0
    7.2290   -8.1810   48.8290 C   0  0  0  0  0  0  0  0  0  0  0  0
    7.2760   -6.8630   49.2860 C   0  0  0  0  0  0  0  0  0  0  0  0
    6.2580   -5.9700   48.9530 C   0  0  0  0  0  0  0  0  0  0  0  0
    5.1990   -6.3960   48.1440 C   0  0  0  0  0  0  0  0  0  0  0  0
    3.9910   -8.1700   46.7990 C   0  0  0  0  0  0  0  0  0  0  0  0
    3.5880   -7.1430   45.7740 C   0  0  0  0  0  0  0  0  0  0  0  0
    2.3790   -7.0590   45.2090 C   0  0  0  0  0  0  0  0  0  0  0  0
    1.3420   -7.9070   45.5230 O   0  0  0  0  0  0  0  0  0  0  0  0
   -0.1710   -7.4280   45.7600 P   0  0  0  0  0  0  0  0  0  0  0  0
   -1.1920   -8.4910   45.9920 O   0  0  0  0  0  0  0  0  0  0  0  0
   -0.4990   -6.4080   44.5780 O   0  0  0  0  0  0  0  0  0  0  0  0
   -0.0790   -6.4330   47.0140 O   0  0  0  0  0  0  0  0  0  0  0  0
    6.3020   -4.5900   49.4330 C   0  0  0  0  0  0  0  0  0  0  0  0
    7.2520   -3.6980   49.1130 C   0  0  0  0  0  0  0  0  0  0  0  0
    8.4800   -3.9430   48.2590 C   0  0  2  0  0  0  0  0  0  0  0  0
    9.4890   -2.8290   48.5500 C   0  0  0  0  0  0  0  0  0  0  0  0
    8.1490   -4.0830   46.7580 C   0  0  1  0  0  0  0  0  0  0  0  0
    9.5190   -1.7490   47.7190 N   0  0  0  0  0  0  0  0  0  0  0  0
   10.2130   -2.8360   49.5440 O   0  0  0  0  0  0  0  0  0  0  0  0
    7.9560   -2.7380   46.0450 C   0  0  2  0  0  0  0  0  0  0  0  0
    9.1540   -1.8290   46.3200 C   0  0  0  0  0  0  0  0  0  0  0  0
    9.1730   -4.8310   46.0720 O   0  0  0  0  0  0  0  0  0  0  0  0
    6.7620   -2.1010   46.5320 O   0  0  0  0  0  0  0  0  0  0  0  0
    5.6720   -2.3610   45.7460 C   0  0  0  0  0  0  0  0  0  0  0  0
    4.8220   -3.3850   46.1540 C   0  0  0  0  0  0  0  0  0  0  0  0
    5.4320   -1.6910   44.5450 C   0  0  0  0  0  0  0  0  0  0  0  0
    3.6950   -3.7020   45.3910 C   0  0  0  0  0  0  0  0  0  0  0  0
    4.3120   -2.0060   43.7750 C   0  0  0  0  0  0  0  0  0  0  0  0
    3.4280   -3.0130   44.1980 C   0  0  0  0  0  0  0  0  0  0  0  0
    6.2980   -0.7130   44.1350 O   0  0  0  0  0  0  0  0  0  0  0  0
    2.1840   -3.3130   43.4030 C   0  0  0  0  0  0  0  0  0  0  0  0
    1.9570   -2.4200   42.3910 F   0  0  0  0  0  0  0  0  0  0  0  0
    1.0520   -3.3090   44.1680 F   0  0  0  0  0  0  0  0  0  0  0  0
  1  7  1  0
  1  2  2  0
  1  6  1  0
  2  3  1  0
  3  4  2  0
  4  5  1  0
  5  6  2  0
  5 15  1  0
  7  8  1  0
  8  9  2  3
  9 10  1  0
 10 11  1  0
 11 13  1  0
 11 12  2  0
 11 14  1  0
 15 16  2  3
 17 16  1  1
 17 19  1  0
 17 18  1  0
 18 20  1  0
 18 21  2  0
 19 22  1  0
 19 24  1  6
 20 23  1  0
 22 23  1  0
 22 25  1  1
 25 26  1  0
 26 28  1  0
 26 27  2  0
 27 29  1  0
 28 30  2  0
 28 32  1  0
 29 31  2  0
 30 31  1  0
 31 33  1  0
 33 34  1  0
 33 35  1  0
M  END
>  <vina_dock>  (748) 
-7.291

$$$$
O14757_PocketFlow_idx-in-all-generaetd-641
     RDKit          3D

 11 11  0  0  0  0  0  0  0  0999 V2000
    4.9660   -1.0350   44.3330 C   0  0  0  0  0  0  0  0  0  0  0  0
    5.1220   -0.0010   43.5690 N   0  0  0  0  0  0  0  0  0  0  0  0
    4.8480   -2.4440   43.7710 C   0  0  0  0  0  0  0  0  0  0  0  0
    3.4240   -2.9460   43.7640 C   0  0  0  0  0  0  0  0  0  0  0  0
    2.5240   -2.5140   42.7770 C   0  0  0  0  0  0  0  0  0  0  0  0
    2.9830   -3.8520   44.7370 C   0  0  0  0  0  0  0  0  0  0  0  0
    1.1960   -2.9630   42.7690 C   0  0  0  0  0  0  0  0  0  0  0  0
    1.6670   -4.3150   44.7240 C   0  0  0  0  0  0  0  0  0  0  0  0
    0.2520   -2.5160   41.6910 C   0  0  0  0  0  0  0  0  0  0  0  0
    0.7790   -3.8760   43.7430 C   0  0  0  0  0  0  0  0  0  0  0  0
    4.9030   -0.8340   45.6810 N   0  0  0  0  0  0  0  0  0  0  0  0
  1  2  2  3
  1  3  1  0
  1 11  1  0
  3  4  1  0
  4  5  2  0
  4  6  1  0
  5  7  1  0
  6  8  2  0
  7  9  1  0
  7 10  2  0
  8 10  1  0
M  END
>  <vina_dock>  (749) 
-6.196

$$$$
O14757_PocketFlow_idx-in-all-generaetd-966
     RDKit          3D

  5  4  0  0  0  0  0  0  0  0999 V2000
    5.3640   -1.0720   43.8770 C   0  0  0  0  0  0  0  0  0  0  0  0
    4.6070   -0.8870   44.9720 F   0  0  0  0  0  0  0  0  0  0  0  0
    4.9560   -2.1780   43.2330 F   0  0  0  0  0  0  0  0  0  0  0  0
    6.6500   -1.2120   44.2400 F   0  0  0  0  0  0  0  0  0  0  0  0
    5.2420   -0.0090   43.0650 F   0  0  0  0  0  0  0  0  0  0  0  0
  1  5  1  0
  1  3  1  0
  1  4  1  0
  1  2  1  0
M  END
>  <vina_dock>  (750) 
-3.003

$$$$
O14757_PocketFlow_idx-in-all-generaetd-865
     RDKit          3D

 10 10  0  0  0  0  0  0  0  0999 V2000
    4.3710   -1.9000   43.1290 N   0  0  0  0  0  0  0  0  0  0  0  0
    4.7930   -0.6880   43.6050 C   0  0  0  0  0  0  0  0  0  0  0  0
    4.9390    0.3630   42.9990 O   0  0  0  0  0  0  0  0  0  0  0  0
    5.0770   -0.7430   44.9390 N   0  0  0  0  0  0  0  0  0  0  0  0
    3.0460   -2.3480   42.9690 C   0  0  0  0  0  0  0  0  0  0  0  0
    2.2890   -1.7650   41.9450 C   0  0  0  0  0  0  0  0  0  0  0  0
    2.4630   -3.3410   43.7590 C   0  0  0  0  0  0  0  0  0  0  0  0
    0.9690   -2.1630   41.7190 C   0  0  0  0  0  0  0  0  0  0  0  0
    1.1410   -3.7390   43.5330 C   0  0  0  0  0  0  0  0  0  0  0  0
    0.3940   -3.1510   42.5150 C   0  0  0  0  0  0  0  0  0  0  0  0
  1  5  1  0
  1  2  1  0
  2  3  2  0
  2  4  1  0
  5  6  2  0
  5  7  1  0
  6  8  1  0
  7  9  2  0
  8 10  2  0
  9 10  1  0
M  END
>  <vina_dock>  (751) 
-5.288

$$$$
O14757_PocketFlow_idx-in-all-generaetd-422
     RDKit          3D

 33 37  0  0  0  0  0  0  0  0999 V2000
    0.6910   -2.8330   41.8090 C   0  0  0  0  0  0  0  0  0  0  0  0
    0.4920   -3.8420   42.7280 C   0  0  0  0  0  0  0  0  0  0  0  0
    1.8030   -2.0200   41.8900 C   0  0  0  0  0  0  0  0  0  0  0  0
    2.7470   -2.1980   42.9080 C   0  0  0  0  0  0  0  0  0  0  0  0
    3.8360   -1.3140   42.9290 C   0  0  0  0  0  0  0  0  0  0  0  0
    4.7980   -1.3610   43.9250 C   0  0  0  0  0  0  0  0  0  0  0  0
    4.7310   -2.3950   44.8500 C   0  0  0  0  0  0  0  0  0  0  0  0
    3.6670   -3.3320   44.8700 C   0  0  0  0  0  0  0  0  0  0  0  0
    2.6060   -3.2330   43.8840 C   0  0  0  0  0  0  0  0  0  0  0  0
    1.4260   -4.0710   43.7640 C   0  0  0  0  0  0  0  0  0  0  0  0
   -0.2040   -2.6370   40.8310 F   0  0  0  0  0  0  0  0  0  0  0  0
    3.6560   -4.4070   45.9770 C   0  0  1  0  0  0  0  0  0  0  0  0
    3.4400   -5.7950   45.4150 C   0  0  0  0  0  0  0  0  0  0  0  0
    2.2740   -6.1570   44.8610 C   0  0  0  0  0  0  0  0  0  0  0  0
    1.1220   -5.2020   44.7510 C   0  0  2  0  0  0  0  0  0  0  0  0
   -0.0150   -5.9760   44.3430 O   0  0  0  0  0  0  0  0  0  0  0  0
   -0.2430   -7.1100   45.1790 C   0  0  0  0  0  0  0  0  0  0  0  0
   -1.5010   -7.8060   44.7030 C   0  0  0  0  0  0  0  0  0  0  0  0
    5.9240   -0.5350   43.8670 N   0  0  0  0  0  0  0  0  0  0  0  0
    4.8760   -4.4430   46.8810 C   0  0  0  0  0  0  0  0  0  0  0  0
    5.2400   -5.5060   47.6200 C   0  0  0  0  0  0  0  0  0  0  0  0
    6.4280   -5.5500   48.4860 C   0  0  0  0  0  0  0  0  0  0  0  0
    7.2430   -4.4110   48.5700 C   0  0  0  0  0  0  0  0  0  0  0  0
    6.8070   -6.7020   49.1830 C   0  0  0  0  0  0  0  0  0  0  0  0
    8.4100   -4.3940   49.3540 C   0  0  0  0  0  0  0  0  0  0  0  0
    7.9600   -6.7060   49.9690 C   0  0  0  0  0  0  0  0  0  0  0  0
    8.7520   -5.5610   50.0540 C   0  0  0  0  0  0  0  0  0  0  0  0
    9.2500   -3.1870   49.4350 C   0  0  0  0  0  0  0  0  0  0  0  0
    9.1460   -2.3040   50.5220 C   0  0  0  0  0  0  0  0  0  0  0  0
   10.1800   -2.8840   48.4260 C   0  0  0  0  0  0  0  0  0  0  0  0
    9.9430   -1.1570   50.5980 C   0  0  0  0  0  0  0  0  0  0  0  0
   10.9760   -1.7380   48.4990 C   0  0  0  0  0  0  0  0  0  0  0  0
   10.8570   -0.8740   49.5850 C   0  0  0  0  0  0  0  0  0  0  0  0
  1 11  1  0
  1  3  2  0
  1  2  1  0
  2 10  2  0
  3  4  1  0
  4  5  2  0
  4  9  1  0
  5  6  1  0
  6 19  1  0
  6  7  2  0
  7  8  1  0
  8  9  2  0
  8 12  1  0
  9 10  1  0
 10 15  1  0
 12 13  1  0
 12 20  1  6
 13 14  2  0
 14 15  1  0
 15 16  1  6
 16 17  1  0
 17 18  1  0
 20 21  2  3
 21 22  1  0
 22 23  2  0
 22 24  1  0
 23 25  1  0
 24 26  2  0
 25 28  1  0
 25 27  2  0
 26 27  1  0
 28 30  1  0
 28 29  2  0
 29 31  1  0
 30 32  2  0
 31 33  2  0
 32 33  1  0
M  END
>  <vina_dock>  (752) 
-9.699

$$$$
O14757_PocketFlow_idx-in-all-generaetd-682
     RDKit          3D

 26 28  0  0  0  0  0  0  0  0999 V2000
    4.5540   -1.4980   42.7510 C   0  0  0  0  0  0  0  0  0  0  0  0
    3.0890   -1.8600   42.5950 C   0  0  0  0  0  0  0  0  0  0  0  0
    2.5940   -4.9660   44.6900 C   0  0  0  0  0  0  0  0  0  0  0  0
    3.2160   -3.8750   44.0760 C   0  0  0  0  0  0  0  0  0  0  0  0
    1.2340   -5.2100   44.5000 C   0  0  0  0  0  0  0  0  0  0  0  0
    2.5020   -2.9840   43.2440 C   0  0  0  0  0  0  0  0  0  0  0  0
    0.5090   -4.3350   43.6820 C   0  0  0  0  0  0  0  0  0  0  0  0
    1.1190   -3.2330   43.0560 C   0  0  0  0  0  0  0  0  0  0  0  0
    2.2920   -1.0210   41.7970 C   0  0  0  0  0  0  0  0  0  0  0  0
    0.3560   -2.3780   42.2480 C   0  0  0  0  0  0  0  0  0  0  0  0
    0.9370   -1.2790   41.6230 C   0  0  0  0  0  0  0  0  0  0  0  0
    0.4760   -6.6020   45.2570 P   0  0  0  0  0  0  0  0  0  0  0  0
    1.1980   -7.9100   45.2880 O   0  0  0  0  0  0  0  0  0  0  0  0
   -0.9710   -6.7320   44.5700 O   0  0  0  0  0  0  0  0  0  0  0  0
   -0.0010   -6.1650   46.7260 O   0  0  0  0  0  0  0  0  0  0  0  0
    4.8230   -0.7680   44.0700 C   0  0  0  0  0  0  0  0  0  0  0  0
    5.5470   -1.6530   45.0550 C   0  0  0  0  0  0  0  0  0  0  0  0
    4.8450   -2.2820   46.0910 C   0  0  0  0  0  0  0  0  0  0  0  0
    6.9220   -1.8820   44.9270 C   0  0  0  0  0  0  0  0  0  0  0  0
    5.5100   -3.1200   46.9890 C   0  0  0  0  0  0  0  0  0  0  0  0
    7.5860   -2.7210   45.8260 C   0  0  0  0  0  0  0  0  0  0  0  0
    6.8880   -3.3450   46.8690 C   0  0  0  0  0  0  0  0  0  0  0  0
    7.6100   -4.2650   47.8220 C   0  0  0  0  0  0  0  0  0  0  0  0
    8.7090   -4.8370   47.2560 F   0  0  0  0  0  0  0  0  0  0  0  0
    8.0560   -3.6250   48.9400 F   0  0  0  0  0  0  0  0  0  0  0  0
    6.8420   -5.2970   48.2700 F   0  0  0  0  0  0  0  0  0  0  0  0
  1  2  1  0
  1 16  1  0
  2  9  1  0
  2  6  2  0
  3  4  2  0
  3  5  1  0
  4  6  1  0
  5  7  2  0
  5 12  1  0
  6  8  1  0
  7  8  1  0
  8 10  2  0
  9 11  2  0
 10 11  1  0
 12 14  1  0
 12 13  2  0
 12 15  1  0
 16 17  1  0
 17 19  1  0
 17 18  2  0
 18 20  1  0
 19 21  2  0
 20 22  2  0
 21 22  1  0
 22 23  1  0
 23 24  1  0
 23 26  1  0
 23 25  1  0
M  END
>  <vina_dock>  (753) 
-9.513

$$$$
O14757_PocketFlow_idx-in-all-generaetd-33
     RDKit          3D

 14 16  0  0  0  0  0  0  0  0999 V2000
    2.4000   -5.0180   44.9520 C   0  0  0  0  0  0  0  0  0  0  0  0
    3.7380   -5.5290   44.6170 C   0  0  0  0  0  0  0  0  0  0  0  0
    1.4110   -5.3990   45.7570 C   0  0  0  0  0  0  0  0  0  0  0  0
    0.2650   -4.4530   45.6820 C   0  0  0  0  0  0  0  0  0  0  0  0
    0.6690   -3.4410   44.6820 N   0  0  0  0  0  0  0  0  0  0  0  0
    1.8730   -3.8080   44.3330 C   0  0  0  0  0  0  0  0  0  0  0  0
    2.6940   -3.0860   43.3080 C   0  0  0  0  0  0  0  0  0  0  0  0
    4.0340   -2.5800   43.8010 C   0  0  0  0  0  0  0  0  0  0  0  0
    4.3860   -1.2720   43.3900 C   0  0  0  0  0  0  0  0  0  0  0  0
    5.5910   -0.6840   43.7650 C   0  0  0  0  0  0  0  0  0  0  0  0
    6.4720   -1.3930   44.5640 C   0  0  0  0  0  0  0  0  0  0  0  0
    6.1470   -2.6890   44.9650 C   0  0  0  0  0  0  0  0  0  0  0  0
    4.9510   -3.3280   44.5700 C   0  0  0  0  0  0  0  0  0  0  0  0
    4.7420   -4.6040   45.1010 N   0  0  0  0  0  0  0  0  0  0  0  0
  1  6  2  0
  1  2  1  0
  1  3  1  0
  2 14  1  0
  3  4  1  0
  4  5  2  0
  5  6  1  0
  6  7  1  0
  7  8  1  0
  8  9  2  0
  8 13  1  0
  9 10  1  0
 10 11  2  0
 11 12  1  0
 12 13  2  0
 13 14  1  0
M  END
>  <vina_dock>  (754) 
-6.879

$$$$
O14757_PocketFlow_idx-in-all-generaetd-702
     RDKit          3D

 35 37  0  0  0  0  0  0  0  0999 V2000
   11.6270   -4.5840   45.6110 O   0  0  0  0  0  0  0  0  0  0  0  0
   11.3650   -3.7540   46.4750 C   0  0  0  0  0  0  0  0  0  0  0  0
   11.2670   -4.0590   47.8160 N   0  0  0  0  0  0  0  0  0  0  0  0
   11.0780   -2.3040   46.1420 C   0  0  0  0  0  0  0  0  0  0  0  0
    9.9270   -1.7080   46.9510 C   0  0  0  0  0  0  0  0  0  0  0  0
    8.5680   -2.0280   46.3800 C   0  0  0  0  0  0  0  0  0  0  0  0
    7.8410   -3.1330   46.8370 C   0  0  0  0  0  0  0  0  0  0  0  0
    8.0020   -1.2090   45.3990 C   0  0  0  0  0  0  0  0  0  0  0  0
    6.5760   -3.4200   46.3120 C   0  0  0  0  0  0  0  0  0  0  0  0
    6.7380   -1.4990   44.8740 C   0  0  0  0  0  0  0  0  0  0  0  0
    6.0040   -2.6090   45.3190 C   0  0  0  0  0  0  0  0  0  0  0  0
    4.6750   -2.9070   44.7630 C   0  0  0  0  0  0  0  0  0  0  0  0
    4.1900   -2.2270   43.6370 C   0  0  0  0  0  0  0  0  0  0  0  0
    3.8480   -3.8700   45.3460 C   0  0  0  0  0  0  0  0  0  0  0  0
    2.9060   -2.4640   43.1150 C   0  0  0  0  0  0  0  0  0  0  0  0
    2.5670   -4.1460   44.8310 C   0  0  0  0  0  0  0  0  0  0  0  0
    2.4610   -1.7290   42.0040 C   0  0  0  0  0  0  0  0  0  0  0  0
    2.0580   -3.4270   43.7160 C   0  0  0  0  0  0  0  0  0  0  0  0
    1.1820   -1.9110   41.4830 C   0  0  0  0  0  0  0  0  0  0  0  0
    0.7560   -3.5750   43.1720 C   0  0  0  0  0  0  0  0  0  0  0  0
    0.3260   -2.8290   42.0720 C   0  0  0  0  0  0  0  0  0  0  0  0
    1.8220   -5.2020   45.5540 C   0  0  0  0  0  0  0  0  0  0  0  0
    1.8200   -6.3860   45.2640 O   0  0  0  0  0  0  0  0  0  0  0  0
    1.0320   -4.7250   46.5300 O   0  0  0  0  0  0  0  0  0  0  0  0
   11.4450   -5.4180   48.2790 C   0  0  0  0  0  0  0  0  0  0  0  0
   11.3070   -5.4120   49.7670 C   0  0  0  0  0  0  0  0  0  0  0  0
   10.2180   -5.2420   50.5370 C   0  0  0  0  0  0  0  0  0  0  0  0
    8.8190   -4.9830   50.1950 C   0  0  0  0  0  0  0  0  0  0  0  0
    8.0350   -5.9830   49.7330 C   0  0  0  0  0  0  0  0  0  0  0  0
    8.2710   -3.5850   50.4410 C   0  0  0  0  0  0  0  0  0  0  0  0
    9.2550   -2.4180   50.4040 C   0  0  0  0  0  0  0  0  0  0  0  0
    8.4120   -7.4090   49.4060 C   0  0  0  0  0  0  0  0  0  0  0  0
    7.4350   -8.0760   48.4350 C   0  0  0  0  0  0  0  0  0  0  0  0
    6.0850   -7.9220   48.8790 O   0  0  0  0  0  0  0  0  0  0  0  0
    5.1470   -7.9390   47.8130 C   0  0  0  0  0  0  0  0  0  0  0  0
  1  2  2  0
  2  4  1  0
  2  3  1  0
  3 25  1  0
  4  5  1  0
  5  6  1  0
  6  8  2  0
  6  7  1  0
  7  9  2  0
  8 10  1  0
  9 11  1  0
 10 11  2  0
 11 12  1  0
 12 13  2  0
 12 14  1  0
 13 15  1  0
 14 16  2  0
 15 17  2  0
 15 18  1  0
 16 18  1  0
 16 22  1  0
 17 19  1  0
 18 20  2  0
 19 21  2  0
 20 21  1  0
 22 23  2  0
 22 24  1  0
 25 26  1  0
 26 27  2  3
 27 28  1  0
 28 29  2  3
 28 30  1  0
 29 32  1  0
 30 31  1  0
 32 33  1  0
 33 34  1  0
 34 35  1  0
M  END
>  <vina_dock>  (755) 
-7.877

$$$$
O14757_PocketFlow_idx-in-all-generaetd-656
     RDKit          3D

 10  9  0  0  0  0  0  0  0  0999 V2000
    2.2740   -2.2260   42.5110 C   0  0  0  0  0  0  0  0  0  0  0  0
    3.4700   -1.6240   42.5940 C   0  0  0  0  0  0  0  0  0  0  0  0
    1.1750   -1.7800   41.5820 C   0  0  0  0  0  0  0  0  0  0  0  0
   -0.0390   -2.7010   41.6290 C   0  0  1  0  0  0  0  0  0  0  0  0
    0.1030   -3.6800   40.7000 F   0  0  0  0  0  0  0  0  0  0  0  0
   -0.1210   -3.3860   42.8640 O   0  0  0  0  0  0  0  0  0  0  0  0
    4.5150   -2.0650   43.4920 C   0  0  0  0  0  0  0  0  0  0  0  0
    5.4620   -1.2620   44.0020 C   0  0  0  0  0  0  0  0  0  0  0  0
    6.5320   -1.7560   44.9290 C   0  0  0  0  0  0  0  0  0  0  0  0
    5.4980    0.0850   43.6930 O   0  0  0  0  0  0  0  0  0  0  0  0
  1  3  1  0
  1  2  2  3
  2  7  1  0
  3  4  1  0
  4  5  1  0
  4  6  1  1
  7  8  2  3
  8 10  1  0
  8  9  1  0
M  END
>  <vina_dock>  (756) 
-5.438

$$$$
O14757_PocketFlow_idx-in-all-generaetd-216
     RDKit          3D

 13 14  0  0  0  0  0  0  0  0999 V2000
    3.1700   -3.0710   44.0290 C   0  0  0  0  0  0  0  0  0  0  0  0
    4.4170   -2.9800   44.6750 C   0  0  0  0  0  0  0  0  0  0  0  0
    5.3300   -2.0150   44.2630 C   0  0  0  0  0  0  0  0  0  0  0  0
    4.9390   -1.2050   43.2090 C   0  0  0  0  0  0  0  0  0  0  0  0
    2.8530   -2.2010   42.9890 C   0  0  0  0  0  0  0  0  0  0  0  0
    3.7370   -1.2830   42.5900 N   0  0  0  0  0  0  0  0  0  0  0  0
    1.6820   -2.2590   42.3660 N   0  0  0  0  0  0  0  0  0  0  0  0
    0.8000   -3.1730   42.7690 C   0  0  0  0  0  0  0  0  0  0  0  0
    1.0090   -4.0680   43.7340 N   0  0  0  0  0  0  0  0  0  0  0  0
    2.1950   -3.9950   44.3560 C   0  0  0  0  0  0  0  0  0  0  0  0
    6.6770   -1.8710   44.8970 C   0  0  0  0  0  0  0  0  0  0  0  0
    7.0540   -3.2990   45.8800 Cl  0  0  0  0  0  0  0  0  0  0  0  0
   -0.4080   -3.2280   42.1060 N   0  0  0  0  0  0  0  0  0  0  0  0
  1  5  1  0
  1 10  1  0
  1  2  2  0
  2  3  1  0
  3  4  2  0
  3 11  1  0
  4  6  1  0
  5  7  1  0
  5  6  2  0
  7  8  2  0
  8 13  1  0
  8  9  1  0
  9 10  2  0
 11 12  1  0
M  END
>  <vina_dock>  (757) 
-6.256

$$$$
O14757_PocketFlow_idx-in-all-generaetd-174
     RDKit          3D

 13 14  0  0  0  0  0  0  0  0999 V2000
    3.5470   -2.4260   43.1250 C   0  0  0  0  0  0  0  0  0  0  0  0
    3.6930   -3.0690   44.3670 C   0  0  0  0  0  0  0  0  0  0  0  0
    4.3130   -1.3080   42.7960 C   0  0  0  0  0  0  0  0  0  0  0  0
    5.2420   -0.8140   43.7060 C   0  0  0  0  0  0  0  0  0  0  0  0
    5.4040   -1.4360   44.9440 C   0  0  0  0  0  0  0  0  0  0  0  0
    4.6380   -2.5640   45.2880 C   0  0  0  0  0  0  0  0  0  0  0  0
    4.8440   -3.2050   46.6340 C   0  0  0  0  0  0  0  0  0  0  0  0
    2.8610   -4.2420   44.6630 C   0  0  0  0  0  0  0  0  0  0  0  0
    3.3980   -5.5370   44.5940 C   0  0  0  0  0  0  0  0  0  0  0  0
    1.5110   -4.0930   45.0120 C   0  0  0  0  0  0  0  0  0  0  0  0
    2.6060   -6.6530   44.8720 C   0  0  0  0  0  0  0  0  0  0  0  0
    0.7180   -5.2090   45.2900 C   0  0  0  0  0  0  0  0  0  0  0  0
    1.2670   -6.4890   45.2200 C   0  0  0  0  0  0  0  0  0  0  0  0
  1  3  2  0
  1  2  1  0
  2  8  1  0
  2  6  2  0
  3  4  1  0
  4  5  2  0
  5  6  1  0
  6  7  1  0
  8  9  2  0
  8 10  1  0
  9 11  1  0
 10 12  2  0
 11 13  2  0
 12 13  1  0
M  END
>  <vina_dock>  (758) 
-6.878

$$$$
O14757_PocketFlow_idx-in-all-generaetd-427
     RDKit          3D

 10 10  0  0  0  0  0  0  0  0999 V2000
    2.5870   -3.2780   43.5400 C   0  0  0  0  0  0  0  0  0  0  0  0
    1.6510   -2.6990   42.7710 C   0  0  0  0  0  0  0  0  0  0  0  0
    3.8900   -2.6980   43.9270 C   0  0  0  0  0  0  0  0  0  0  0  0
    5.9610   -2.6620   45.2080 C   0  0  0  0  0  0  0  0  0  0  0  0
    4.7390   -3.2630   44.8890 C   0  0  0  0  0  0  0  0  0  0  0  0
    6.3530   -1.4870   44.5720 C   0  0  0  0  0  0  0  0  0  0  0  0
    5.5230   -0.9120   43.6150 C   0  0  0  0  0  0  0  0  0  0  0  0
    4.3020   -1.5140   43.2960 C   0  0  0  0  0  0  0  0  0  0  0  0
    0.4010   -3.3500   42.4470 C   0  0  0  0  0  0  0  0  0  0  0  0
   -0.0930   -3.4010   41.2050 C   0  0  0  0  0  0  0  0  0  0  0  0
  1  2  2  3
  1  3  1  0
  2  9  1  0
  3  8  2  0
  3  5  1  0
  4  6  1  0
  4  5  2  0
  6  7  2  0
  7  8  1  0
  9 10  2  0
M  END
>  <vina_dock>  (759) 
-5.862

$$$$
O14757_PocketFlow_idx-in-all-generaetd-39
     RDKit          3D

 16 17  0  0  0  0  0  0  0  0999 V2000
    2.5610   -4.6400   45.0100 C   0  0  0  0  0  0  0  0  0  0  0  0
    1.3900   -4.3720   44.3040 C   0  0  0  0  0  0  0  0  0  0  0  0
    3.7310   -3.8940   44.7900 C   0  0  0  0  0  0  0  0  0  0  0  0
    3.7240   -2.8330   43.8460 C   0  0  0  0  0  0  0  0  0  0  0  0
    2.5300   -2.6090   43.1230 C   0  0  0  0  0  0  0  0  0  0  0  0
    1.3780   -3.3640   43.3510 C   0  0  0  0  0  0  0  0  0  0  0  0
    4.9150   -1.8930   43.5430 C   0  0  1  0  0  0  0  0  0  0  0  0
    4.5240   -0.4220   43.7880 C   0  0  0  0  0  0  0  0  0  0  0  0
    6.2060   -2.2640   44.2450 C   0  0  0  0  0  0  0  0  0  0  0  0
    6.7190   -1.6930   45.3460 C   0  0  0  0  0  0  0  0  0  0  0  0
    7.7610   -2.3120   46.1210 C   0  0  0  0  0  0  0  0  0  0  0  0
    7.6470   -3.3840   46.9240 C   0  0  0  0  0  0  0  0  0  0  0  0
    6.4930   -4.2850   47.3440 C   0  0  0  0  0  0  0  0  0  0  0  0
    5.0220   -4.1110   46.8870 C   0  0  2  0  0  0  0  0  0  0  0  0
    4.9110   -4.2690   45.4470 N   0  0  0  0  0  0  0  0  0  0  0  0
    4.5230   -2.8610   47.3100 O   0  0  0  0  0  0  0  0  0  0  0  0
  1  2  2  0
  1  3  1  0
  2  6  1  0
  3  4  2  0
  3 15  1  0
  4  5  1  0
  4  7  1  0
  5  6  2  0
  7  8  1  1
  7  9  1  0
  9 10  2  3
 10 11  1  0
 11 12  2  3
 12 13  1  0
 13 14  1  0
 14 15  1  0
 14 16  1  6
M  END
>  <vina_dock>  (760) 
-7.541

$$$$
O14757_PocketFlow_idx-in-all-generaetd-992
     RDKit          3D

 20 22  0  0  0  0  0  0  0  0999 V2000
    0.3310   -4.6600   44.7240 N   0  0  0  0  0  0  0  0  0  0  0  0
    0.5580   -5.9110   45.3640 C   0  0  0  0  0  0  0  0  0  0  0  0
   -0.4130   -6.3940   46.2520 C   0  0  0  0  0  0  0  0  0  0  0  0
   -0.3190   -7.6570   46.8230 C   0  0  0  0  0  0  0  0  0  0  0  0
    0.7620   -8.4740   46.4950 C   0  0  0  0  0  0  0  0  0  0  0  0
    1.6200   -6.7530   45.0180 C   0  0  0  0  0  0  0  0  0  0  0  0
    1.7280   -8.0230   45.5920 C   0  0  0  0  0  0  0  0  0  0  0  0
   -1.4740   -5.6000   46.5940 O   0  0  0  0  0  0  0  0  0  0  0  0
    1.3120   -3.8660   44.0780 C   0  0  0  0  0  0  0  0  0  0  0  0
    2.5850   -3.6650   44.6320 C   0  0  0  0  0  0  0  0  0  0  0  0
    0.9640   -3.1440   42.9300 C   0  0  0  0  0  0  0  0  0  0  0  0
    3.5350   -2.8220   44.0270 C   0  0  0  0  0  0  0  0  0  0  0  0
    1.8880   -2.3020   42.3110 C   0  0  0  0  0  0  0  0  0  0  0  0
    3.1650   -2.1490   42.8530 C   0  0  0  0  0  0  0  0  0  0  0  0
    4.8740   -2.6420   44.6150 C   0  0  0  0  0  0  0  0  0  0  0  0
    5.6860   -1.5550   44.2500 C   0  0  0  0  0  0  0  0  0  0  0  0
    5.3790   -3.5520   45.5590 C   0  0  0  0  0  0  0  0  0  0  0  0
    6.9570   -1.3840   44.8060 C   0  0  0  0  0  0  0  0  0  0  0  0
    6.6480   -3.3830   46.1170 C   0  0  0  0  0  0  0  0  0  0  0  0
    7.4370   -2.2980   45.7400 C   0  0  0  0  0  0  0  0  0  0  0  0
  1  9  1  0
  1  2  1  0
  2  6  1  0
  2  3  2  0
  3  8  1  0
  3  4  1  0
  4  5  2  0
  5  7  1  0
  6  7  2  0
  9 11  1  0
  9 10  2  0
 10 12  1  0
 11 13  2  0
 12 14  2  0
 12 15  1  0
 13 14  1  0
 15 16  2  0
 15 17  1  0
 16 18  1  0
 17 19  2  0
 18 20  2  0
 19 20  1  0
M  END
>  <vina_dock>  (761) 
-8.919

$$$$
O14757_PocketFlow_idx-in-all-generaetd-977
     RDKit          3D

 35 39  0  0  0  0  0  0  0  0999 V2000
    9.1360   -2.2410   46.7090 C   0  0  0  0  0  0  0  0  0  0  0  0
    8.4650   -3.3610   47.2270 C   0  0  0  0  0  0  0  0  0  0  0  0
    8.4630   -1.4940   45.7190 C   0  0  0  0  0  0  0  0  0  0  0  0
    7.1940   -1.8200   45.2550 C   0  0  0  0  0  0  0  0  0  0  0  0
    6.5540   -2.9410   45.7930 C   0  0  0  0  0  0  0  0  0  0  0  0
    7.1900   -3.7120   46.7770 C   0  0  0  0  0  0  0  0  0  0  0  0
    6.6160   -1.0610   44.3150 N   0  0  0  0  0  0  0  0  0  0  0  0
    5.3950   -1.3600   43.8550 C   0  0  0  0  0  0  0  0  0  0  0  0
    4.6570   -2.4570   44.3170 C   0  0  0  0  0  0  0  0  0  0  0  0
    5.2770   -3.2490   45.3100 C   0  0  0  0  0  0  0  0  0  0  0  0
    4.8590   -0.5880   42.9240 N   0  0  0  0  0  0  0  0  0  0  0  0
    3.3460   -2.7060   43.7690 C   0  0  0  0  0  0  0  0  0  0  0  0
    2.5060   -3.7770   44.1520 C   0  0  0  0  0  0  0  0  0  0  0  0
    2.8420   -1.8520   42.7840 C   0  0  0  0  0  0  0  0  0  0  0  0
    3.5900   -0.8320   42.3900 N   0  0  0  0  0  0  0  0  0  0  0  0
    1.2410   -3.9540   43.5790 C   0  0  1  0  0  0  0  0  0  0  0  0
    1.6400   -2.0220   42.2230 N   0  0  0  0  0  0  0  0  0  0  0  0
    0.8360   -3.0360   42.6030 C   0  0  0  0  0  0  0  0  0  0  0  0
   10.4850   -1.8610   47.1770 C   0  0  0  0  0  0  0  0  0  0  0  0
   11.1500   -0.9380   46.4780 N   0  0  0  0  0  0  0  0  0  0  0  0
   10.9540   -2.4600   48.2760 N   0  0  0  0  0  0  0  0  0  0  0  0
   12.3570   -0.6390   46.9310 C   0  0  0  0  0  0  0  0  0  0  0  0
   12.1680   -2.0630   48.6370 C   0  0  0  0  0  0  0  0  0  0  0  0
   12.9130   -1.1550   48.0150 N   0  0  0  0  0  0  0  0  0  0  0  0
   13.0780    0.3110   46.2400 N   0  0  0  0  0  0  0  0  0  0  0  0
    0.4130   -5.1080   43.9650 C   0  0  0  0  0  0  0  0  0  0  0  0
    0.3650   -5.5870   45.2170 C   0  0  0  0  0  0  0  0  0  0  0  0
   -0.5000   -6.7420   45.5220 C   0  0  0  0  0  0  0  0  0  0  0  0
   -1.5630   -6.6980   46.2440 N   0  0  0  0  0  0  0  0  0  0  0  0
   -0.1580   -7.9290   45.0080 F   0  0  0  0  0  0  0  0  0  0  0  0
   -0.4100   -3.2050   41.9590 N   0  0  0  0  0  0  0  0  0  0  0  0
   -1.2110   -2.1720   41.5300 C   0  0  0  0  0  0  0  0  0  0  0  0
   -2.3740   -2.2850   40.8740 C   0  0  0  0  0  0  0  0  0  0  0  0
   -3.1520   -1.1450   40.4550 C   0  0  0  0  0  0  0  0  0  0  0  0
   -3.0580    0.0580   41.0350 C   0  0  0  0  0  0  0  0  0  0  0  0
  1  3  1  0
  1 19  1  0
  1  2  2  0
  2  6  1  0
  3  4  2  0
  4  7  1  0
  4  5  1  0
  5 10  1  0
  5  6  2  0
  7  8  2  0
  8 11  1  0
  8  9  1  0
  9 12  1  0
  9 10  2  0
 11 15  1  0
 12 14  1  0
 12 13  2  0
 13 16  1  0
 14 17  1  0
 14 15  2  0
 16 18  1  0
 16 26  1  6
 17 18  2  0
 18 31  1  0
 19 20  2  0
 19 21  1  0
 20 22  2  0
 21 23  2  0
 22 25  1  0
 22 24  1  0
 23 24  1  0
 26 27  2  3
 27 28  1  0
 28 30  1  0
 28 29  2  3
 31 32  1  0
 32 33  2  3
 33 34  1  0
 34 35  2  0
M  CHG  1  20   1
M  END
>  <vina_dock>  (762) 
-10.483

$$$$
O14757_PocketFlow_idx-in-all-generaetd-537
     RDKit          3D

 22 24  0  0  0  0  0  0  0  0999 V2000
    3.4010   -4.9330   45.8140 C   0  0  0  0  0  0  0  0  0  0  0  0
    2.1910   -5.7310   45.9780 N   0  0  0  0  0  0  0  0  0  0  0  0
    1.8780   -6.7550   45.1080 C   0  0  0  0  0  0  0  0  0  0  0  0
    2.6030   -7.1070   44.1840 O   0  0  0  0  0  0  0  0  0  0  0  0
    0.5630   -7.4200   45.3180 C   0  0  0  0  0  0  0  0  0  0  0  0
   -3.1610   -9.1180   45.6680 O   0  0  0  0  0  0  0  0  0  0  0  0
   -1.8900   -8.6230   45.6500 C   0  0  0  0  0  0  0  0  0  0  0  0
   -3.7550   -8.5370   44.4790 C   0  0  0  0  0  0  0  0  0  0  0  0
   -0.9280   -8.8540   46.6110 C   0  0  0  0  0  0  0  0  0  0  0  0
   -1.6600   -7.8330   44.5410 C   0  0  0  0  0  0  0  0  0  0  0  0
   -2.7760   -7.7790   43.6870 N   0  0  0  0  0  0  0  0  0  0  0  0
    0.3190   -8.2450   46.4390 C   0  0  0  0  0  0  0  0  0  0  0  0
   -0.4360   -7.2250   44.3490 C   0  0  0  0  0  0  0  0  0  0  0  0
    3.1220   -3.4760   45.3750 C   0  0  2  0  0  0  0  0  0  0  0  0
    2.2270   -3.4040   44.1990 C   0  0  0  0  0  0  0  0  0  0  0  0
    1.4980   -3.3430   43.2450 C   0  0  0  0  0  0  0  0  0  0  0  0
    4.4200   -2.7360   45.1210 C   0  0  0  0  0  0  0  0  0  0  0  0
    5.5690   -3.0510   45.8440 C   0  0  0  0  0  0  0  0  0  0  0  0
    4.5330   -1.7250   44.1590 C   0  0  0  0  0  0  0  0  0  0  0  0
    6.7700   -2.4560   45.6650 N   0  0  0  0  0  0  0  0  0  0  0  0
    5.7550   -1.0900   43.9590 C   0  0  0  0  0  0  0  0  0  0  0  0
    6.8340   -1.4880   44.7280 C   0  0  0  0  0  0  0  0  0  0  0  0
 14  1  1  6
  1  2  1  0
  2  3  1  0
  3  4  2  0
  3  5  1  0
  5 13  2  0
  5 12  1  0
  6  8  1  0
  6  7  1  0
  7 10  2  0
  7  9  1  0
  8 11  1  0
  9 12  2  0
 10 11  1  0
 10 13  1  0
 14 15  1  0
 14 17  1  0
 15 16  3  0
 17 19  1  0
 17 18  2  0
 18 20  1  0
 19 21  2  0
 20 22  2  0
 21 22  1  0
M  END
>  <vina_dock>  (763) 
-7.971

$$$$
O14757_PocketFlow_idx-in-all-generaetd-578
     RDKit          3D

  9  9  0  0  0  0  0  0  0  0999 V2000
    5.3940   -2.5670   44.9250 C   0  0  0  0  0  0  0  0  0  0  0  0
    4.1640   -3.1030   44.5320 C   0  0  0  0  0  0  0  0  0  0  0  0
    3.4160   -2.5000   43.5130 C   0  0  0  0  0  0  0  0  0  0  0  0
    3.9120   -1.3360   42.9130 C   0  0  0  0  0  0  0  0  0  0  0  0
    5.8830   -1.4180   44.3080 C   0  0  0  0  0  0  0  0  0  0  0  0
    5.1410   -0.8000   43.3040 C   0  0  0  0  0  0  0  0  0  0  0  0
    2.1030   -3.0130   43.0930 C   0  0  0  0  0  0  0  0  0  0  0  0
    1.3460   -2.4550   42.1350 C   0  0  0  0  0  0  0  0  0  0  0  0
    0.0090   -2.9810   41.7250 C   0  0  0  0  0  0  0  0  0  0  0  0
  1  5  2  0
  1  2  1  0
  2  3  2  0
  3  4  1  0
  3  7  1  0
  4  6  2  0
  5  6  1  0
  7  8  2  3
  8  9  1  0
M  END
>  <vina_dock>  (764) 
-5.544

$$$$
O14757_PocketFlow_idx-in-all-generaetd-789
     RDKit          3D

 35 37  0  0  0  0  0  0  0  0999 V2000
    7.2610   -2.7950   45.7330 C   0  0  0  0  0  0  0  0  0  0  0  0
    8.4040   -3.4240   46.5310 C   0  0  0  0  0  0  0  0  0  0  0  0
    8.7470   -2.7740   47.8760 C   0  0  0  0  0  0  0  0  0  0  0  0
    8.5150   -3.6610   49.1040 C   0  0  0  0  0  0  0  0  0  0  0  0
    7.1130   -4.2760   49.1650 C   0  0  0  0  0  0  0  0  0  0  0  0
    7.1440   -5.7650   48.9170 C   0  0  0  0  0  0  0  0  0  0  0  0
    5.9370   -7.8840   48.5770 C   0  0  0  0  0  0  0  0  0  0  0  0
    7.1860   -8.5200   48.4480 C   0  0  0  0  0  0  0  0  0  0  0  0
    5.9470   -6.4940   48.8090 C   0  0  0  0  0  0  0  0  0  0  0  0
    8.3830   -7.8070   48.5450 C   0  0  0  0  0  0  0  0  0  0  0  0
    8.3620   -6.4350   48.7770 C   0  0  0  0  0  0  0  0  0  0  0  0
    4.6700   -8.6410   48.4780 C   0  0  0  0  0  0  0  0  0  0  0  0
    4.1730   -8.8820   47.2480 N   0  0  0  0  0  0  0  0  0  0  0  0
    4.0870   -9.0470   49.6240 N   0  0  0  0  0  0  0  0  0  0  0  0
    3.0280   -9.5690   47.1770 C   0  0  0  0  0  0  0  0  0  0  0  0
    2.9470   -9.7470   49.5000 C   0  0  0  0  0  0  0  0  0  0  0  0
    2.3680  -10.0390   48.2890 C   0  0  0  0  0  0  0  0  0  0  0  0
    2.5330   -9.8320   45.9010 N   0  0  0  0  0  0  0  0  0  0  0  0
    5.9020   -3.4950   45.8550 C   0  0  0  0  0  0  0  0  0  0  0  0
    4.6870   -2.6800   45.3700 C   0  0  1  0  0  0  0  0  0  0  0  0
    4.8660   -1.2050   45.7450 C   0  0  0  0  0  0  0  0  0  0  0  0
    4.3200   -2.8850   43.8790 C   0  0  0  0  0  0  0  0  0  0  0  0
    2.9270   -3.4840   43.5390 C   0  0  2  0  0  0  0  0  0  0  0  0
    2.0520   -2.5430   42.7240 C   0  0  0  0  0  0  0  0  0  0  0  0
    2.5630   -1.3010   42.3140 C   0  0  0  0  0  0  0  0  0  0  0  0
    0.7440   -2.8860   42.3490 C   0  0  0  0  0  0  0  0  0  0  0  0
    1.7830   -0.4240   41.5590 C   0  0  0  0  0  0  0  0  0  0  0  0
   -0.0340   -2.0070   41.5940 C   0  0  0  0  0  0  0  0  0  0  0  0
    0.4840   -0.7750   41.2010 C   0  0  0  0  0  0  0  0  0  0  0  0
    2.2220   -3.9190   44.8560 C   0  0  0  0  0  0  0  0  0  0  0  0
    1.8890   -5.4030   44.9390 C   0  0  0  0  0  0  0  0  0  0  0  0
    0.6110   -5.8050   44.7750 C   0  0  0  0  0  0  0  0  0  0  0  0
    3.0650   -6.3210   45.1550 C   0  0  0  0  0  0  0  0  0  0  0  0
    0.1160   -7.1610   44.8350 C   0  0  0  0  0  0  0  0  0  0  0  0
   -1.1680   -7.4730   44.6160 C   0  0  0  0  0  0  0  0  0  0  0  0
  1 19  2  3
  1  2  1  0
  2  3  1  0
  3  4  1  0
  4  5  1  0
  5  6  1  0
  6 11  1  0
  6  9  2  0
  7  8  2  0
  7 12  1  0
  7  9  1  0
  8 10  1  0
 10 11  2  0
 12 13  2  0
 12 14  1  0
 13 15  1  0
 14 16  2  0
 15 18  1  0
 15 17  2  0
 16 17  1  0
 19 20  1  0
 20 22  1  0
 20 21  1  6
 23 22  1  1
 23 24  1  0
 23 30  1  0
 24 25  2  0
 24 26  1  0
 25 27  1  0
 26 28  2  0
 27 29  2  0
 28 29  1  0
 30 31  1  0
 31 32  2  3
 31 33  1  0
 32 34  1  0
 34 35  2  0
M  END
>  <vina_dock>  (765) 
-7.785

$$$$
O14757_PocketFlow_idx-in-all-generaetd-589
     RDKit          3D

 35 38  0  0  0  0  0  0  0  0999 V2000
    4.1640   -4.6460   43.8990 C   0  0  0  0  0  0  0  0  0  0  0  0
    2.8460   -4.9230   44.5890 C   0  0  0  0  0  0  0  0  0  0  0  0
    1.2020   -6.5120   45.4600 C   0  0  0  0  0  0  0  0  0  0  0  0
    0.4230   -5.4340   45.9060 C   0  0  0  0  0  0  0  0  0  0  0  0
    2.4210   -6.2420   44.8170 C   0  0  0  0  0  0  0  0  0  0  0  0
    0.8400   -4.1200   45.6930 C   0  0  0  0  0  0  0  0  0  0  0  0
    2.0450   -3.8660   45.0380 C   0  0  0  0  0  0  0  0  0  0  0  0
    0.7800   -7.9440   45.7100 C   0  0  0  0  0  0  0  0  0  0  0  0
   -0.7170   -8.1820   45.7390 C   0  0  0  0  0  0  0  0  0  0  0  0
   -1.3960   -8.7360   46.8590 C   0  0  0  0  0  0  0  0  0  0  0  0
   -0.7590   -9.1160   48.0600 C   0  0  0  0  0  0  0  0  0  0  0  0
   -2.7950   -8.9230   46.7770 C   0  0  0  0  0  0  0  0  0  0  0  0
   -1.4950   -9.6520   49.1070 C   0  0  0  0  0  0  0  0  0  0  0  0
   -1.4670   -7.8430   44.6100 C   0  0  0  0  0  0  0  0  0  0  0  0
   -3.4930   -9.4380   47.7910 N   0  0  0  0  0  0  0  0  0  0  0  0
   -3.4810   -8.5900   45.6860 N   0  0  0  0  0  0  0  0  0  0  0  0
   -2.8510   -9.7910   48.9220 C   0  0  0  0  0  0  0  0  0  0  0  0
   -2.8270   -8.0650   44.6340 C   0  0  0  0  0  0  0  0  0  0  0  0
    4.8710   -3.4170   44.4310 C   0  0  0  0  0  0  0  0  0  0  0  0
    4.8550   -2.1850   43.8840 C   0  0  0  0  0  0  0  0  0  0  0  0
    5.5920   -3.5890   45.7090 C   0  0  0  0  0  0  0  0  0  0  0  0
    4.9560   -4.1790   46.8090 C   0  0  0  0  0  0  0  0  0  0  0  0
    6.9220   -3.1640   45.8320 C   0  0  0  0  0  0  0  0  0  0  0  0
    5.6430   -4.3480   48.0150 C   0  0  0  0  0  0  0  0  0  0  0  0
    7.6090   -3.3340   47.0360 C   0  0  0  0  0  0  0  0  0  0  0  0
    6.9730   -3.9290   48.1310 C   0  0  0  0  0  0  0  0  0  0  0  0
    7.7400   -4.0880   49.3890 C   0  0  0  0  0  0  0  0  0  0  0  0
    8.8540   -4.5670   49.4890 O   0  0  0  0  0  0  0  0  0  0  0  0
    7.0740   -3.6390   50.4680 O   0  0  0  0  0  0  0  0  0  0  0  0
    4.1880   -1.7570   42.6100 C   0  0  0  0  0  0  0  0  0  0  0  0
    2.7010   -1.6570   42.7920 C   0  0  0  0  0  0  0  0  0  0  0  0
    1.8150   -1.9940   41.8400 C   0  0  0  0  0  0  0  0  0  0  0  0
    0.3410   -1.8920   41.9510 C   0  0  0  0  0  0  0  0  0  0  0  0
   -0.3300   -2.9980   42.3560 N   0  0  0  0  0  0  0  0  0  0  0  0
   -0.2420   -0.8610   41.6440 O   0  0  0  0  0  0  0  0  0  0  0  0
  1 19  1  0
  1  2  1  0
  2  5  2  0
  2  7  1  0
  3  5  1  0
  3  8  1  0
  3  4  2  0
  4  6  1  0
  6  7  2  0
  8  9  1  0
  9 14  2  0
  9 10  1  0
 10 12  1  0
 10 11  2  0
 11 13  1  0
 12 16  1  0
 12 15  2  0
 13 17  2  0
 14 18  1  0
 15 17  1  0
 16 18  2  0
 19 20  2  3
 19 21  1  0
 20 30  1  0
 21 23  1  0
 21 22  2  0
 22 24  1  0
 23 25  2  0
 24 26  2  0
 25 26  1  0
 26 27  1  0
 27 28  2  0
 27 29  1  0
 30 31  1  0
 31 32  2  3
 32 33  1  0
 33 35  2  0
 33 34  1  0
M  END
>  <vina_dock>  (766) 
-9.708

$$$$
O14757_PocketFlow_idx-in-all-generaetd-688
     RDKit          3D

 11 11  0  0  0  0  0  0  0  0999 V2000
    5.4120   -1.9900   44.2600 C   0  0  0  0  0  0  0  0  0  0  0  0
    6.6200   -1.5060   44.5930 C   0  0  0  0  0  0  0  0  0  0  0  0
    4.5860   -1.4800   43.1110 C   0  0  0  0  0  0  0  0  0  0  0  0
    3.2340   -2.1480   43.0370 C   0  0  0  0  0  0  0  0  0  0  0  0
    0.7130   -3.3740   42.9230 C   0  0  0  0  0  0  0  0  0  0  0  0
    1.0320   -2.3520   42.0320 C   0  0  0  0  0  0  0  0  0  0  0  0
    1.6450   -3.7840   43.8740 C   0  0  0  0  0  0  0  0  0  0  0  0
    2.2850   -1.7390   42.0890 C   0  0  0  0  0  0  0  0  0  0  0  0
    2.8990   -3.1730   43.9340 C   0  0  0  0  0  0  0  0  0  0  0  0
    7.4380   -2.0210   45.7410 C   0  0  0  0  0  0  0  0  0  0  0  0
    8.6320   -1.1200   46.0190 C   0  0  0  0  0  0  0  0  0  0  0  0
  1  3  1  0
  1  2  2  3
  2 10  1  0
  3  4  1  0
  4  8  2  0
  4  9  1  0
  5  6  2  0
  5  7  1  0
  6  8  1  0
  7  9  2  0
 10 11  1  0
M  END
>  <vina_dock>  (767) 
-6.033

$$$$
O14757_PocketFlow_idx-in-all-generaetd-404
     RDKit          3D

 21 23  0  0  0  0  0  0  0  0999 V2000
    3.6030   -4.1210   44.5420 C   0  0  0  0  0  0  0  0  0  0  0  0
    3.7600   -5.4320   44.2820 C   0  0  0  0  0  0  0  0  0  0  0  0
    4.7970   -3.3080   44.8600 C   0  0  0  0  0  0  0  0  0  0  0  0
    7.7920   -3.2450   47.1570 C   0  0  0  0  0  0  0  0  0  0  0  0
    6.7960   -2.8750   46.1340 C   0  0  0  0  0  0  0  0  0  0  0  0
    7.6450   -4.2730   47.8150 O   0  0  0  0  0  0  0  0  0  0  0  0
    8.9580   -2.3100   47.3810 C   0  0  0  0  0  0  0  0  0  0  0  0
    6.9890   -1.7000   45.4150 C   0  0  0  0  0  0  0  0  0  0  0  0
    5.6940   -3.6880   45.8580 C   0  0  0  0  0  0  0  0  0  0  0  0
    9.2580   -1.5150   46.1050 C   0  0  1  0  0  0  0  0  0  0  0  0
    8.0540   -0.8500   45.6850 N   0  0  0  0  0  0  0  0  0  0  0  0
    6.1410   -1.3100   44.4460 N   0  0  0  0  0  0  0  0  0  0  0  0
    5.0720   -2.1110   44.1960 C   0  0  0  0  0  0  0  0  0  0  0  0
   10.3980   -0.6480   46.3540 N   0  0  0  0  0  0  0  0  0  0  0  0
    2.2720   -3.3860   44.5560 C   0  0  0  0  0  0  0  0  0  0  0  0
    1.6520   -3.1040   43.2040 C   0  0  0  0  0  0  0  0  0  0  0  0
    2.1900   -2.1200   42.3620 C   0  0  0  0  0  0  0  0  0  0  0  0
    0.5170   -3.8130   42.7820 C   0  0  0  0  0  0  0  0  0  0  0  0
    1.6080   -1.8560   41.1210 C   0  0  0  0  0  0  0  0  0  0  0  0
   -0.0620   -3.5460   41.5410 C   0  0  0  0  0  0  0  0  0  0  0  0
    0.4830   -2.5690   40.7110 C   0  0  0  0  0  0  0  0  0  0  0  0
  1  2  2  0
  1 15  1  0
  1  3  1  0
  3 13  1  0
  3  9  2  0
  4  5  1  0
  4  7  1  0
  4  6  2  0
  5  8  2  0
  5  9  1  0
  7 10  1  0
  8 12  1  0
  8 11  1  0
 10 11  1  0
 10 14  1  1
 12 13  2  0
 15 16  1  0
 16 17  2  0
 16 18  1  0
 17 19  1  0
 18 20  2  0
 19 21  2  0
 20 21  1  0
M  END
>  <vina_dock>  (768) 
-8.486

$$$$
O14757_PocketFlow_idx-in-all-generaetd-283
     RDKit          3D

 14 14  0  0  0  0  0  0  0  0999 V2000
    2.3290   -3.7960   43.6400 C   0  0  0  0  0  0  0  0  0  0  0  0
    1.0620   -3.3650   43.5280 C   0  0  0  0  0  0  0  0  0  0  0  0
    3.1530   -3.9050   44.9160 C   0  0  2  0  0  0  0  0  0  0  0  0
    4.4450   -3.0890   44.9000 C   0  0  0  0  0  0  0  0  0  0  0  0
    6.7300   -2.6380   45.6110 C   0  0  0  0  0  0  0  0  0  0  0  0
    6.7950   -1.5400   44.7570 C   0  0  0  0  0  0  0  0  0  0  0  0
    5.5660   -3.4090   45.6810 C   0  0  0  0  0  0  0  0  0  0  0  0
    5.6960   -1.2100   43.9700 C   0  0  0  0  0  0  0  0  0  0  0  0
    4.5330   -1.9780   44.0400 C   0  0  0  0  0  0  0  0  0  0  0  0
    3.3160   -5.3880   45.2860 C   0  0  0  0  0  0  0  0  0  0  0  0
    3.7370   -6.0950   44.2010 F   0  0  0  0  0  0  0  0  0  0  0  0
    0.3690   -3.3050   42.2610 C   0  0  0  0  0  0  0  0  0  0  0  0
    0.5190   -2.3680   41.3130 C   0  0  0  0  0  0  0  0  0  0  0  0
    1.4150   -1.1700   41.3190 C   0  0  0  0  0  0  0  0  0  0  0  0
  1  2  2  3
  1  3  1  0
  2 12  1  0
  3  4  1  0
  3 10  1  6
  4  9  2  0
  4  7  1  0
  5  6  1  0
  5  7  2  0
  6  8  2  0
  8  9  1  0
 10 11  1  0
 12 13  2  3
 13 14  1  0
M  END
>  <vina_dock>  (769) 
-6.77

$$$$
O14757_PocketFlow_idx-in-all-generaetd-22
     RDKit          3D

 15 16  0  0  0  0  0  0  0  0999 V2000
    4.5040   -2.5730   44.3920 C   0  0  0  0  0  0  0  0  0  0  0  0
    4.5120   -3.4640   45.4800 C   0  0  0  0  0  0  0  0  0  0  0  0
    5.6270   -3.5780   46.3260 C   0  0  0  0  0  0  0  0  0  0  0  0
    5.6460   -1.7860   44.1760 C   0  0  0  0  0  0  0  0  0  0  0  0
    6.7560   -1.8800   45.0190 C   0  0  0  0  0  0  0  0  0  0  0  0
    6.7450   -2.7690   46.0920 C   0  0  0  0  0  0  0  0  0  0  0  0
    3.3320   -2.4680   43.5070 C   0  0  0  0  0  0  0  0  0  0  0  0
    2.2560   -3.3680   43.6220 C   0  0  0  0  0  0  0  0  0  0  0  0
    1.1480   -3.3010   42.7690 C   0  0  0  0  0  0  0  0  0  0  0  0
    1.0700   -2.2530   41.8530 C   0  0  0  0  0  0  0  0  0  0  0  0
    3.2500   -1.4610   42.5340 C   0  0  0  0  0  0  0  0  0  0  0  0
    2.1230   -1.3470   41.7190 C   0  0  0  0  0  0  0  0  0  0  0  0
    0.0410   -4.1320   42.9850 N   0  0  0  0  0  0  0  0  0  0  0  0
    5.5990   -4.5170   47.5000 C   0  0  0  0  0  0  0  0  0  0  0  0
    4.8590   -5.6900   47.1870 O   0  0  0  0  0  0  0  0  0  0  0  0
  1  7  1  0
  1  4  1  0
  1  2  2  0
  2  3  1  0
  3  6  2  0
  3 14  1  0
  4  5  2  0
  5  6  1  0
  7 11  1  0
  7  8  2  0
  8  9  1  0
  9 10  2  0
  9 13  1  0
 10 12  1  0
 11 12  2  0
 14 15  1  0
M  END
>  <vina_dock>  (770) 
-7.315

$$$$
O14757_PocketFlow_idx-in-all-generaetd-521
     RDKit          3D

 32 33  0  0  0  0  0  0  0  0999 V2000
    4.1580   -1.0430   43.2070 C   0  0  0  0  0  0  0  0  0  0  0  0
    3.4440   -0.1580   42.3850 C   0  0  0  0  0  0  0  0  0  0  0  0
    2.2650   -0.5640   41.7530 C   0  0  0  0  0  0  0  0  0  0  0  0
    1.7840   -1.8650   41.9400 C   0  0  0  0  0  0  0  0  0  0  0  0
    2.5010   -2.7590   42.7430 C   0  0  0  0  0  0  0  0  0  0  0  0
    3.6770   -2.3490   43.3760 C   0  0  0  0  0  0  0  0  0  0  0  0
    5.4260   -0.5960   43.9000 C   0  0  0  0  0  0  0  0  0  0  0  0
    5.9810   -1.6190   44.8640 C   0  0  0  0  0  0  0  0  0  0  0  0
    5.6700   -3.5860   46.2800 C   0  0  0  0  0  0  0  0  0  0  0  0
    5.1620   -2.6190   45.3940 C   0  0  0  0  0  0  0  0  0  0  0  0
    7.0360   -3.5590   46.6430 C   0  0  0  0  0  0  0  0  0  0  0  0
    7.8720   -2.5560   46.1110 C   0  0  0  0  0  0  0  0  0  0  0  0
    7.3290   -1.5950   45.2320 C   0  0  0  0  0  0  0  0  0  0  0  0
    4.7330   -4.6730   46.7670 C   0  0  0  0  0  0  0  0  0  0  0  0
    3.3710   -4.6640   46.0770 C   0  0  0  0  0  0  0  0  0  0  0  0
    3.1980   -5.7530   45.0410 C   0  0  0  0  0  0  0  0  0  0  0  0
    4.1320   -5.5930   44.0680 F   0  0  0  0  0  0  0  0  0  0  0  0
    3.3710   -6.9900   45.5450 F   0  0  0  0  0  0  0  0  0  0  0  0
    1.9920   -5.6910   44.4410 F   0  0  0  0  0  0  0  0  0  0  0  0
    7.5070   -4.4990   47.5890 N   0  0  0  0  0  0  0  0  0  0  0  0
    7.2450   -4.0890   48.9690 C   0  0  0  0  0  0  0  0  0  0  0  0
    9.3310   -2.4470   46.4700 C   0  0  0  0  0  0  0  0  0  0  0  0
    9.5170   -2.0750   47.7690 F   0  0  0  0  0  0  0  0  0  0  0  0
   10.0030   -1.5220   45.7260 F   0  0  0  0  0  0  0  0  0  0  0  0
   10.0270   -3.6110   46.3170 F   0  0  0  0  0  0  0  0  0  0  0  0
    0.5350   -2.3460   41.2860 C   0  0  0  0  0  0  0  0  0  0  0  0
   -0.6310   -1.6980   41.6390 N   0  0  0  0  0  0  0  0  0  0  0  0
    0.5690   -3.2890   40.5040 O   0  0  0  0  0  0  0  0  0  0  0  0
   -1.9160   -2.2310   41.2110 C   0  0  0  0  0  0  0  0  0  0  0  0
   -2.8780   -1.0980   40.8980 C   0  0  0  0  0  0  0  0  0  0  0  0
   -2.8640    0.0230   41.3860 O   0  0  0  0  0  0  0  0  0  0  0  0
   -3.7610   -1.4110   39.9290 O   0  0  0  0  0  0  0  0  0  0  0  0
  1  2  2  0
  1  6  1  0
  1  7  1  0
  2  3  1  0
  3  4  2  0
  4 26  1  0
  4  5  1  0
  5  6  2  0
  7  8  1  0
  8 13  2  0
  8 10  1  0
  9 10  2  0
  9 11  1  0
  9 14  1  0
 11 12  2  0
 11 20  1  0
 12 13  1  0
 12 22  1  0
 14 15  1  0
 15 16  1  0
 16 17  1  0
 16 19  1  0
 16 18  1  0
 20 21  1  0
 22 24  1  0
 22 25  1  0
 22 23  1  0
 26 28  2  0
 26 27  1  0
 27 29  1  0
 29 30  1  0
 30 32  1  0
 30 31  2  0
M  END
>  <vina_dock>  (771) 
-8.828

$$$$
O14757_PocketFlow_idx-in-all-generaetd-711
     RDKit          3D

 14 15  0  0  0  0  0  0  0  0999 V2000
    4.8770   -0.9310   44.1740 C   0  0  0  0  0  0  0  0  0  0  0  0
    6.0850   -1.6940   44.6430 C   0  0  0  0  0  0  0  0  0  0  0  0
    4.9880   -2.9280   46.5810 C   0  0  0  0  0  0  0  0  0  0  0  0
    6.1240   -2.5510   45.6760 C   0  0  0  0  0  0  0  0  0  0  0  0
    5.5480   -4.1380   47.3180 C   0  0  0  0  0  0  0  0  0  0  0  0
    7.3540   -3.2820   46.1290 C   0  0  0  0  0  0  0  0  0  0  0  0
    6.9850   -3.8710   47.4220 N   0  0  0  0  0  0  0  0  0  0  0  0
    4.4560   -1.3660   42.7670 C   0  0  0  0  0  0  0  0  0  0  0  0
    3.0940   -2.0150   42.7670 C   0  0  0  0  0  0  0  0  0  0  0  0
    2.1120   -1.6080   41.8520 C   0  0  0  0  0  0  0  0  0  0  0  0
    2.8020   -3.0540   43.6610 C   0  0  0  0  0  0  0  0  0  0  0  0
    0.8590   -2.2230   41.8410 C   0  0  0  0  0  0  0  0  0  0  0  0
    1.5480   -3.6660   43.6480 C   0  0  0  0  0  0  0  0  0  0  0  0
    0.5770   -3.2510   42.7390 C   0  0  0  0  0  0  0  0  0  0  0  0
  1  8  1  0
  1  2  1  0
  2  4  2  3
  3  4  1  0
  3  5  1  0
  4  6  1  0
  5  7  1  0
  6  7  1  0
  8  9  1  0
  9 10  2  0
  9 11  1  0
 10 12  1  0
 11 13  2  0
 12 14  2  0
 13 14  1  0
M  END
>  <vina_dock>  (772) 
-6.776

$$$$
O14757_PocketFlow_idx-in-all-generaetd-298
     RDKit          3D

 17 18  0  0  0  0  0  0  0  0999 V2000
    4.1150   -2.3340   43.7470 C   0  0  0  0  0  0  0  0  0  0  0  0
    5.1970   -2.4020   44.5510 C   0  0  0  0  0  0  0  0  0  0  0  0
    3.9180   -1.3200   42.6530 C   0  0  0  0  0  0  0  0  0  0  0  0
    3.0170   -3.3100   43.9300 C   0  0  0  0  0  0  0  0  0  0  0  0
    2.1120   -5.3500   44.8590 C   0  0  0  0  0  0  0  0  0  0  0  0
    0.9290   -5.1060   44.1780 C   0  0  0  0  0  0  0  0  0  0  0  0
    3.1660   -4.4460   44.7280 C   0  0  0  0  0  0  0  0  0  0  0  0
    0.7470   -4.0270   43.4020 N   0  0  0  0  0  0  0  0  0  0  0  0
    1.7860   -3.1610   43.2930 C   0  0  0  0  0  0  0  0  0  0  0  0
   -0.1510   -5.9750   44.2990 N   0  0  0  0  0  0  0  0  0  0  0  0
    6.4010   -1.5000   44.5500 C   0  0  0  0  0  0  0  0  0  0  0  0
    7.4590   -1.9700   45.5210 C   0  0  0  0  0  0  0  0  0  0  0  0
    7.4230   -3.2700   46.0450 C   0  0  0  0  0  0  0  0  0  0  0  0
    8.5100   -1.1190   45.8910 C   0  0  0  0  0  0  0  0  0  0  0  0
    8.4100   -3.7040   46.9310 C   0  0  0  0  0  0  0  0  0  0  0  0
    9.4980   -1.5560   46.7750 C   0  0  0  0  0  0  0  0  0  0  0  0
    9.4460   -2.8480   47.2960 C   0  0  0  0  0  0  0  0  0  0  0  0
  1  3  1  0
  1  4  1  0
  1  2  2  3
  2 11  1  0
  4  9  1  0
  4  7  2  0
  5  6  2  0
  5  7  1  0
  6  8  1  0
  6 10  1  0
  8  9  2  0
 11 12  1  0
 12 14  1  0
 12 13  2  0
 13 15  1  0
 14 16  2  0
 15 17  2  0
 16 17  1  0
M  END
>  <vina_dock>  (773) 
-7.501

$$$$
O14757_PocketFlow_idx-in-all-generaetd-158
     RDKit          3D

 24 26  0  0  0  0  0  0  0  0999 V2000
    1.8150   -3.0020   43.0750 C   0  0  0  0  0  0  0  0  0  0  0  0
    3.0090   -2.2440   43.2740 C   0  0  0  0  0  0  0  0  0  0  0  0
    3.1380   -1.0000   42.6120 C   0  0  0  0  0  0  0  0  0  0  0  0
    2.1130   -0.5470   41.7730 C   0  0  0  0  0  0  0  0  0  0  0  0
    0.9540   -1.3000   41.5860 C   0  0  0  0  0  0  0  0  0  0  0  0
    0.7660   -2.5030   42.2670 C   0  0  0  0  0  0  0  0  0  0  0  0
    4.2980   -0.2290   42.7830 C   0  0  0  0  0  0  0  0  0  0  0  0
    5.3410   -0.6680   43.5980 C   0  0  0  0  0  0  0  0  0  0  0  0
    5.2540   -1.8930   44.2620 C   0  0  0  0  0  0  0  0  0  0  0  0
    4.0910   -2.6650   44.0900 C   0  0  0  0  0  0  0  0  0  0  0  0
    1.6510   -4.3210   43.7220 C   0  0  0  0  0  0  0  0  0  0  0  0
    1.1110   -4.4450   44.9440 C   0  0  0  0  0  0  0  0  0  0  0  0
    0.8940   -5.7280   45.6990 C   0  0  0  0  0  0  0  0  0  0  0  0
   -0.4560   -6.4180   45.5900 C   0  0  0  0  0  0  0  0  0  0  0  0
    1.7730   -6.8680   45.2140 C   0  0  0  0  0  0  0  0  0  0  0  0
   -0.1480   -7.8300   45.8890 N   0  0  0  0  0  0  0  0  0  0  0  0
    1.0660   -8.0760   45.6760 N   0  0  0  0  0  0  0  0  0  0  0  0
   -0.3690   -3.2790   41.9510 N   0  0  0  0  0  0  0  0  0  0  0  0
    6.3840   -2.4000   45.1570 C   0  0  1  0  0  0  0  0  0  0  0  0
    7.6110   -1.4720   45.0510 C   0  0  0  0  0  0  0  0  0  0  0  0
    7.8300   -0.7380   46.2510 O   0  0  0  0  0  0  0  0  0  0  0  0
    5.8610   -2.6310   46.5950 C   0  0  0  0  0  0  0  0  0  0  0  0
    5.9460   -4.0740   47.0860 C   0  0  0  0  0  0  0  0  0  0  0  0
    4.4950   -5.0330   46.7300 Cl  0  0  0  0  0  0  0  0  0  0  0  0
  1  6  1  0
  1  2  2  0
  1 11  1  0
  2  3  1  0
  2 10  1  0
  3  4  2  0
  3  7  1  0
  4  5  1  0
  5  6  2  0
  6 18  1  0
  7  8  2  0
  8  9  1  0
  9 10  2  0
  9 19  1  0
 11 12  2  3
 12 13  1  0
 13 15  1  0
 13 14  1  0
 14 16  1  0
 15 17  1  0
 16 17  1  0
 19 20  1  1
 19 22  1  0
 20 21  1  0
 22 23  1  0
 23 24  1  0
M  END
>  <vina_dock>  (774) 
-8.515

$$$$
O14757_PocketFlow_idx-in-all-generaetd-164
     RDKit          3D

 35 37  0  0  0  0  0  0  0  0999 V2000
    5.3180   -2.0100   44.7880 C   0  0  0  0  0  0  0  0  0  0  0  0
    4.5720   -2.9390   45.5260 C   0  0  0  0  0  0  0  0  0  0  0  0
    5.1790   -3.6560   46.5600 C   0  0  0  0  0  0  0  0  0  0  0  0
    6.5260   -3.4420   46.8660 C   0  0  0  0  0  0  0  0  0  0  0  0
    7.2780   -2.5070   46.1430 C   0  0  0  0  0  0  0  0  0  0  0  0
    6.6640   -1.7910   45.1080 C   0  0  0  0  0  0  0  0  0  0  0  0
    4.7230   -1.2160   43.6740 C   0  0  0  0  0  0  0  0  0  0  0  0
    3.6970   -1.8150   42.9690 N   0  0  0  0  0  0  0  0  0  0  0  0
    5.1740   -0.1060   43.4010 O   0  0  0  0  0  0  0  0  0  0  0  0
    3.0800   -1.1540   41.8470 C   0  0  0  0  0  0  0  0  0  0  0  0
    1.5830   -1.2520   41.8620 C   0  0  0  0  0  0  0  0  0  0  0  0
    0.7300   -2.2260   42.2200 C   0  0  0  0  0  0  0  0  0  0  0  0
    1.0090   -3.6210   42.7160 C   0  0  0  0  0  0  0  0  0  0  0  0
    1.0610   -3.7160   44.2480 C   0  0  0  0  0  0  0  0  0  0  0  0
    1.2400   -5.1300   44.7470 C   0  0  0  0  0  0  0  0  0  0  0  0
    0.1290   -5.9480   45.0160 C   0  0  0  0  0  0  0  0  0  0  0  0
    2.5240   -5.6620   44.9100 C   0  0  0  0  0  0  0  0  0  0  0  0
    0.2930   -7.2850   45.4030 C   0  0  0  0  0  0  0  0  0  0  0  0
    2.6970   -6.9820   45.3350 C   0  0  0  0  0  0  0  0  0  0  0  0
   -0.9100   -8.1540   45.6510 C   0  0  0  0  0  0  0  0  0  0  0  0
    1.5860   -7.7920   45.5810 C   0  0  0  0  0  0  0  0  0  0  0  0
    8.7090   -2.2790   46.4430 C   0  0  0  0  0  0  0  0  0  0  0  0
    9.2110   -1.0750   46.1170 C   0  0  0  0  0  0  0  0  0  0  0  0
    9.4790   -3.4490   47.0740 C   0  0  1  0  0  0  0  0  0  0  0  0
    9.1010   -3.6990   48.5540 C   0  0  0  0  0  0  0  0  0  0  0  0
    9.2870   -4.6170   46.2070 N   0  0  0  0  0  0  0  0  0  0  0  0
   10.0570   -4.6480   49.2850 C   0  0  0  0  0  0  0  0  0  0  0  0
    9.9940   -5.8290   46.5880 C   0  0  0  0  0  0  0  0  0  0  0  0
    9.7340   -6.1480   49.1390 C   0  0  2  0  0  0  0  0  0  0  0  0
    9.2960   -6.5700   47.7270 C   0  0  0  0  0  0  0  0  0  0  0  0
    8.7020   -6.5690   50.2140 C   0  0  0  0  0  0  0  0  0  0  0  0
    7.5300   -7.4000   49.6750 C   0  0  0  0  0  0  0  0  0  0  0  0
    6.3960   -6.5190   49.2230 C   0  0  0  0  0  0  0  0  0  0  0  0
    5.3860   -6.8790   48.4160 C   0  0  0  0  0  0  0  0  0  0  0  0
    5.1800   -8.2220   47.7820 C   0  0  0  0  0  0  0  0  0  0  0  0
  1  7  1  0
  1  6  1  0
  1  2  2  0
  2  3  1  0
  3  4  2  0
  4  5  1  0
  5  6  2  0
  5 22  1  0
  7  8  1  0
  7  9  2  0
  8 10  1  0
 10 11  1  0
 11 12  2  3
 12 13  1  0
 13 14  1  0
 14 15  1  0
 15 17  1  0
 15 16  2  0
 16 18  1  0
 17 19  2  0
 18 21  2  0
 18 20  1  0
 19 21  1  0
 22 23  2  0
 24 22  1  6
 24 26  1  0
 24 25  1  0
 25 27  1  0
 26 28  1  0
 27 29  1  0
 28 30  1  0
 29 30  1  0
 29 31  1  1
 31 32  1  0
 32 33  1  0
 33 34  2  3
 34 35  1  0
M  END
>  <vina_dock>  (775) 
-8.256

$$$$
O14757_PocketFlow_idx-in-all-generaetd-79
     RDKit          3D

 21 22  0  0  0  0  0  0  0  0999 V2000
    1.1140   -1.2120   41.8190 C   0  0  0  0  0  0  0  0  0  0  0  0
    1.8560   -0.0990   41.6750 C   0  0  0  0  0  0  0  0  0  0  0  0
    1.6830   -2.5450   42.3080 C   0  0  1  0  0  0  0  0  0  0  0  0
    5.4170   -2.2350   44.5060 C   0  0  0  0  0  0  0  0  0  0  0  0
    5.2290   -1.5010   43.3370 C   0  0  0  0  0  0  0  0  0  0  0  0
    4.4090   -3.0840   44.9700 C   0  0  0  0  0  0  0  0  0  0  0  0
    4.0230   -1.6060   42.6400 C   0  0  0  0  0  0  0  0  0  0  0  0
    3.1990   -3.2050   44.2660 C   0  0  0  0  0  0  0  0  0  0  0  0
    2.9820   -2.4320   43.1080 C   0  0  0  0  0  0  0  0  0  0  0  0
    2.1460   -4.1480   44.8010 C   0  0  0  0  0  0  0  0  0  0  0  0
    1.1290   -4.5650   43.7290 C   0  0  2  0  0  0  0  0  0  0  0  0
    0.5690   -3.3160   43.0490 C   0  0  0  0  0  0  0  0  0  0  0  0
    6.6870   -2.1120   45.2370 C   0  0  0  0  0  0  0  0  0  0  0  0
    7.2550   -0.9900   45.5270 N   0  0  0  0  0  0  0  0  0  0  0  0
    7.3130   -3.2250   45.6350 F   0  0  0  0  0  0  0  0  0  0  0  0
    0.0490   -5.3540   44.3310 N   0  0  0  0  0  0  0  0  0  0  0  0
   -0.2780   -1.1390   41.5000 C   0  0  0  0  0  0  0  0  0  0  0  0
   -1.4460   -1.0770   41.2280 C   0  0  0  0  0  0  0  0  0  0  0  0
   -2.8410   -1.0020   40.9040 C   0  0  0  0  0  0  0  0  0  0  0  0
   -3.5460   -0.0480   41.1830 O   0  0  0  0  0  0  0  0  0  0  0  0
   -3.3140   -2.0850   40.2630 O   0  0  0  0  0  0  0  0  0  0  0  0
  1 17  1  0
  1  2  2  0
  3  1  1  1
  3 12  1  0
  3  9  1  0
  4  5  2  0
  4  6  1  0
  4 13  1  0
  5  7  1  0
  6  8  2  0
  7  9  2  0
  8  9  1  0
  8 10  1  0
 10 11  1  0
 11 12  1  0
 11 16  1  1
 13 14  1  0
 13 15  1  0
 17 18  3  0
 18 19  1  0
 19 21  1  0
 19 20  2  0
M  END
>  <vina_dock>  (776) 
-8.784

$$$$
O14757_PocketFlow_idx-in-all-generaetd-501
     RDKit          3D

 26 28  0  0  0  0  0  0  0  0999 V2000
    0.9740   -5.9760   44.4790 C   0  0  0  0  0  0  0  0  0  0  0  0
    2.2770   -6.2270   44.9460 C   0  0  0  0  0  0  0  0  0  0  0  0
    3.2600   -5.2270   44.8130 C   0  0  0  0  0  0  0  0  0  0  0  0
    2.9770   -3.9810   44.2280 C   0  0  0  0  0  0  0  0  0  0  0  0
    1.6750   -3.7560   43.7640 C   0  0  0  0  0  0  0  0  0  0  0  0
    0.6880   -4.7400   43.8840 C   0  0  0  0  0  0  0  0  0  0  0  0
    2.6570   -7.5410   45.5750 C   0  0  0  0  0  0  0  0  0  0  0  0
   -0.0770   -7.0000   44.5650 C   0  0  0  0  0  0  0  0  0  0  0  0
   -1.0650   -6.9490   45.4710 C   0  0  0  0  0  0  0  0  0  0  0  0
   -2.1170   -7.9660   45.5870 C   0  0  0  0  0  0  0  0  0  0  0  0
   -1.9100   -9.1470   45.7980 O   0  0  0  0  0  0  0  0  0  0  0  0
   -3.3610   -7.4850   45.4390 O   0  0  0  0  0  0  0  0  0  0  0  0
    4.0180   -2.9460   44.1040 C   0  0  0  0  0  0  0  0  0  0  0  0
    3.8820   -1.8890   43.1870 C   0  0  0  0  0  0  0  0  0  0  0  0
    5.1760   -2.9850   44.8980 C   0  0  0  0  0  0  0  0  0  0  0  0
    4.8610   -0.8980   43.0740 C   0  0  0  0  0  0  0  0  0  0  0  0
    6.1720   -2.0060   44.7710 C   0  0  0  0  0  0  0  0  0  0  0  0
    6.0050   -0.9510   43.8690 C   0  0  0  0  0  0  0  0  0  0  0  0
    7.3670   -2.0970   45.6470 C   0  0  0  0  0  0  0  0  0  0  0  0
    8.1810   -1.1780   45.6480 O   0  0  0  0  0  0  0  0  0  0  0  0
    7.6010   -3.2750   46.5220 C   0  0  0  0  0  0  0  0  0  0  0  0
    8.8090   -3.9710   46.3940 C   0  0  0  0  0  0  0  0  0  0  0  0
    6.6700   -3.6670   47.4910 C   0  0  0  0  0  0  0  0  0  0  0  0
    9.0680   -5.0770   47.2060 C   0  0  0  0  0  0  0  0  0  0  0  0
    6.9340   -4.7740   48.3020 C   0  0  0  0  0  0  0  0  0  0  0  0
    8.1290   -5.4790   48.1550 C   0  0  0  0  0  0  0  0  0  0  0  0
  1  6  2  0
  1  8  1  0
  1  2  1  0
  2  3  2  0
  2  7  1  0
  3  4  1  0
  4  5  2  0
  4 13  1  0
  5  6  1  0
  8  9  2  3
  9 10  1  0
 10 12  1  0
 10 11  2  0
 13 14  2  0
 13 15  1  0
 14 16  1  0
 15 17  2  0
 16 18  2  0
 17 18  1  0
 17 19  1  0
 19 20  2  0
 19 21  1  0
 21 22  2  0
 21 23  1  0
 22 24  1  0
 23 25  2  0
 24 26  2  0
 25 26  1  0
M  END
>  <vina_dock>  (777) 
-9.287

$$$$
O14757_PocketFlow_idx-in-all-generaetd-727
     RDKit          3D

 10 10  0  0  0  0  0  0  0  0999 V2000
    5.0340   -0.9250   44.1620 C   0  0  0  0  0  0  0  0  0  0  0  0
    6.3430   -1.5160   44.6030 C   0  0  0  0  0  0  0  0  0  0  0  0
    6.4520   -2.5880   45.3990 C   0  0  0  0  0  0  0  0  0  0  0  0
    4.5940   -1.4880   42.8060 C   0  0  0  0  0  0  0  0  0  0  0  0
    3.2530   -2.1720   42.8930 C   0  0  0  0  0  0  0  0  0  0  0  0
    3.0150   -3.1460   43.8710 C   0  0  0  0  0  0  0  0  0  0  0  0
    2.2170   -1.8220   42.0160 C   0  0  0  0  0  0  0  0  0  0  0  0
    1.7680   -3.7670   43.9640 C   0  0  0  0  0  0  0  0  0  0  0  0
    0.9710   -2.4440   42.1090 C   0  0  0  0  0  0  0  0  0  0  0  0
    0.7470   -3.4160   43.0820 C   0  0  0  0  0  0  0  0  0  0  0  0
  1  4  1  0
  1  2  1  0
  2  3  2  0
  4  5  1  0
  5  7  2  0
  5  6  1  0
  6  8  2  0
  7  9  1  0
  8 10  1  0
  9 10  2  0
M  END
>  <vina_dock>  (778) 
-5.494

$$$$
O14757_PocketFlow_idx-in-all-generaetd-363
     RDKit          3D

 30 32  0  0  0  0  0  0  0  0999 V2000
    0.9970   -5.0550   45.0250 C   0  0  0  0  0  0  0  0  0  0  0  0
    0.2730   -4.8560   45.9840 O   0  0  0  0  0  0  0  0  0  0  0  0
    2.0110   -4.0980   44.5310 C   0  0  0  0  0  0  0  0  0  0  0  0
    5.4950   -2.9140   45.2620 C   0  0  0  0  0  0  0  0  0  0  0  0
    4.2120   -3.0330   44.6500 C   0  0  0  0  0  0  0  0  0  0  0  0
    5.8280   -3.7270   46.3600 C   0  0  0  0  0  0  0  0  0  0  0  0
    3.8140   -2.2350   43.5510 C   0  0  0  0  0  0  0  0  0  0  0  0
    3.2840   -3.9860   45.1550 C   0  0  0  0  0  0  0  0  0  0  0  0
    4.9260   -4.6600   46.8480 C   0  0  0  0  0  0  0  0  0  0  0  0
    2.5540   -2.3610   42.9500 C   0  0  0  0  0  0  0  0  0  0  0  0
    3.6750   -4.7890   46.2520 C   0  0  0  0  0  0  0  0  0  0  0  0
    1.6510   -3.2950   43.4410 C   0  0  0  0  0  0  0  0  0  0  0  0
    6.5420   -1.9160   44.7960 C   0  0  0  0  0  0  0  0  0  0  0  0
    7.5180   -1.4420   45.8370 C   0  0  0  0  0  0  0  0  0  0  0  0
    8.8200   -1.2000   45.6760 C   0  0  0  0  0  0  0  0  0  0  0  0
    9.5790   -0.7780   46.7040 F   0  0  0  0  0  0  0  0  0  0  0  0
    2.2320   -1.4830   41.7990 C   0  0  0  0  0  0  0  0  0  0  0  0
    1.6900   -1.8320   40.7680 O   0  0  0  0  0  0  0  0  0  0  0  0
    2.6050   -0.2060   41.9970 O   0  0  0  0  0  0  0  0  0  0  0  0
    1.0600   -6.1650   44.2510 O   0  0  0  0  0  0  0  0  0  0  0  0
   -0.2040   -6.7160   43.8580 C   0  0  0  0  0  0  0  0  0  0  0  0
   -0.7520   -7.4850   45.0200 C   0  0  0  0  0  0  0  0  0  0  0  0
   -1.9380   -8.1200   45.1020 C   0  0  0  0  0  0  0  0  0  0  0  0
   -2.9810   -8.1700   44.0170 C   0  0  0  0  0  0  0  0  0  0  0  0
   -2.2800   -8.8380   46.3510 C   0  0  0  0  0  0  0  0  0  0  0  0
   -1.4620   -8.7270   47.4850 C   0  0  0  0  0  0  0  0  0  0  0  0
   -3.4340   -9.6280   46.4280 C   0  0  0  0  0  0  0  0  0  0  0  0
   -1.7900   -9.3940   48.6670 C   0  0  0  0  0  0  0  0  0  0  0  0
   -3.7610  -10.2960   47.6110 C   0  0  0  0  0  0  0  0  0  0  0  0
   -2.9400  -10.1790   48.7290 C   0  0  0  0  0  0  0  0  0  0  0  0
  1 20  1  0
  1  3  1  0
  1  2  2  0
  3 12  2  0
  3  8  1  0
  4  5  2  0
  4 13  1  0
  4  6  1  0
  5  7  1  0
  5  8  1  0
  6  9  2  0
  7 10  2  0
  8 11  2  0
  9 11  1  0
 10 17  1  0
 10 12  1  0
 13 14  1  0
 14 15  2  3
 15 16  1  0
 17 18  2  0
 17 19  1  0
 20 21  1  0
 21 22  1  0
 22 23  2  3
 23 24  1  0
 23 25  1  0
 25 27  1  0
 25 26  2  0
 26 28  1  0
 27 29  2  0
 28 30  2  0
 29 30  1  0
M  END
>  <vina_dock>  (779) 
-8.957

$$$$
O14757_PocketFlow_idx-in-all-generaetd-167
     RDKit          3D

 14 15  0  0  0  0  0  0  0  0999 V2000
    4.4970   -4.1670   45.2670 C   0  0  0  0  0  0  0  0  0  0  0  0
    4.5380   -2.9150   44.4210 C   0  0  0  0  0  0  0  0  0  0  0  0
    3.5820   -1.5010   42.7070 C   0  0  0  0  0  0  0  0  0  0  0  0
    2.6140   -1.2650   41.8120 F   0  0  0  0  0  0  0  0  0  0  0  0
    3.5320   -2.6570   43.4790 C   0  0  0  0  0  0  0  0  0  0  0  0
    4.6190   -0.5860   42.8500 C   0  0  0  0  0  0  0  0  0  0  0  0
    5.6240   -0.8310   43.7820 C   0  0  0  0  0  0  0  0  0  0  0  0
    5.5840   -1.9890   44.5630 C   0  0  0  0  0  0  0  0  0  0  0  0
    3.1480   -4.8500   45.2890 C   0  0  0  0  0  0  0  0  0  0  0  0
    2.0430   -4.2280   45.8900 C   0  0  0  0  0  0  0  0  0  0  0  0
    2.9800   -6.1150   44.7080 C   0  0  0  0  0  0  0  0  0  0  0  0
    0.7990   -4.8580   45.9100 C   0  0  0  0  0  0  0  0  0  0  0  0
    1.7330   -6.7430   44.7290 C   0  0  0  0  0  0  0  0  0  0  0  0
    0.6440   -6.1160   45.3300 C   0  0  0  0  0  0  0  0  0  0  0  0
  1  2  1  0
  1  9  1  0
  2  5  2  0
  2  8  1  0
  3  4  1  0
  3  6  2  0
  3  5  1  0
  6  7  1  0
  7  8  2  0
  9 11  1  0
  9 10  2  0
 10 12  1  0
 11 13  2  0
 12 14  2  0
 13 14  1  0
M  END
>  <vina_dock>  (780) 
-6.76

$$$$
O14757_PocketFlow_idx-in-all-generaetd-173
     RDKit          3D

 11 11  0  0  0  0  0  0  0  0999 V2000
    1.9370   -2.6740   42.6410 C   0  0  0  0  0  0  0  0  0  0  0  0
    0.4750   -2.7740   42.7560 N   0  0  0  0  0  0  0  0  0  0  0  0
   -0.1230   -2.6130   41.6340 C   0  0  0  0  0  0  0  0  0  0  0  0
   -1.4730   -2.6570   41.5120 N   0  0  0  0  0  0  0  0  0  0  0  0
    2.5740   -3.4100   43.8220 C   0  0  0  0  0  0  0  0  0  0  0  0
    3.9360   -2.8570   44.1580 C   0  0  0  0  0  0  0  0  0  0  0  0
    4.3870   -1.6710   43.5650 C   0  0  0  0  0  0  0  0  0  0  0  0
    4.7580   -3.5080   45.0880 C   0  0  0  0  0  0  0  0  0  0  0  0
    5.6400   -1.1490   43.8910 C   0  0  0  0  0  0  0  0  0  0  0  0
    6.0100   -2.9850   45.4130 C   0  0  0  0  0  0  0  0  0  0  0  0
    6.4520   -1.8060   44.8150 C   0  0  0  0  0  0  0  0  0  0  0  0
  1  2  1  0
  1  5  1  0
  2  3  1  0
  3  4  1  0
  5  6  1  0
  6  7  2  0
  6  8  1  0
  7  9  1  0
  8 10  2  0
  9 11  2  0
 10 11  1  0
M  END
>  <vina_dock>  (781) 
-5.619

$$$$
O14757_PocketFlow_idx-in-all-generaetd-982
     RDKit          3D

 25 27  0  0  0  0  0  0  0  0999 V2000
    4.1150   -4.5280   44.2920 C   0  0  0  0  0  0  0  0  0  0  0  0
    3.3820   -4.9930   45.3170 C   0  0  0  0  0  0  0  0  0  0  0  0
    4.0930   -3.1640   43.7560 C   0  0  0  0  0  0  0  0  0  0  0  0
    2.9870   -1.4450   42.4630 C   0  0  0  0  0  0  0  0  0  0  0  0
    3.0180   -2.7490   42.9650 C   0  0  0  0  0  0  0  0  0  0  0  0
    4.0210   -0.5480   42.7480 C   0  0  0  0  0  0  0  0  0  0  0  0
    5.0900   -0.9600   43.5420 C   0  0  0  0  0  0  0  0  0  0  0  0
    5.1250   -2.2610   44.0480 C   0  0  0  0  0  0  0  0  0  0  0  0
    1.8550   -1.0060   41.6240 C   0  0  0  0  0  0  0  0  0  0  0  0
    0.9450   -1.7320   41.2560 O   0  0  0  0  0  0  0  0  0  0  0  0
    1.8190    0.2770   41.2400 F   0  0  0  0  0  0  0  0  0  0  0  0
    2.4490   -4.2330   46.1230 C   0  0  0  0  0  0  0  0  0  0  0  0
    1.1310   -4.4650   46.2400 C   0  0  0  0  0  0  0  0  0  0  0  0
    0.3790   -5.5170   45.5500 C   0  0  0  0  0  0  0  0  0  0  0  0
   -0.4030   -6.4130   46.2890 C   0  0  0  0  0  0  0  0  0  0  0  0
    0.4350   -5.6330   44.1580 C   0  0  0  0  0  0  0  0  0  0  0  0
   -1.1320   -7.4350   45.6570 C   0  0  0  0  0  0  0  0  0  0  0  0
   -0.2810   -6.6400   43.5130 C   0  0  0  0  0  0  0  0  0  0  0  0
   -1.0570   -7.5310   44.2580 C   0  0  0  0  0  0  0  0  0  0  0  0
   -1.9500   -8.3780   46.4380 C   0  0  0  0  0  0  0  0  0  0  0  0
   -2.7200   -9.3670   45.8040 C   0  0  0  0  0  0  0  0  0  0  0  0
   -1.9840   -8.3160   47.8420 C   0  0  0  0  0  0  0  0  0  0  0  0
   -3.4960  -10.2630   46.5460 C   0  0  0  0  0  0  0  0  0  0  0  0
   -2.7600   -9.2090   48.5840 C   0  0  0  0  0  0  0  0  0  0  0  0
   -3.5150  -10.1840   47.9350 C   0  0  0  0  0  0  0  0  0  0  0  0
  1  3  1  0
  1  2  2  3
  2 12  1  0
  3  5  2  0
  3  8  1  0
  4  9  1  0
  4  6  2  0
  4  5  1  0
  6  7  1  0
  7  8  2  0
  9 11  1  0
  9 10  2  0
 12 13  2  3
 13 14  1  0
 14 16  1  0
 14 15  2  0
 15 17  1  0
 16 18  2  0
 17 19  2  0
 17 20  1  0
 18 19  1  0
 20 21  2  0
 20 22  1  0
 21 23  1  0
 22 24  2  0
 23 25  2  0
 24 25  1  0
M  END
>  <vina_dock>  (782) 
-9.036

$$$$
O14757_PocketFlow_idx-in-all-generaetd-384
     RDKit          3D

 15 16  0  0  0  0  0  0  0  0999 V2000
    0.8790   -2.3260   41.9240 C   0  0  1  0  0  0  0  0  0  0  0  0
    2.0360   -2.6220   42.8640 C   0  0  0  0  0  0  0  0  0  0  0  0
    3.0940   -3.9570   44.6000 C   0  0  0  0  0  0  0  0  0  0  0  0
    4.2270   -3.1300   44.5860 C   0  0  0  0  0  0  0  0  0  0  0  0
    2.0160   -3.7100   43.7460 C   0  0  0  0  0  0  0  0  0  0  0  0
    4.2730   -2.0410   43.6900 C   0  0  0  0  0  0  0  0  0  0  0  0
    5.3180   -3.3660   45.4390 C   0  0  0  0  0  0  0  0  0  0  0  0
    3.1800   -1.8050   42.8370 C   0  0  0  0  0  0  0  0  0  0  0  0
    5.4120   -1.2180   43.6670 C   0  0  0  0  0  0  0  0  0  0  0  0
    6.4400   -2.5370   45.4080 C   0  0  0  0  0  0  0  0  0  0  0  0
    6.4870   -1.4650   44.5220 C   0  0  0  0  0  0  0  0  0  0  0  0
   -0.3420   -3.0150   42.4020 N   0  0  0  0  0  0  0  0  0  0  0  0
    0.6850   -0.8090   41.6670 C   0  0  0  0  0  0  0  0  0  0  0  0
   -0.6050   -0.5420   41.3260 F   0  0  0  0  0  0  0  0  0  0  0  0
    1.4390   -0.4350   40.5970 F   0  0  0  0  0  0  0  0  0  0  0  0
  1 13  1  0
  1 12  1  1
  1  2  1  0
  2  8  2  0
  2  5  1  0
  3  5  2  0
  3  4  1  0
  4  6  2  0
  4  7  1  0
  6  8  1  0
  6  9  1  0
  7 10  2  0
  9 11  2  0
 10 11  1  0
 13 15  1  0
 13 14  1  0
M  END
>  <vina_dock>  (783) 
-8.012

$$$$
O14757_PocketFlow_idx-in-all-generaetd-246
     RDKit          3D

 17 19  0  0  0  0  0  0  0  0999 V2000
    0.8690   -3.0840   42.7450 C   0  0  0  0  0  0  0  0  0  0  0  0
    1.0830   -3.9050   43.8480 C   0  0  0  0  0  0  0  0  0  0  0  0
    1.8660   -2.1740   42.3940 C   0  0  0  0  0  0  0  0  0  0  0  0
    3.1010   -2.1540   43.0720 C   0  0  0  0  0  0  0  0  0  0  0  0
    3.3350   -3.0300   44.1470 C   0  0  0  0  0  0  0  0  0  0  0  0
    2.3120   -3.8870   44.5210 C   0  0  0  0  0  0  0  0  0  0  0  0
    4.1280   -1.2760   42.7150 C   0  0  0  0  0  0  0  0  0  0  0  0
    5.3310   -1.2950   43.4160 C   0  0  0  0  0  0  0  0  0  0  0  0
    5.4870   -2.1900   44.4700 C   0  0  0  0  0  0  0  0  0  0  0  0
    4.4970   -3.0510   44.8220 N   0  0  0  0  0  0  0  0  0  0  0  0
   -0.3930   -3.0170   42.1470 N   0  0  0  0  0  0  0  0  0  0  0  0
    6.7290   -2.2810   45.2690 C   0  0  0  0  0  0  0  0  0  0  0  0
    7.0410   -3.4140   46.0440 C   0  0  0  0  0  0  0  0  0  0  0  0
    7.6590   -1.2240   45.2720 C   0  0  0  0  0  0  0  0  0  0  0  0
    8.2190   -3.4790   46.7980 C   0  0  0  0  0  0  0  0  0  0  0  0
    8.8350   -1.2840   46.0240 C   0  0  0  0  0  0  0  0  0  0  0  0
    9.1130   -2.4130   46.7900 C   0  0  0  0  0  0  0  0  0  0  0  0
  1 11  1  0
  1  3  2  0
  1  2  1  0
  2  6  2  0
  3  4  1  0
  4  7  2  0
  4  5  1  0
  5  6  1  0
  5 10  2  0
  7  8  1  0
  8  9  2  0
  9 10  1  0
  9 12  1  0
 12 14  1  0
 12 13  2  0
 13 15  1  0
 14 16  2  0
 15 17  2  0
 16 17  1  0
M  END
>  <vina_dock>  (784) 
-8.393

$$$$
O14757_PocketFlow_idx-in-all-generaetd-438
     RDKit          3D

 19 20  0  0  0  0  0  0  0  0999 V2000
    1.5150   -4.5590   45.2580 C   0  0  0  0  0  0  0  0  0  0  0  0
    1.2160   -3.8990   44.0690 C   0  0  0  0  0  0  0  0  0  0  0  0
    2.8170   -4.5480   45.7540 C   0  0  0  0  0  0  0  0  0  0  0  0
    3.8370   -3.8670   45.0670 C   0  0  0  0  0  0  0  0  0  0  0  0
    3.5330   -3.2110   43.8560 C   0  0  0  0  0  0  0  0  0  0  0  0
    2.2140   -3.2300   43.3690 C   0  0  0  0  0  0  0  0  0  0  0  0
    5.1970   -3.9180   45.6420 C   0  0  0  0  0  0  0  0  0  0  0  0
    6.1370   -2.9510   45.6030 C   0  0  0  0  0  0  0  0  0  0  0  0
    0.2820   -5.3940   46.1270 Cl  0  0  0  0  0  0  0  0  0  0  0  0
    5.9510   -1.6430   44.9820 C   0  0  0  0  0  0  0  0  0  0  0  0
    5.2750   -1.4060   43.8410 C   0  0  0  0  0  0  0  0  0  0  0  0
    4.5990   -2.4960   43.0550 C   0  0  0  0  0  0  0  0  0  0  0  0
   -0.0450   -3.8810   43.5430 O   0  0  0  0  0  0  0  0  0  0  0  0
    7.4370   -3.1740   46.3130 C   0  0  0  0  0  0  0  0  0  0  0  0
    8.2850   -2.3200   46.5110 O   0  0  0  0  0  0  0  0  0  0  0  0
    7.6350   -4.4370   46.7300 O   0  0  0  0  0  0  0  0  0  0  0  0
    5.1530   -0.0340   43.2530 C   0  0  0  0  0  0  0  0  0  0  0  0
    3.8490    0.3450   43.1840 F   0  0  0  0  0  0  0  0  0  0  0  0
    5.6210   -0.0210   41.9760 F   0  0  0  0  0  0  0  0  0  0  0  0
  1  2  2  0
  1  3  1  0
  1  9  1  0
  2  6  1  0
  2 13  1  0
  3  4  2  0
  4  5  1  0
  4  7  1  0
  5 12  1  0
  5  6  2  0
  7  8  2  0
  8 10  1  0
  8 14  1  0
 10 11  2  0
 11 12  1  0
 11 17  1  0
 14 15  2  0
 14 16  1  0
 17 19  1  0
 17 18  1  0
M  END
>  <vina_dock>  (785) 
-7.752

$$$$
O14757_PocketFlow_idx-in-all-generaetd-505
     RDKit          3D

 27 30  0  0  0  0  0  0  0  0999 V2000
    2.0180   -3.0420   43.1500 C   0  0  0  0  0  0  0  0  0  0  0  0
    1.8320   -4.0340   43.9490 N   0  0  0  0  0  0  0  0  0  0  0  0
    3.2820   -2.2490   43.3390 C   0  0  0  0  0  0  0  0  0  0  0  0
    5.4270   -1.9130   44.4520 C   0  0  0  0  0  0  0  0  0  0  0  0
    5.6200   -0.7600   43.6750 C   0  0  0  0  0  0  0  0  0  0  0  0
    4.2490   -2.6540   44.2700 C   0  0  0  0  0  0  0  0  0  0  0  0
    4.6560   -0.3460   42.7530 C   0  0  0  0  0  0  0  0  0  0  0  0
    3.4880   -1.0870   42.5880 C   0  0  0  0  0  0  0  0  0  0  0  0
    6.4510   -2.3470   45.4250 C   0  0  0  0  0  0  0  0  0  0  0  0
    8.3390   -3.2530   47.3370 C   0  0  1  0  0  0  0  0  0  0  0  0
    8.4780   -1.8210   46.8040 C   0  0  1  0  0  0  0  0  0  0  0  0
    7.1120   -3.9210   47.1300 O   0  0  0  0  0  0  0  0  0  0  0  0
    9.5810   -3.9500   46.7790 C   0  0  0  0  0  0  0  0  0  0  0  0
    9.9510   -1.7470   46.5520 C   0  0  0  0  0  0  0  0  0  0  0  0
    7.7400   -1.5900   45.4870 C   0  0  0  0  0  0  0  0  0  0  0  0
    6.2490   -3.4150   46.2070 C   0  0  0  0  0  0  0  0  0  0  0  0
   10.4880   -2.9790   46.4750 N   0  0  0  0  0  0  0  0  0  0  0  0
    9.7670   -5.1490   46.6550 O   0  0  0  0  0  0  0  0  0  0  0  0
   10.6580   -0.6940   46.3710 N   0  0  0  0  0  0  0  0  0  0  0  0
    1.1550   -2.6480   42.1520 N   0  0  0  0  0  0  0  0  0  0  0  0
    0.6480   -4.8760   43.8110 C   0  0  0  0  0  0  0  0  0  0  0  0
    0.7740   -6.1670   44.5900 C   0  0  0  0  0  0  0  0  0  0  0  0
   -0.3680   -6.8780   44.9870 C   0  0  0  0  0  0  0  0  0  0  0  0
    2.0340   -6.6450   44.9780 C   0  0  0  0  0  0  0  0  0  0  0  0
   -0.2520   -8.0490   45.7390 C   0  0  0  0  0  0  0  0  0  0  0  0
    2.1500   -7.8160   45.7310 C   0  0  0  0  0  0  0  0  0  0  0  0
    1.0060   -8.5180   46.1090 C   0  0  0  0  0  0  0  0  0  0  0  0
  1 20  2  0
  1  3  1  0
  1  2  1  0
  2 21  1  0
  3  8  1  0
  3  6  2  0
  4  5  2  0
  4  6  1  0
  4  9  1  0
  5  7  1  0
  7  8  2  0
  9 15  1  0
  9 16  2  0
 10 13  1  0
 10 11  1  0
 10 12  1  6
 11 15  1  6
 11 14  1  0
 12 16  1  0
 13 17  1  0
 13 18  2  0
 14 19  2  3
 14 17  1  0
 21 22  1  0
 22 24  1  0
 22 23  2  0
 23 25  1  0
 24 26  2  0
 25 27  2  0
 26 27  1  0
M  CHG  1  20   1
M  END
>  <vina_dock>  (786) 
-9.662

$$$$
O14757_PocketFlow_idx-in-all-generaetd-787
     RDKit          3D

 21 23  0  0  0  0  0  0  0  0999 V2000
    1.1500   -2.4940   41.1120 C   0  0  0  0  0  0  0  0  0  0  0  0
   -0.2740   -2.8430   41.4300 C   0  0  0  0  0  0  0  0  0  0  0  0
   -1.2130   -2.0800   41.5810 O   0  0  0  0  0  0  0  0  0  0  0  0
   -0.4500   -4.1740   41.5530 O   0  0  0  0  0  0  0  0  0  0  0  0
    1.8030   -1.7610   42.2800 C   0  0  0  0  0  0  0  0  0  0  0  0
    2.5090   -2.7160   43.2120 C   0  0  0  0  0  0  0  0  0  0  0  0
    3.8050   -2.5230   43.7840 C   0  0  0  0  0  0  0  0  0  0  0  0
    1.7390   -3.8050   43.4560 N   0  0  0  0  0  0  0  0  0  0  0  0
    4.2800   -3.5940   44.6120 C   0  0  0  0  0  0  0  0  0  0  0  0
    4.6830   -1.3890   43.6270 C   0  0  0  0  0  0  0  0  0  0  0  0
    2.2140   -4.7860   44.2500 C   0  0  0  0  0  0  0  0  0  0  0  0
    3.4670   -4.7410   44.8440 C   0  0  0  0  0  0  0  0  0  0  0  0
    5.5700   -3.4820   45.1950 C   0  0  0  0  0  0  0  0  0  0  0  0
    4.2980    0.0410   42.7260 Cl  0  0  0  0  0  0  0  0  0  0  0  0
    5.9470   -1.3320   44.2280 C   0  0  0  0  0  0  0  0  0  0  0  0
    1.2880   -5.9470   44.4540 C   0  0  0  0  0  0  0  0  0  0  0  0
    3.8610   -5.8840   45.6730 C   0  0  0  0  0  0  0  0  0  0  0  0
    6.3920   -2.3780   45.0070 C   0  0  0  0  0  0  0  0  0  0  0  0
    0.1730   -5.9970   43.9470 O   0  0  0  0  0  0  0  0  0  0  0  0
    1.7450   -6.9660   45.2460 O   0  0  0  0  0  0  0  0  0  0  0  0
    3.0100   -6.8990   45.8250 C   0  0  0  0  0  0  0  0  0  0  0  0
  1  2  1  0
  1  5  1  0
  2  4  1  0
  2  3  2  0
  5  6  1  0
  6  8  2  0
  6  7  1  0
  7 10  2  0
  7  9  1  0
  8 11  1  0
  9 12  1  0
  9 13  2  0
 10 14  1  0
 10 15  1  0
 11 16  1  0
 11 12  2  0
 12 17  1  0
 13 18  1  0
 15 18  2  0
 16 19  2  0
 16 20  1  0
 17 21  2  0
 20 21  1  0
M  END
>  <vina_dock>  (787) 
-8.402

$$$$
O14757_PocketFlow_idx-in-all-generaetd-500
     RDKit          3D

 35 39  0  0  0  0  0  0  0  0999 V2000
    4.0120   -7.6160   46.1190 C   0  0  0  0  0  0  0  0  0  0  0  0
    2.7860   -6.7990   45.7560 C   0  0  0  0  0  0  0  0  0  0  0  0
    5.7490   -1.9400   44.7710 C   0  0  0  0  0  0  0  0  0  0  0  0
    5.6150   -2.9840   45.7200 C   0  0  0  0  0  0  0  0  0  0  0  0
    4.7320   -1.7450   43.8010 C   0  0  0  0  0  0  0  0  0  0  0  0
    4.4880   -3.7850   45.7010 C   0  0  0  0  0  0  0  0  0  0  0  0
    3.5860   -2.5670   43.7810 C   0  0  0  0  0  0  0  0  0  0  0  0
    4.2020   -4.8960   46.5440 N   0  0  0  0  0  0  0  0  0  0  0  0
    3.5390   -3.5540   44.7550 C   0  0  0  0  0  0  0  0  0  0  0  0
    2.4800   -2.5240   42.9120 C   0  0  0  0  0  0  0  0  0  0  0  0
    2.8320   -5.3270   46.1120 C   0  0  1  0  0  0  0  0  0  0  0  0
    2.5290   -4.4480   44.9320 C   0  0  0  0  0  0  0  0  0  0  0  0
    1.4200   -3.4510   43.0650 C   0  0  0  0  0  0  0  0  0  0  0  0
    1.4340   -4.4400   44.0810 C   0  0  0  0  0  0  0  0  0  0  0  0
    0.1090   -3.3290   41.9380 Cl  0  0  0  0  0  0  0  0  0  0  0  0
    1.6880   -7.3310   45.1680 C   0  0  0  0  0  0  0  0  0  0  0  0
    0.3390   -5.4000   44.3080 C   0  0  0  0  0  0  0  0  0  0  0  0
    0.4420   -6.6530   44.8050 C   0  0  0  0  0  0  0  0  0  0  0  0
    6.9350   -1.1760   44.7940 N   0  0  0  0  0  0  0  0  0  0  0  0
    8.0500   -1.3760   45.5520 C   0  0  0  0  0  0  0  0  0  0  0  0
    8.4940   -0.6990   46.5510 N   0  0  0  0  0  0  0  0  0  0  0  0
   -0.8330   -7.4040   44.8870 C   0  0  0  0  0  0  0  0  0  0  0  0
   -1.2580   -7.9640   46.1000 C   0  0  0  0  0  0  0  0  0  0  0  0
   -1.6390   -7.5360   43.7490 C   0  0  0  0  0  0  0  0  0  0  0  0
   -2.4720   -8.6590   46.1700 C   0  0  0  0  0  0  0  0  0  0  0  0
   -2.8490   -8.2290   43.8160 C   0  0  0  0  0  0  0  0  0  0  0  0
   -3.2650   -8.7910   45.0240 C   0  0  0  0  0  0  0  0  0  0  0  0
   -2.8750   -9.2330   47.4760 C   0  0  0  0  0  0  0  0  0  0  0  0
   -2.7630  -10.3980   47.8090 O   0  0  0  0  0  0  0  0  0  0  0  0
   -3.4020   -8.3180   48.3090 O   0  0  0  0  0  0  0  0  0  0  0  0
    4.1120   -7.9670   47.5460 N   0  0  0  0  0  0  0  0  0  0  0  0
    5.5040   -8.1300   47.9780 C   0  0  0  0  0  0  0  0  0  0  0  0
    5.7190   -7.7440   49.4380 C   0  0  0  0  0  0  0  0  0  0  0  0
    6.2130   -6.3250   49.5070 C   0  0  0  0  0  0  0  0  0  0  0  0
    5.9260   -5.4690   48.6770 O   0  0  0  0  0  0  0  0  0  0  0  0
  1  2  1  0
  1 31  1  0
  2 16  2  0
  2 11  1  0
  3  5  1  0
  3 19  1  0
  3  4  2  0
  4  6  1  0
  5  7  2  0
  6  9  2  0
  6  8  1  0
  7 10  1  0
  7  9  1  0
 11  8  1  6
  9 12  1  0
 10 13  2  0
 11 12  1  0
 12 14  2  0
 13 15  1  0
 13 14  1  0
 14 17  1  0
 16 18  1  0
 17 18  2  0
 18 22  1  0
 19 20  1  0
 20 21  1  0
 22 24  1  0
 22 23  2  0
 23 25  1  0
 24 26  2  0
 25 27  2  0
 25 28  1  0
 26 27  1  0
 28 29  2  0
 28 30  1  0
 31 32  1  0
 32 33  1  0
 33 34  1  0
 34 35  2  0
M  END
>  <vina_dock>  (788) 
-9.149

$$$$
O14757_PocketFlow_idx-in-all-generaetd-597
     RDKit          3D

 31 34  0  0  0  0  0  0  0  0999 V2000
    4.2680   -2.3430   44.3520 C   0  0  0  0  0  0  0  0  0  0  0  0
    3.6460   -1.6340   43.3100 C   0  0  0  0  0  0  0  0  0  0  0  0
    2.4740   -2.1370   42.7180 C   0  0  0  0  0  0  0  0  0  0  0  0
    1.9390   -3.3620   43.1270 C   0  0  0  0  0  0  0  0  0  0  0  0
    2.5770   -4.0950   44.1330 C   0  0  0  0  0  0  0  0  0  0  0  0
    3.7230   -3.5760   44.7510 C   0  0  0  0  0  0  0  0  0  0  0  0
    5.4390   -1.8470   45.0840 C   0  0  0  0  0  0  0  0  0  0  0  0
    6.4200   -2.6680   45.4810 C   0  0  0  0  0  0  0  0  0  0  0  0
    7.6580   -2.2730   46.2440 C   0  0  2  0  0  0  0  0  0  0  0  0
    8.5020   -1.1090   45.7120 C   0  0  0  0  0  0  0  0  0  0  0  0
    8.6840   -3.3920   46.3010 C   0  0  0  0  0  0  0  0  0  0  0  0
    9.8710   -1.3260   46.2340 N   0  0  0  0  0  0  0  0  0  0  0  0
    9.9180   -2.5870   46.5240 C   0  0  0  0  0  0  0  0  0  0  0  0
    4.1230   -0.3290   42.8030 C   0  0  0  0  0  0  0  0  0  0  0  0
    5.2700    0.0730   42.8670 O   0  0  0  0  0  0  0  0  0  0  0  0
    3.1290    0.4500   42.3460 O   0  0  0  0  0  0  0  0  0  0  0  0
    2.0510   -5.4070   44.6080 C   0  0  0  0  0  0  0  0  0  0  0  0
    0.6810   -5.4550   44.7990 N   0  0  0  0  0  0  0  0  0  0  0  0
    2.8450   -6.3280   44.7580 O   0  0  0  0  0  0  0  0  0  0  0  0
   -0.0790   -6.5550   45.2570 C   0  0  0  0  0  0  0  0  0  0  0  0
    0.0890   -7.1540   46.5120 C   0  0  0  0  0  0  0  0  0  0  0  0
   -1.0560   -7.0560   44.4010 C   0  0  0  0  0  0  0  0  0  0  0  0
   -0.6920   -8.2630   46.9310 C   0  0  0  0  0  0  0  0  0  0  0  0
   -1.8390   -8.1350   44.7970 C   0  0  0  0  0  0  0  0  0  0  0  0
   -0.5570   -8.9100   48.1840 C   0  0  0  0  0  0  0  0  0  0  0  0
   -1.6810   -8.7500   46.0460 C   0  0  0  0  0  0  0  0  0  0  0  0
   -2.7750   -8.5810   43.9410 F   0  0  0  0  0  0  0  0  0  0  0  0
   -1.3770   -9.9790   48.5480 C   0  0  0  0  0  0  0  0  0  0  0  0
   -2.4950   -9.8350   46.4250 C   0  0  0  0  0  0  0  0  0  0  0  0
   -2.3460  -10.4420   47.6680 C   0  0  0  0  0  0  0  0  0  0  0  0
    0.3700   -8.5490   49.1250 O   0  0  0  0  0  0  0  0  0  0  0  0
  1  2  2  0
  1  6  1  0
  1  7  1  0
  2  3  1  0
  2 14  1  0
  3  4  2  0
  4  5  1  0
  5 17  1  0
  5  6  2  0
  7  8  2  3
  8  9  1  0
  9 10  1  6
  9 11  1  0
 10 12  1  0
 11 13  1  0
 12 13  1  0
 14 16  1  0
 14 15  2  0
 17 19  2  0
 17 18  1  0
 18 20  1  0
 20 22  1  0
 20 21  2  0
 21 23  1  0
 22 24  2  0
 23 26  2  0
 23 25  1  0
 24 27  1  0
 24 26  1  0
 25 28  2  0
 25 31  1  0
 26 29  1  0
 28 30  1  0
 29 30  2  0
M  END
>  <vina_dock>  (789) 
-10.038

$$$$
O14757_PocketFlow_idx-in-all-generaetd-920
     RDKit          3D

 35 38  0  0  0  0  0  0  0  0999 V2000
    6.7900   -4.1630   48.2580 C   0  0  0  0  0  0  0  0  0  0  0  0
    5.7920   -4.9570   47.5510 N   0  0  0  0  0  0  0  0  0  0  0  0
    5.5980   -6.2860   48.0080 C   0  0  0  0  0  0  0  0  0  0  0  0
    4.6900   -7.0970   47.2990 C   0  0  0  0  0  0  0  0  0  0  0  0
    6.3340   -6.7370   49.0530 N   0  0  0  0  0  0  0  0  0  0  0  0
    3.9340   -6.6220   46.2650 N   0  0  0  0  0  0  0  0  0  0  0  0
    4.5790   -8.4340   47.7230 C   0  0  0  0  0  0  0  0  0  0  0  0
    6.1920   -8.0120   49.4270 C   0  0  0  0  0  0  0  0  0  0  0  0
    3.1000   -7.4770   45.6440 C   0  0  0  0  0  0  0  0  0  0  0  0
    3.7350   -9.2920   47.1210 N   0  0  0  0  0  0  0  0  0  0  0  0
    5.3400   -8.8840   48.7840 C   0  0  0  0  0  0  0  0  0  0  0  0
    3.0070   -8.7910   46.0940 C   0  0  0  0  0  0  0  0  0  0  0  0
    6.9850   -8.4420   50.4850 N   0  0  0  0  0  0  0  0  0  0  0  0
    2.2800   -7.0440   44.5930 N   0  0  0  0  0  0  0  0  0  0  0  0
    1.2410   -6.1000   44.9830 C   0  0  0  0  0  0  0  0  0  0  0  0
   -0.0650   -6.8470   45.1410 C   0  0  0  0  0  0  0  0  0  0  0  0
   -0.8260   -7.2080   44.0200 C   0  0  0  0  0  0  0  0  0  0  0  0
   -0.5320   -7.1950   46.4180 C   0  0  0  0  0  0  0  0  0  0  0  0
   -2.0300   -7.9000   44.1730 C   0  0  0  0  0  0  0  0  0  0  0  0
   -1.7340   -7.8900   46.5700 C   0  0  0  0  0  0  0  0  0  0  0  0
   -2.4820   -8.2410   45.4470 C   0  0  0  0  0  0  0  0  0  0  0  0
    7.4870   -3.1500   47.3220 C   0  0  2  0  0  0  0  0  0  0  0  0
    6.9640   -3.2760   45.8740 C   0  0  0  0  0  0  0  0  0  0  0  0
    6.6990   -1.9160   45.2160 C   0  0  0  0  0  0  0  0  0  0  0  0
    5.4470   -1.9430   44.3740 C   0  0  0  0  0  0  0  0  0  0  0  0
    5.1940   -0.9300   43.4420 C   0  0  0  0  0  0  0  0  0  0  0  0
    4.5310   -2.9940   44.4930 C   0  0  0  0  0  0  0  0  0  0  0  0
    4.0380   -0.9600   42.6560 C   0  0  0  0  0  0  0  0  0  0  0  0
    3.3770   -3.0250   43.7070 C   0  0  0  0  0  0  0  0  0  0  0  0
    3.1130   -2.0070   42.7790 C   0  0  0  0  0  0  0  0  0  0  0  0
    1.8440   -2.0550   41.9480 C   0  0  0  0  0  0  0  0  0  0  0  0
    0.7690   -2.9120   42.6240 C   0  0  0  0  0  0  0  0  0  0  0  0
    1.3110   -0.6520   41.6450 C   0  0  0  0  0  0  0  0  0  0  0  0
    9.0300   -3.2630   47.3650 C   0  0  0  0  0  0  0  0  0  0  0  0
    9.6340   -4.3410   46.4740 C   0  0  0  0  0  0  0  0  0  0  0  0
 22  1  1  1
  1  2  1  0
  2  3  1  0
  3  4  1  0
  3  5  2  0
  4  6  2  0
  4  7  1  0
  5  8  1  0
  6  9  1  0
  7 10  2  0
  7 11  1  0
  8 11  2  0
  8 13  1  0
  9 14  1  0
  9 12  2  0
 10 12  1  0
 14 15  1  0
 15 16  1  0
 16 17  2  0
 16 18  1  0
 17 19  1  0
 18 20  2  0
 19 21  2  0
 20 21  1  0
 22 23  1  0
 22 34  1  0
 23 24  1  0
 24 25  1  0
 25 26  2  0
 25 27  1  0
 26 28  1  0
 27 29  2  0
 28 30  2  0
 29 30  1  0
 30 31  1  0
 31 33  1  0
 31 32  1  0
 34 35  1  0
M  END
>  <vina_dock>  (790) 
-8.456

$$$$
O14757_PocketFlow_idx-in-all-generaetd-218
     RDKit          3D

 14 16  0  0  0  0  0  0  0  0999 V2000
   -0.0130   -2.6760   41.6290 C   0  0  0  0  0  0  0  0  0  0  0  0
    0.3870   -3.5190   42.6610 C   0  0  0  0  0  0  0  0  0  0  0  0
    0.8340   -1.6630   41.2070 C   0  0  0  0  0  0  0  0  0  0  0  0
    1.6360   -3.3610   43.2850 C   0  0  0  0  0  0  0  0  0  0  0  0
    2.5250   -2.3330   42.8740 C   0  0  0  0  0  0  0  0  0  0  0  0
    2.0800   -1.4960   41.8200 C   0  0  0  0  0  0  0  0  0  0  0  0
    2.0030   -4.2270   44.3190 C   0  0  0  0  0  0  0  0  0  0  0  0
    3.2330   -4.0970   44.9560 C   0  0  0  0  0  0  0  0  0  0  0  0
    4.1340   -3.0980   44.5790 C   0  0  0  0  0  0  0  0  0  0  0  0
    5.3680   -2.9940   45.2430 C   0  0  0  0  0  0  0  0  0  0  0  0
    6.2910   -2.0120   44.8960 C   0  0  0  0  0  0  0  0  0  0  0  0
    5.9890   -1.1200   43.8790 C   0  0  0  0  0  0  0  0  0  0  0  0
    4.7650   -1.2130   43.2100 C   0  0  0  0  0  0  0  0  0  0  0  0
    3.7990   -2.1990   43.5350 C   0  0  0  0  0  0  0  0  0  0  0  0
  1  3  2  0
  1  2  1  0
  2  4  2  0
  3  6  1  0
  4  5  1  0
  4  7  1  0
  5  6  2  0
  5 14  1  0
  7  8  2  0
  8  9  1  0
  9 14  2  0
  9 10  1  0
 10 11  2  0
 11 12  1  0
 12 13  2  0
 13 14  1  0
M  END
>  <vina_dock>  (791) 
-8.518

$$$$
O14757_PocketFlow_idx-in-all-generaetd-372
     RDKit          3D

 35 38  0  0  0  0  0  0  0  0999 V2000
    3.8770   -2.6440   44.2170 C   0  0  0  0  0  0  0  0  0  0  0  0
    4.5740   -1.6180   43.5590 C   0  0  0  0  0  0  0  0  0  0  0  0
    5.8650   -1.2710   43.9650 C   0  0  0  0  0  0  0  0  0  0  0  0
    6.4830   -1.9370   45.0300 C   0  0  0  0  0  0  0  0  0  0  0  0
    5.7930   -2.9690   45.6790 C   0  0  0  0  0  0  0  0  0  0  0  0
    4.5000   -3.3140   45.2780 C   0  0  0  0  0  0  0  0  0  0  0  0
    2.4790   -3.0220   43.7780 C   0  0  0  0  0  0  0  0  0  0  0  0
    1.9360   -4.2790   44.4210 C   0  0  0  0  0  0  0  0  0  0  0  0
    0.9360   -6.6390   45.6030 C   0  0  0  0  0  0  0  0  0  0  0  0
    2.0370   -6.6890   44.7390 C   0  0  0  0  0  0  0  0  0  0  0  0
    0.3520   -5.3960   45.8830 C   0  0  0  0  0  0  0  0  0  0  0  0
    2.5330   -5.5180   44.1580 C   0  0  0  0  0  0  0  0  0  0  0  0
    0.8530   -4.2290   45.3050 C   0  0  0  0  0  0  0  0  0  0  0  0
    0.3710   -7.9040   46.2100 C   0  0  0  0  0  0  0  0  0  0  0  0
   -1.0390   -8.2360   45.7730 C   0  0  0  0  0  0  0  0  0  0  0  0
   -2.8070   -8.1590   44.1190 C   0  0  0  0  0  0  0  0  0  0  0  0
   -1.5110   -7.8350   44.5130 C   0  0  0  0  0  0  0  0  0  0  0  0
   -3.6480   -8.8780   44.9570 C   0  0  0  0  0  0  0  0  0  0  0  0
   -3.1910   -9.2810   46.2110 C   0  0  0  0  0  0  0  0  0  0  0  0
   -1.8920   -8.9640   46.6190 C   0  0  0  0  0  0  0  0  0  0  0  0
   -3.2930   -7.7780   42.9020 O   0  0  0  0  0  0  0  0  0  0  0  0
    7.8690   -1.5400   45.4750 C   0  0  0  0  0  0  0  0  0  0  0  0
    7.9530   -1.4790   46.9000 O   0  0  0  0  0  0  0  0  0  0  0  0
    9.1090   -2.1540   47.4080 C   0  0  0  0  0  0  0  0  0  0  0  0
    9.0110   -3.6900   47.2290 C   0  0  2  0  0  0  0  0  0  0  0  0
    8.6830   -4.4490   48.5190 C   0  0  0  0  0  0  0  0  0  0  0  0
   10.2770   -4.0590   46.6600 O   0  0  0  0  0  0  0  0  0  0  0  0
    9.3170   -5.5250   49.0350 C   0  0  0  0  0  0  0  0  0  0  0  0
   10.3350   -5.3930   46.1750 C   0  0  0  0  0  0  0  0  0  0  0  0
   10.4440   -6.2690   48.5220 C   0  0  0  0  0  0  0  0  0  0  0  0
   10.8680   -6.2730   47.2530 C   0  0  0  0  0  0  0  0  0  0  0  0
    7.5010   -3.9930   49.2450 C   0  0  0  0  0  0  0  0  0  0  0  0
    6.2720   -4.5230   49.1570 C   0  0  0  0  0  0  0  0  0  0  0  0
    5.8090   -5.6050   48.2230 C   0  0  0  0  0  0  0  0  0  0  0  0
    5.6840   -6.9650   48.8950 C   0  0  0  0  0  0  0  0  0  0  0  0
  1  2  2  0
  1  7  1  0
  1  6  1  0
  2  3  1  0
  3  4  2  0
  4 22  1  0
  4  5  1  0
  5  6  2  0
  7  8  1  0
  8 12  2  0
  8 13  1  0
  9 10  2  0
  9 11  1  0
  9 14  1  0
 10 12  1  0
 11 13  2  0
 14 15  1  0
 15 17  1  0
 15 20  2  0
 16 21  1  0
 16 17  2  0
 16 18  1  0
 18 19  2  0
 19 20  1  0
 22 23  1  0
 23 24  1  0
 25 24  1  1
 25 27  1  0
 25 26  1  0
 26 28  2  0
 26 32  1  0
 27 29  1  0
 28 30  1  0
 29 31  1  0
 30 31  2  0
 32 33  2  3
 33 34  1  0
 34 35  1  0
M  END
>  <vina_dock>  (792) 
-8.693

$$$$
O14757_PocketFlow_idx-in-all-generaetd-664
     RDKit          3D

 35 37  0  0  0  0  0  0  0  0999 V2000
   11.3900   -3.5860   47.8670 C   0  0  0  0  0  0  0  0  0  0  0  0
   10.4840   -3.2570   48.8840 C   0  0  0  0  0  0  0  0  0  0  0  0
    9.1150   -3.4680   48.7040 C   0  0  0  0  0  0  0  0  0  0  0  0
    8.6180   -4.0070   47.5140 C   0  0  0  0  0  0  0  0  0  0  0  0
    9.5310   -4.3340   46.4990 C   0  0  0  0  0  0  0  0  0  0  0  0
   10.9010   -4.1230   46.6710 C   0  0  0  0  0  0  0  0  0  0  0  0
   12.8660   -3.3480   48.0540 C   0  0  0  0  0  0  0  0  0  0  0  0
   13.4490   -2.4790   46.9630 C   0  0  0  0  0  0  0  0  0  0  0  0
   14.2030   -2.9470   46.1030 O   0  0  0  0  0  0  0  0  0  0  0  0
   13.0330   -1.0250   46.9720 C   0  0  0  0  0  0  0  0  0  0  0  0
   13.8420   -0.2740   46.1720 F   0  0  0  0  0  0  0  0  0  0  0  0
   11.7700   -0.8430   46.4960 F   0  0  0  0  0  0  0  0  0  0  0  0
    8.2410   -3.1400   49.7020 O   0  0  0  0  0  0  0  0  0  0  0  0
    7.1420   -4.2620   47.3050 C   0  0  0  0  0  0  0  0  0  0  0  0
    6.5190   -3.3610   46.2600 C   0  0  0  0  0  0  0  0  0  0  0  0
    5.2530   -3.6650   45.7310 C   0  0  0  0  0  0  0  0  0  0  0  0
    7.1930   -2.2270   45.7980 C   0  0  0  0  0  0  0  0  0  0  0  0
    4.6450   -2.8630   44.7440 C   0  0  0  0  0  0  0  0  0  0  0  0
    6.6140   -1.4150   44.8220 C   0  0  0  0  0  0  0  0  0  0  0  0
    5.3580   -1.7380   44.2860 C   0  0  0  0  0  0  0  0  0  0  0  0
    3.2940   -3.2150   44.2780 C   0  0  0  0  0  0  0  0  0  0  0  0
    2.5400   -4.1960   44.9420 C   0  0  0  0  0  0  0  0  0  0  0  0
    2.7250   -2.5710   43.1690 C   0  0  0  0  0  0  0  0  0  0  0  0
    1.2500   -4.5410   44.5110 C   0  0  0  0  0  0  0  0  0  0  0  0
    1.4360   -2.8980   42.7150 C   0  0  0  0  0  0  0  0  0  0  0  0
    0.7100   -3.8890   43.3950 C   0  0  0  0  0  0  0  0  0  0  0  0
    0.4770   -5.6110   45.2350 C   0  0  0  0  0  0  0  0  0  0  0  0
   -0.3750   -6.3010   44.4240 F   0  0  0  0  0  0  0  0  0  0  0  0
    0.8530   -2.2120   41.5010 C   0  0  0  0  0  0  0  0  0  0  0  0
    1.5610   -0.5840   41.3440 Cl  0  0  0  0  0  0  0  0  0  0  0  0
   -0.5030   -2.0830   41.5700 F   0  0  0  0  0  0  0  0  0  0  0  0
    1.0920   -2.8950   40.3440 F   0  0  0  0  0  0  0  0  0  0  0  0
    4.8460   -0.8310   43.2390 C   0  0  0  0  0  0  0  0  0  0  0  0
    4.3180    0.2490   43.4340 O   0  0  0  0  0  0  0  0  0  0  0  0
    5.1050   -1.2820   42.0000 O   0  0  0  0  0  0  0  0  0  0  0  0
  1  6  2  0
  1  7  1  0
  1  2  1  0
  2  3  2  0
  3  4  1  0
  3 13  1  0
  4  5  2  0
  4 14  1  0
  5  6  1  0
  7  8  1  0
  8  9  2  0
  8 10  1  0
 10 11  1  0
 10 12  1  0
 14 15  1  0
 15 16  2  0
 15 17  1  0
 16 18  1  0
 17 19  2  0
 18 21  1  0
 18 20  2  0
 19 20  1  0
 20 33  1  0
 21 23  1  0
 21 22  2  0
 22 24  1  0
 23 25  2  0
 24 26  2  0
 24 27  1  0
 25 29  1  0
 25 26  1  0
 27 28  1  0
 29 32  1  0
 29 30  1  0
 29 31  1  0
 33 35  1  0
 33 34  2  0
M  END
>  <vina_dock>  (793) 
-8.778

$$$$
O14757_PocketFlow_idx-in-all-generaetd-328
     RDKit          3D

 23 25  0  0  0  0  0  0  0  0999 V2000
    1.3700   -2.9500   42.7750 C   0  0  0  0  0  0  0  0  0  0  0  0
    0.7560   -4.0330   43.4410 C   0  0  0  0  0  0  0  0  0  0  0  0
    1.3790   -4.6830   44.5080 C   0  0  0  0  0  0  0  0  0  0  0  0
    2.6700   -2.5260   43.1760 C   0  0  0  0  0  0  0  0  0  0  0  0
    3.3950   -1.4770   42.5590 C   0  0  0  0  0  0  0  0  0  0  0  0
    4.6700   -1.1020   42.9930 C   0  0  0  0  0  0  0  0  0  0  0  0
    5.2610   -1.7640   44.0570 C   0  0  0  0  0  0  0  0  0  0  0  0
    4.5790   -2.8040   44.6850 C   0  0  0  0  0  0  0  0  0  0  0  0
    3.2980   -3.1940   44.2590 C   0  0  0  0  0  0  0  0  0  0  0  0
    2.6470   -4.2540   44.9080 C   0  0  0  0  0  0  0  0  0  0  0  0
    0.6020   -2.3240   41.6240 C   0  0  1  0  0  0  0  0  0  0  0  0
    1.1460   -2.5740   40.4020 F   0  0  0  0  0  0  0  0  0  0  0  0
   -0.7800   -2.7960   41.6090 N   0  0  0  0  0  0  0  0  0  0  0  0
   -1.6950   -1.7300   41.2100 C   0  0  0  0  0  0  0  0  0  0  0  0
   -2.8680   -2.3270   40.4480 C   0  0  0  0  0  0  0  0  0  0  0  0
    0.7130   -5.8510   45.1920 C   0  0  0  0  0  0  0  0  0  0  0  0
    0.0260   -6.7770   44.1840 C   0  0  0  0  0  0  0  0  0  0  0  0
   -1.0880   -7.5670   44.8260 C   0  0  0  0  0  0  0  0  0  0  0  0
   -0.9790   -7.9980   46.1540 C   0  0  0  0  0  0  0  0  0  0  0  0
   -2.2320   -7.9070   44.0920 C   0  0  0  0  0  0  0  0  0  0  0  0
   -2.0010   -8.7460   46.7420 C   0  0  0  0  0  0  0  0  0  0  0  0
   -3.2530   -8.6550   44.6820 C   0  0  0  0  0  0  0  0  0  0  0  0
   -3.1370   -9.0740   46.0050 C   0  0  0  0  0  0  0  0  0  0  0  0
  1 11  1  0
  1  4  2  0
  1  2  1  0
  2  3  2  0
  3 10  1  0
  3 16  1  0
  4  5  1  0
  4  9  1  0
  5  6  2  0
  6  7  1  0
  7  8  2  0
  8  9  1  0
  9 10  2  0
 11 12  1  6
 11 13  1  0
 13 14  1  0
 14 15  1  0
 16 17  1  0
 17 18  1  0
 18 20  1  0
 18 19  2  0
 19 21  1  0
 20 22  2  0
 21 23  2  0
 22 23  1  0
M  END
>  <vina_dock>  (794) 
-9.3

$$$$
O14757_PocketFlow_idx-in-all-generaetd-916
     RDKit          3D

  9  8  0  0  0  0  0  0  0  0999 V2000
    3.7060   -2.5910   44.3960 C   0  0  0  0  0  0  0  0  0  0  0  0
    3.0370   -3.6330   43.8760 C   0  0  0  0  0  0  0  0  0  0  0  0
    5.2060   -2.4890   44.4140 C   0  0  0  0  0  0  0  0  0  0  0  0
    5.7280   -1.1430   43.9050 C   0  0  0  0  0  0  0  0  0  0  0  0
    4.7040   -0.3580   43.0970 C   0  0  0  0  0  0  0  0  0  0  0  0
    1.5930   -3.7030   43.8620 C   0  0  0  0  0  0  0  0  0  0  0  0
    0.7620   -3.2320   42.9160 C   0  0  0  0  0  0  0  0  0  0  0  0
    1.1200   -2.5450   41.6960 C   0  0  0  0  0  0  0  0  0  0  0  0
    1.1650   -1.2110   41.6020 C   0  0  0  0  0  0  0  0  0  0  0  0
  1  2  2  3
  1  3  1  0
  2  6  1  0
  3  4  1  0
  4  5  1  0
  6  7  2  3
  7  8  1  0
  8  9  2  0
M  END
>  <vina_dock>  (795) 
-4.896

$$$$
O14757_PocketFlow_idx-in-all-generaetd-991
     RDKit          3D

 35 37  0  0  0  0  0  0  0  0999 V2000
    0.8950   -4.7660   44.4430 C   0  0  0  0  0  0  0  0  0  0  0  0
    2.2260   -4.7450   44.8810 C   0  0  0  0  0  0  0  0  0  0  0  0
    2.8490   -5.8940   45.4120 C   0  0  0  0  0  0  0  0  0  0  0  0
    2.1060   -7.0860   45.4760 C   0  0  0  0  0  0  0  0  0  0  0  0
    0.7790   -7.1120   45.0220 C   0  0  0  0  0  0  0  0  0  0  0  0
    0.1770   -5.9580   44.5140 C   0  0  0  0  0  0  0  0  0  0  0  0
    0.3620   -3.5680   43.9290 N   0  0  0  0  0  0  0  0  0  0  0  0
    0.5130   -3.0660   42.6650 C   0  0  0  0  0  0  0  0  0  0  0  0
    1.5390   -2.7160   42.1010 O   0  0  0  0  0  0  0  0  0  0  0  0
   -0.6820   -2.9970   42.0060 N   0  0  0  0  0  0  0  0  0  0  0  0
    4.2680   -5.7640   45.9380 C   0  0  0  0  0  0  0  0  0  0  0  0
    4.5160   -4.5350   46.8280 C   0  0  0  0  0  0  0  0  0  0  0  0
    5.3600   -3.4560   46.1690 C   0  0  0  0  0  0  0  0  0  0  0  0
    6.7230   -3.2400   46.4760 C   0  0  0  0  0  0  0  0  0  0  0  0
    4.7450   -2.6790   45.1620 C   0  0  0  0  0  0  0  0  0  0  0  0
    7.4150   -2.2370   45.7620 C   0  0  0  0  0  0  0  0  0  0  0  0
    5.4590   -1.7180   44.4420 C   0  0  0  0  0  0  0  0  0  0  0  0
    6.7970   -1.4850   44.7570 C   0  0  0  0  0  0  0  0  0  0  0  0
    7.4470   -4.0130   47.5000 C   0  0  0  0  0  0  0  0  0  0  0  0
    7.1360   -3.7360   48.7880 N   0  0  0  0  0  0  0  0  0  0  0  0
    8.4080   -4.9660   47.1600 C   0  0  0  0  0  0  0  0  0  0  0  0
    7.7830   -4.4250   49.7530 C   0  0  0  0  0  0  0  0  0  0  0  0
    9.0600   -5.6640   48.1740 C   0  0  0  0  0  0  0  0  0  0  0  0
    8.7400   -5.3920   49.4980 C   0  0  0  0  0  0  0  0  0  0  0  0
    4.7480   -0.9790   43.3640 C   0  0  0  0  0  0  0  0  0  0  0  0
    4.1420   -1.7140   42.3840 N   0  0  0  0  0  0  0  0  0  0  0  0
    4.6620    0.2430   43.3710 O   0  0  0  0  0  0  0  0  0  0  0  0
    2.6880   -8.3460   46.0120 C   0  0  0  0  0  0  0  0  0  0  0  0
    2.6270   -9.3890   45.3750 O   0  0  0  0  0  0  0  0  0  0  0  0
    3.3120   -8.2250   47.2360 N   0  0  0  0  0  0  0  0  0  0  0  0
    4.1050   -9.3120   47.7480 C   0  0  0  0  0  0  0  0  0  0  0  0
    5.5430   -8.9170   47.6480 C   0  0  0  0  0  0  0  0  0  0  0  0
    6.2090   -8.0170   48.3890 C   0  0  0  0  0  0  0  0  0  0  0  0
    5.6740   -7.2760   49.5070 C   0  0  0  0  0  0  0  0  0  0  0  0
    5.2410   -7.8650   50.6290 C   0  0  0  0  0  0  0  0  0  0  0  0
  1  7  1  0
  1  6  2  0
  1  2  1  0
  2  3  2  0
  3  4  1  0
  3 11  1  0
  4  5  2  0
  4 28  1  0
  5  6  1  0
  7  8  1  0
  8 10  1  0
  8  9  2  0
 11 12  1  0
 12 13  1  0
 13 15  2  0
 13 14  1  0
 14 16  2  0
 14 19  1  0
 15 17  1  0
 16 18  1  0
 17 25  1  0
 17 18  2  0
 19 21  1  0
 19 20  2  0
 20 22  1  0
 21 23  2  0
 22 24  2  0
 23 24  1  0
 25 26  1  0
 25 27  2  0
 28 29  2  0
 28 30  1  0
 30 31  1  0
 31 32  1  0
 32 33  2  3
 33 34  1  0
 34 35  2  0
M  END
>  <vina_dock>  (796) 
-2.673

$$$$
O14757_PocketFlow_idx-in-all-generaetd-801
     RDKit          3D

 11 11  0  0  0  0  0  0  0  0999 V2000
    3.3730   -2.2390   43.1260 C   0  0  0  0  0  0  0  0  0  0  0  0
    2.5570   -1.6680   42.1490 C   0  0  0  0  0  0  0  0  0  0  0  0
    2.8760   -3.2920   43.9000 C   0  0  0  0  0  0  0  0  0  0  0  0
    1.5650   -3.7630   43.7230 C   0  0  0  0  0  0  0  0  0  0  0  0
    0.7530   -3.1590   42.7530 C   0  0  0  0  0  0  0  0  0  0  0  0
    1.2500   -2.1200   41.9650 C   0  0  0  0  0  0  0  0  0  0  0  0
    4.6850   -1.7750   43.2960 N   0  0  0  0  0  0  0  0  0  0  0  0
    4.8390   -0.4960   43.2250 C   0  0  0  0  0  0  0  0  0  0  0  0
    1.0410   -4.8870   44.5820 C   0  0  0  0  0  0  0  0  0  0  0  0
    0.0310   -5.6610   43.8620 N   0  0  0  0  0  0  0  0  0  0  0  0
   -0.2510   -6.9140   44.5440 C   0  0  0  0  0  0  0  0  0  0  0  0
  1  2  2  0
  1  7  1  0
  1  3  1  0
  2  6  1  0
  3  4  2  0
  4  5  1  0
  4  9  1  0
  5  6  2  0
  7  8  2  0
  9 10  1  0
 10 11  1  0
M  END
>  <vina_dock>  (797) 
-5.343

$$$$
O14757_PocketFlow_idx-in-all-generaetd-106
     RDKit          3D

 22 24  0  0  0  0  0  0  0  0999 V2000
    4.1030   -2.2870   43.9060 C   0  0  0  0  0  0  0  0  0  0  0  0
    5.3930   -2.1700   44.7720 C   0  0  0  0  0  0  0  0  0  0  0  0
    3.0970   -3.1990   44.2240 C   0  0  0  0  0  0  0  0  0  0  0  0
    1.9310   -3.2160   43.4340 C   0  0  0  0  0  0  0  0  0  0  0  0
    1.7720   -2.3550   42.3340 C   0  0  0  0  0  0  0  0  0  0  0  0
    2.8000   -1.4600   42.0240 C   0  0  0  0  0  0  0  0  0  0  0  0
    3.9500   -1.4220   42.8110 C   0  0  0  0  0  0  0  0  0  0  0  0
    5.3290   -1.8990   46.0710 N   0  0  0  0  0  0  0  0  0  0  0  0
    6.3880   -2.2580   44.0610 O   0  0  0  0  0  0  0  0  0  0  0  0
    3.1930   -4.1630   45.4820 C   0  0  1  0  0  0  0  0  0  0  0  0
    3.8340   -3.8440   46.6220 C   0  0  0  0  0  0  0  0  0  0  0  0
    4.6770   -2.8130   46.8320 C   0  0  0  0  0  0  0  0  0  0  0  0
    2.4720   -5.4540   45.4630 C   0  0  0  0  0  0  0  0  0  0  0  0
    1.0910   -5.4900   45.6650 C   0  0  0  0  0  0  0  0  0  0  0  0
    3.1240   -6.6690   45.2700 C   0  0  0  0  0  0  0  0  0  0  0  0
    0.4260   -6.7130   45.6630 C   0  0  0  0  0  0  0  0  0  0  0  0
    2.5050   -7.8770   45.2670 N   0  0  0  0  0  0  0  0  0  0  0  0
    1.1690   -7.8650   45.4620 C   0  0  0  0  0  0  0  0  0  0  0  0
    0.5250   -2.4220   41.4960 C   0  0  0  0  0  0  0  0  0  0  0  0
    0.7560   -2.9280   40.2510 F   0  0  0  0  0  0  0  0  0  0  0  0
   -0.0640   -1.2070   41.2930 F   0  0  0  0  0  0  0  0  0  0  0  0
   -0.4470   -3.2100   42.0380 F   0  0  0  0  0  0  0  0  0  0  0  0
  1  7  2  0
  1  3  1  0
  1  2  1  0
  2  9  2  0
  2  8  1  0
  3  4  2  0
  3 10  1  0
  4  5  1  0
  5 19  1  0
  5  6  2  0
  6  7  1  0
  8 12  1  0
 10 13  1  1
 10 11  1  0
 11 12  2  0
 13 15  1  0
 13 14  2  0
 14 16  1  0
 15 17  2  0
 16 18  2  0
 17 18  1  0
 19 20  1  0
 19 21  1  0
 19 22  1  0
M  END
>  <vina_dock>  (798) 
-8.708

$$$$
O14757_PocketFlow_idx-in-all-generaetd-210
     RDKit          3D

 11 11  0  0  0  0  0  0  0  0999 V2000
    1.5860   -3.8180   44.3810 C   0  0  0  0  0  0  0  0  0  0  0  0
    0.7540   -4.1230   45.3830 C   0  0  0  0  0  0  0  0  0  0  0  0
    3.0270   -4.2170   44.2480 C   0  0  0  0  0  0  0  0  0  0  0  0
    3.9360   -3.0260   44.0510 C   0  0  0  0  0  0  0  0  0  0  0  0
    6.0010   -1.8350   44.5770 C   0  0  0  0  0  0  0  0  0  0  0  0
    7.2700   -1.7260   45.3680 C   0  0  0  0  0  0  0  0  0  0  0  0
    5.1410   -2.9270   44.7630 C   0  0  0  0  0  0  0  0  0  0  0  0
    5.6320   -0.8230   43.6850 C   0  0  0  0  0  0  0  0  0  0  0  0
    4.4390   -0.9140   42.9680 C   0  0  0  0  0  0  0  0  0  0  0  0
    3.5970   -2.0110   43.1460 C   0  0  0  0  0  0  0  0  0  0  0  0
    1.0010   -4.8690   46.5020 N   0  0  0  0  0  0  0  0  0  0  0  0
  1  3  1  0
  1  2  2  3
  2 11  1  0
  3  4  1  0
  4 10  2  0
  4  7  1  0
  5  8  1  0
  5  7  2  0
  5  6  1  0
  8  9  2  0
  9 10  1  0
M  END
>  <vina_dock>  (799) 
-6.137

$$$$
O14757_PocketFlow_idx-in-all-generaetd-506
     RDKit          3D

 35 36  0  0  0  0  0  0  0  0999 V2000
   13.0830   -7.1100   45.8470 C   0  0  0  0  0  0  0  0  0  0  0  0
   12.4890   -8.3060   46.0270 C   0  0  0  0  0  0  0  0  0  0  0  0
   13.0570   -5.9820   46.8080 C   0  0  0  0  0  0  0  0  0  0  0  0
   11.7750   -5.2240   47.1130 C   0  0  0  0  0  0  0  0  0  0  0  0
   10.7310   -5.1850   45.9990 C   0  0  0  0  0  0  0  0  0  0  0  0
    9.3830   -4.6460   46.4950 C   0  0  0  0  0  0  0  0  0  0  0  0
    9.3350   -3.1230   46.6160 C   0  0  0  0  0  0  0  0  0  0  0  0
    8.0540   -2.6140   47.3030 C   0  0  0  0  0  0  0  0  0  0  0  0
    6.7660   -3.0870   46.6580 C   0  0  0  0  0  0  0  0  0  0  0  0
    6.4860   -2.5890   45.3710 C   0  0  0  0  0  0  0  0  0  0  0  0
    5.3300   -2.9500   44.6820 C   0  0  0  0  0  0  0  0  0  0  0  0
    4.4050   -3.8180   45.2640 C   0  0  0  0  0  0  0  0  0  0  0  0
    4.6690   -4.3030   46.5570 C   0  0  0  0  0  0  0  0  0  0  0  0
    5.8480   -3.9770   47.2640 C   0  0  0  0  0  0  0  0  0  0  0  0
    6.0220   -4.5160   48.6780 C   0  0  0  0  0  0  0  0  0  0  0  0
    5.6200   -5.9830   48.9400 C   0  0  0  0  0  0  0  0  0  0  0  0
    6.5620   -6.9640   48.2940 C   0  0  0  0  0  0  0  0  0  0  0  0
    7.2800   -7.8730   48.9730 C   0  0  0  0  0  0  0  0  0  0  0  0
    8.2350   -8.7790   48.3710 C   0  0  0  0  0  0  0  0  0  0  0  0
    9.1090   -8.3880   47.4350 C   0  0  0  0  0  0  0  0  0  0  0  0
   10.1760   -9.2240   46.7850 C   0  0  2  0  0  0  0  0  0  0  0  0
   11.6100   -8.7140   47.1870 C   0  0  1  0  0  0  0  0  0  0  0  0
   14.1130   -5.6750   47.3640 O   0  0  0  0  0  0  0  0  0  0  0  0
   12.7530   -9.2820   44.9460 C   0  0  0  0  0  0  0  0  0  0  0  0
   12.6420  -10.4930   45.0340 O   0  0  0  0  0  0  0  0  0  0  0  0
   13.1150   -8.7190   43.7830 O   0  0  0  0  0  0  0  0  0  0  0  0
   12.3530   -9.6630   47.9770 O   0  0  0  0  0  0  0  0  0  0  0  0
   12.9200   -9.1270   49.1550 C   0  0  0  0  0  0  0  0  0  0  0  0
   12.1520   -8.0350   49.6100 O   0  0  0  0  0  0  0  0  0  0  0  0
    9.9170   -9.0760   45.3820 O   0  0  0  0  0  0  0  0  0  0  0  0
    3.1370   -4.1870   44.5070 C   0  0  1  0  0  0  0  0  0  0  0  0
    1.9750   -4.5110   45.4550 C   0  0  0  0  0  0  0  0  0  0  0  0
    2.7380   -3.1060   43.5270 C   0  0  0  0  0  0  0  0  0  0  0  0
    1.5230   -3.0100   42.9620 C   0  0  0  0  0  0  0  0  0  0  0  0
    1.1360   -1.9400   41.9940 C   0  0  0  0  0  0  0  0  0  0  0  0
  1  2  2  3
  1  3  1  0
  2 24  1  0
  2 22  1  0
  3  4  1  0
  3 23  2  0
  4  5  1  0
  5  6  1  0
  6  7  1  0
  7  8  1  0
  8  9  1  0
  9 10  2  0
  9 14  1  0
 10 11  1  0
 11 12  2  0
 12 31  1  0
 12 13  1  0
 13 14  2  0
 14 15  1  0
 15 16  1  0
 16 17  1  0
 17 18  2  3
 18 19  1  0
 19 20  2  3
 20 21  1  0
 21 30  1  6
 21 22  1  0
 22 27  1  6
 24 26  1  0
 24 25  2  0
 27 28  1  0
 28 29  1  0
 31 33  1  0
 31 32  1  1
 33 34  2  3
 34 35  1  0
M  END
>  <vina_dock>  (800) 
-7.369

$$$$
O14757_PocketFlow_idx-in-all-generaetd-241
     RDKit          3D

 32 34  0  0  0  0  0  0  0  0999 V2000
    1.9050   -4.0140   43.6850 O   0  0  0  0  0  0  0  0  0  0  0  0
    2.3420   -2.8790   43.0870 C   0  0  0  0  0  0  0  0  0  0  0  0
    1.7360   -2.2420   42.2400 O   0  0  0  0  0  0  0  0  0  0  0  0
    3.6820   -2.4910   43.6060 C   0  0  0  0  0  0  0  0  0  0  0  0
    6.2220   -1.8510   44.6430 C   0  0  0  0  0  0  0  0  0  0  0  0
    5.5340   -2.9850   45.0950 C   0  0  0  0  0  0  0  0  0  0  0  0
    5.6190   -1.0330   43.6780 C   0  0  0  0  0  0  0  0  0  0  0  0
    4.2760   -3.3060   44.5770 C   0  0  0  0  0  0  0  0  0  0  0  0
    4.3610   -1.3500   43.1590 C   0  0  0  0  0  0  0  0  0  0  0  0
    7.5810   -1.5110   45.2060 C   0  0  0  0  0  0  0  0  0  0  0  0
    7.8890   -2.1680   46.5580 C   0  0  0  0  0  0  0  0  0  0  0  0
    8.7750   -3.4200   46.4830 C   0  0  0  0  0  0  0  0  0  0  0  0
    8.3760   -4.5220   47.4250 C   0  0  0  0  0  0  0  0  0  0  0  0
    6.7790   -5.5810   48.8780 C   0  0  0  0  0  0  0  0  0  0  0  0
    5.5720   -5.6190   49.4570 F   0  0  0  0  0  0  0  0  0  0  0  0
    7.1070   -4.5470   48.0130 C   0  0  0  0  0  0  0  0  0  0  0  0
    7.7150   -6.5670   49.1320 C   0  0  0  0  0  0  0  0  0  0  0  0
    8.9500   -6.5850   48.5780 N   0  0  0  0  0  0  0  0  0  0  0  0
    9.2480   -5.5660   47.7370 C   0  0  0  0  0  0  0  0  0  0  0  0
    0.7460   -3.8590   44.5230 C   0  0  0  0  0  0  0  0  0  0  0  0
    0.8360   -4.7540   45.7560 C   0  0  0  0  0  0  0  0  0  0  0  0
   -0.3310   -5.5270   46.0220 O   0  0  0  0  0  0  0  0  0  0  0  0
   -0.2890   -6.9630   45.8980 C   0  0  2  0  0  0  0  0  0  0  0  0
   -0.5580   -7.4680   47.3330 C   0  0  0  0  0  0  0  0  0  0  0  0
    1.1230   -7.4060   45.4430 C   0  0  0  0  0  0  0  0  0  0  0  0
   -1.3820   -7.4990   44.9550 C   0  0  0  0  0  0  0  0  0  0  0  0
   -0.4320   -8.9870   47.4970 C   0  0  1  0  0  0  0  0  0  0  0  0
    1.7320   -8.5610   46.2440 C   0  0  0  0  0  0  0  0  0  0  0  0
    0.6940   -9.5990   46.6500 C   0  0  0  0  0  0  0  0  0  0  0  0
   -0.2830   -9.3190   48.9650 C   0  0  0  0  0  0  0  0  0  0  0  0
   -0.9810  -10.0990   49.5920 O   0  0  0  0  0  0  0  0  0  0  0  0
    0.6920   -8.6290   49.5840 O   0  0  0  0  0  0  0  0  0  0  0  0
  1  2  1  0
  1 20  1  0
  2  3  2  0
  2  4  1  0
  4  9  1  0
  4  8  2  0
  5  7  1  0
  5  6  2  0
  5 10  1  0
  6  8  1  0
  7  9  2  0
 10 11  1  0
 11 12  1  0
 12 13  1  0
 13 19  2  0
 13 16  1  0
 14 16  2  0
 14 17  1  0
 14 15  1  0
 17 18  2  0
 18 19  1  0
 20 21  1  0
 21 22  1  0
 22 23  1  0
 23 26  1  6
 23 25  1  0
 23 24  1  0
 24 27  1  0
 25 28  1  0
 27 29  1  0
 27 30  1  1
 28 29  1  0
 30 32  1  0
 30 31  2  0
M  END
>  <vina_dock>  (801) 
-7.77

$$$$
O14757_PocketFlow_idx-in-all-generaetd-325
     RDKit          3D

 27 30  0  0  0  0  0  0  0  0999 V2000
    5.2240   -3.1950   45.4560 C   0  0  0  0  0  0  0  0  0  0  0  0
    4.0400   -3.9120   45.1520 C   0  0  0  0  0  0  0  0  0  0  0  0
    3.2140   -3.3890   44.1340 C   0  0  0  0  0  0  0  0  0  0  0  0
    3.5910   -2.2160   43.4740 C   0  0  0  0  0  0  0  0  0  0  0  0
    4.7770   -1.5880   43.8240 C   0  0  0  0  0  0  0  0  0  0  0  0
    5.5870   -2.0500   44.8090 N   0  0  0  0  0  0  0  0  0  0  0  0
    3.6270   -5.1070   45.7830 C   0  0  0  0  0  0  0  0  0  0  0  0
    2.4390   -5.7530   45.4220 C   0  0  0  0  0  0  0  0  0  0  0  0
    1.6150   -5.2270   44.4240 C   0  0  0  0  0  0  0  0  0  0  0  0
    2.0220   -4.0520   43.7800 C   0  0  0  0  0  0  0  0  0  0  0  0
    6.1960   -3.6470   46.5310 C   0  0  0  0  0  0  0  0  0  0  0  0
    7.6030   -3.0930   46.4140 C   0  0  0  0  0  0  0  0  0  0  0  0
   10.2010   -2.0200   46.2540 C   0  0  0  0  0  0  0  0  0  0  0  0
   10.0170   -3.3830   46.5100 C   0  0  0  0  0  0  0  0  0  0  0  0
    9.0870   -1.1960   46.0770 C   0  0  0  0  0  0  0  0  0  0  0  0
    8.7260   -3.9120   46.5960 C   0  0  0  0  0  0  0  0  0  0  0  0
    7.7970   -1.7260   46.1640 C   0  0  0  0  0  0  0  0  0  0  0  0
   11.5640   -1.4350   46.1710 C   0  0  0  0  0  0  0  0  0  0  0  0
   12.4730   -1.9300   45.3640 N   0  0  0  0  0  0  0  0  0  0  0  0
   11.9440   -0.3330   46.9050 N   0  0  0  0  0  0  0  0  0  0  0  0
   13.6730   -1.0780   45.5830 C   0  0  0  0  0  0  0  0  0  0  0  0
   13.1910    0.1510   46.3560 C   0  0  0  0  0  0  0  0  0  0  0  0
    5.2140   -0.3270   43.1150 C   0  0  0  0  0  0  0  0  0  0  0  0
    4.0780    0.4580   42.7400 O   0  0  0  0  0  0  0  0  0  0  0  0
    0.3930   -5.9610   44.0580 C   0  0  0  0  0  0  0  0  0  0  0  0
   -0.2120   -6.8960   44.8100 C   0  0  0  0  0  0  0  0  0  0  0  0
   -1.4500   -7.6210   44.3920 C   0  0  0  0  0  0  0  0  0  0  0  0
  1  6  1  0
  1  2  2  0
  1 11  1  0
  2  3  1  0
  2  7  1  0
  3  4  2  0
  3 10  1  0
  4  5  1  0
  5 23  1  0
  5  6  2  0
  7  8  2  0
  8  9  1  0
  9 10  2  0
  9 25  1  0
 11 12  1  0
 12 17  1  0
 12 16  2  0
 13 15  1  0
 13 18  1  0
 13 14  2  0
 14 16  1  0
 15 17  2  0
 18 19  1  0
 18 20  1  0
 19 21  1  0
 20 22  1  0
 21 22  1  0
 23 24  1  0
 25 26  2  3
 26 27  1  0
M  END
>  <vina_dock>  (802) 
-9.174

$$$$
O14757_PocketFlow_idx-in-all-generaetd-320
     RDKit          3D

 12 13  0  0  0  0  0  0  0  0999 V2000
    4.4250   -1.7430   43.5070 C   0  0  0  0  0  0  0  0  0  0  0  0
    5.6190   -1.5060   44.1660 C   0  0  0  0  0  0  0  0  0  0  0  0
    3.6130   -2.8050   43.9240 C   0  0  0  0  0  0  0  0  0  0  0  0
    4.0460   -3.6090   44.9910 C   0  0  0  0  0  0  0  0  0  0  0  0
    5.2720   -3.2780   45.5760 C   0  0  0  0  0  0  0  0  0  0  0  0
    6.0630   -2.2510   45.1930 N   0  0  0  0  0  0  0  0  0  0  0  0
    3.2960   -4.8180   45.5140 C   0  0  2  0  0  0  0  0  0  0  0  0
    3.5100   -6.0490   44.6270 C   0  0  0  0  0  0  0  0  0  0  0  0
    1.8360   -4.5680   45.7970 C   0  0  0  0  0  0  0  0  0  0  0  0
    0.9480   -3.9920   44.9760 C   0  0  0  0  0  0  0  0  0  0  0  0
    1.2230   -3.5510   43.6320 C   0  0  0  0  0  0  0  0  0  0  0  0
    2.3690   -3.0310   43.1690 C   0  0  0  0  0  0  0  0  0  0  0  0
  1  3  2  0
  1  2  1  0
  2  6  2  0
  3 12  1  0
  3  4  1  0
  4  7  1  0
  4  5  2  0
  5  6  1  0
  7  8  1  6
  7  9  1  0
  9 10  2  0
 10 11  1  0
 11 12  2  0
M  END
>  <vina_dock>  (803) 
-6.417

$$$$
O14757_PocketFlow_idx-in-all-generaetd-195
     RDKit          3D

 29 32  0  0  0  0  0  0  0  0999 V2000
    4.2300   -1.8150   43.5960 C   0  0  0  0  0  0  0  0  0  0  0  0
    3.4000   -1.2360   42.6270 C   0  0  0  0  0  0  0  0  0  0  0  0
    3.8250   -3.0120   44.2100 C   0  0  0  0  0  0  0  0  0  0  0  0
    2.6140   -3.6410   43.8700 C   0  0  0  0  0  0  0  0  0  0  0  0
    1.8080   -3.0360   42.8930 C   0  0  0  0  0  0  0  0  0  0  0  0
    2.1970   -1.8460   42.2770 C   0  0  0  0  0  0  0  0  0  0  0  0
    5.5250   -1.1470   43.9950 C   0  0  0  0  0  0  0  0  0  0  0  0
    6.2880   -1.9030   45.0600 C   0  0  0  0  0  0  0  0  0  0  0  0
    6.3250   -3.4720   46.9230 C   0  0  0  0  0  0  0  0  0  0  0  0
    7.7140   -3.3300   47.0140 C   0  0  0  0  0  0  0  0  0  0  0  0
    5.6150   -2.7580   45.9460 C   0  0  0  0  0  0  0  0  0  0  0  0
    8.3900   -2.4850   46.1340 C   0  0  0  0  0  0  0  0  0  0  0  0
    7.6810   -1.7780   45.1620 C   0  0  0  0  0  0  0  0  0  0  0  0
    5.6490   -4.3840   47.8760 C   0  0  0  0  0  0  0  0  0  0  0  0
    5.6610   -4.2850   49.0890 O   0  0  0  0  0  0  0  0  0  0  0  0
    4.9840   -5.3820   47.2660 O   0  0  0  0  0  0  0  0  0  0  0  0
    2.2010   -4.8930   44.5240 C   0  0  0  0  0  0  0  0  0  0  0  0
    0.9340   -5.0150   45.1180 C   0  0  0  0  0  0  0  0  0  0  0  0
    3.0640   -6.0020   44.5750 C   0  0  0  0  0  0  0  0  0  0  0  0
    0.5400   -6.2090   45.7260 C   0  0  0  0  0  0  0  0  0  0  0  0
    2.6790   -7.1900   45.2050 C   0  0  0  0  0  0  0  0  0  0  0  0
    1.4180   -7.2910   45.7880 C   0  0  0  0  0  0  0  0  0  0  0  0
   -0.7050   -6.2300   46.3120 O   0  0  0  0  0  0  0  0  0  0  0  0
   -1.5040   -7.3230   46.0660 C   0  0  0  0  0  0  0  0  0  0  0  0
   -2.0690   -7.5810   44.8140 C   0  0  0  0  0  0  0  0  0  0  0  0
   -1.7990   -8.1480   47.1530 C   0  0  0  0  0  0  0  0  0  0  0  0
   -2.8990   -8.6900   44.6450 C   0  0  0  0  0  0  0  0  0  0  0  0
   -2.6290   -9.2550   46.9810 C   0  0  0  0  0  0  0  0  0  0  0  0
   -3.1760   -9.5280   45.7270 C   0  0  0  0  0  0  0  0  0  0  0  0
  1  2  2  0
  1  7  1  0
  1  3  1  0
  2  6  1  0
  3  4  2  0
  4  5  1  0
  4 17  1  0
  5  6  2  0
  7  8  1  0
  8 13  2  0
  8 11  1  0
  9 11  2  0
  9 10  1  0
  9 14  1  0
 10 12  2  0
 12 13  1  0
 14 16  1  0
 14 15  2  0
 17 19  1  0
 17 18  2  0
 18 20  1  0
 19 21  2  0
 20 22  2  0
 20 23  1  0
 21 22  1  0
 23 24  1  0
 24 25  2  0
 24 26  1  0
 25 27  1  0
 26 28  2  0
 27 29  2  0
 28 29  1  0
M  END
>  <vina_dock>  (804) 
-9.98

$$$$
O14757_PocketFlow_idx-in-all-generaetd-740
     RDKit          3D

 33 36  0  0  0  0  0  0  0  0999 V2000
    0.7280   -4.3950   45.4320 C   0  0  0  0  0  0  0  0  0  0  0  0
    0.2130   -5.7630   45.8850 C   0  0  0  0  0  0  0  0  0  0  0  0
    0.0630   -6.7810   44.7460 C   0  0  0  0  0  0  0  0  0  0  0  0
   -1.2880   -7.4980   44.7270 C   0  0  0  0  0  0  0  0  0  0  0  0
   -1.5450   -8.3740   45.9410 C   0  0  0  0  0  0  0  0  0  0  0  0
   -0.8380   -9.3210   46.2640 O   0  0  0  0  0  0  0  0  0  0  0  0
   -2.6480   -7.9690   46.6650 N   0  0  0  0  0  0  0  0  0  0  0  0
   -3.0100   -8.6120   47.9020 C   0  0  0  0  0  0  0  0  0  0  0  0
    1.7260   -4.4880   44.2680 C   0  0  0  0  0  0  0  0  0  0  0  0
    1.5710   -3.3880   43.2350 C   0  0  0  0  0  0  0  0  0  0  0  0
    2.5690   -2.4160   42.9890 C   0  0  0  0  0  0  0  0  0  0  0  0
    0.3740   -3.3440   42.4930 C   0  0  0  0  0  0  0  0  0  0  0  0
    2.3250   -1.4270   42.0160 C   0  0  0  0  0  0  0  0  0  0  0  0
    0.1570   -2.3570   41.5330 C   0  0  0  0  0  0  0  0  0  0  0  0
    1.1310   -1.3960   41.2950 C   0  0  0  0  0  0  0  0  0  0  0  0
    3.8560   -2.3920   43.6970 C   0  0  0  0  0  0  0  0  0  0  0  0
    4.2440   -3.4600   44.5160 C   0  0  0  0  0  0  0  0  0  0  0  0
    4.7170   -1.2930   43.5820 C   0  0  0  0  0  0  0  0  0  0  0  0
    5.4710   -3.4370   45.1890 C   0  0  0  0  0  0  0  0  0  0  0  0
    5.9410   -1.2680   44.2590 C   0  0  0  0  0  0  0  0  0  0  0  0
    6.3400   -2.3400   45.0720 C   0  0  0  0  0  0  0  0  0  0  0  0
    7.6300   -2.3170   45.7780 C   0  0  0  0  0  0  0  0  0  0  0  0
    8.4280   -1.1640   45.7900 C   0  0  0  0  0  0  0  0  0  0  0  0
    8.1030   -3.4480   46.4630 C   0  0  0  0  0  0  0  0  0  0  0  0
    9.6560   -1.1410   46.4630 C   0  0  0  0  0  0  0  0  0  0  0  0
    9.3320   -3.4250   47.1330 C   0  0  0  0  0  0  0  0  0  0  0  0
   10.1300   -2.2720   47.1450 C   0  0  0  0  0  0  0  0  0  0  0  0
   11.4220   -2.2480   47.8480 C   0  0  0  0  0  0  0  0  0  0  0  0
   12.3140   -1.1750   47.6860 C   0  0  0  0  0  0  0  0  0  0  0  0
   11.7980   -3.2950   48.7060 C   0  0  0  0  0  0  0  0  0  0  0  0
   13.5400   -1.1490   48.3580 C   0  0  0  0  0  0  0  0  0  0  0  0
   13.0250   -3.2720   49.3770 C   0  0  0  0  0  0  0  0  0  0  0  0
   13.8940   -2.1980   49.2040 C   0  0  0  0  0  0  0  0  0  0  0  0
  1  9  1  0
  1  2  1  0
  2  3  1  0
  3  4  1  0
  4  5  1  0
  5  6  2  0
  5  7  1  0
  7  8  1  0
  9 10  1  0
 10 12  2  0
 10 11  1  0
 11 13  2  0
 11 16  1  0
 12 14  1  0
 13 15  1  0
 14 15  2  0
 16 18  1  0
 16 17  2  0
 17 19  1  0
 18 20  2  0
 19 21  2  0
 20 21  1  0
 21 22  1  0
 22 23  2  0
 22 24  1  0
 23 25  1  0
 24 26  2  0
 25 27  2  0
 26 27  1  0
 27 28  1  0
 28 29  2  0
 28 30  1  0
 29 31  1  0
 30 32  2  0
 31 33  2  0
 32 33  1  0
M  END
>  <vina_dock>  (805) 
-9.613

$$$$
O14757_PocketFlow_idx-in-all-generaetd-10
     RDKit          3D

 17 19  0  0  0  0  0  0  0  0999 V2000
    4.8620   -2.1760   44.1900 C   0  0  0  0  0  0  0  0  0  0  0  0
    4.8760   -1.1650   43.2240 C   0  0  0  0  0  0  0  0  0  0  0  0
    3.7250   -2.9990   44.2650 C   0  0  0  0  0  0  0  0  0  0  0  0
    2.6080   -2.8400   43.4040 C   0  0  0  0  0  0  0  0  0  0  0  0
    1.4430   -3.6490   43.4470 C   0  0  0  0  0  0  0  0  0  0  0  0
    2.6600   -1.8050   42.4400 C   0  0  0  0  0  0  0  0  0  0  0  0
    3.7920   -0.9820   42.3620 C   0  0  0  0  0  0  0  0  0  0  0  0
    1.2670   -4.9470   44.5820 Cl  0  0  0  0  0  0  0  0  0  0  0  0
    0.3780   -3.4340   42.5670 C   0  0  0  0  0  0  0  0  0  0  0  0
    0.4460   -2.4130   41.6260 C   0  0  0  0  0  0  0  0  0  0  0  0
    1.5800   -1.6060   41.5630 C   0  0  0  0  0  0  0  0  0  0  0  0
    6.0030   -2.3740   45.1000 C   0  0  0  0  0  0  0  0  0  0  0  0
    7.0870   -3.6030   46.9080 C   0  0  0  0  0  0  0  0  0  0  0  0
    6.0040   -3.4130   46.0450 C   0  0  0  0  0  0  0  0  0  0  0  0
    8.1880   -2.7530   46.8410 C   0  0  0  0  0  0  0  0  0  0  0  0
    8.2070   -1.7150   45.9130 C   0  0  0  0  0  0  0  0  0  0  0  0
    7.1250   -1.5280   45.0500 C   0  0  0  0  0  0  0  0  0  0  0  0
  1  2  2  0
  1  3  1  0
  1 12  1  0
  2  7  1  0
  3  4  2  0
  4  6  1  0
  4  5  1  0
  5  9  2  0
  5  8  1  0
  6 11  1  0
  6  7  2  0
  9 10  1  0
 10 11  2  0
 12 17  2  0
 12 14  1  0
 13 14  2  0
 13 15  1  0
 15 16  2  0
 16 17  1  0
M  END
>  <vina_dock>  (806) 
-8.9

$$$$
O14757_PocketFlow_idx-in-all-generaetd-198
     RDKit          3D

 35 37  0  0  0  0  0  0  0  0999 V2000
    4.7290   -3.7950   46.5860 C   0  0  1  0  0  0  0  0  0  0  0  0
    4.6140   -4.5180   45.2250 C   0  0  0  0  0  0  0  0  0  0  0  0
    3.7500   -5.7790   45.2140 C   0  0  0  0  0  0  0  0  0  0  0  0
    3.9650   -6.5950   46.3970 N   0  0  0  0  0  0  0  0  0  0  0  0
    3.5540   -7.8960   46.4330 C   0  0  0  0  0  0  0  0  0  0  0  0
    2.7980   -8.4390   45.6450 O   0  0  0  0  0  0  0  0  0  0  0  0
    4.1020   -8.5670   47.4800 N   0  0  0  0  0  0  0  0  0  0  0  0
    6.0190   -4.1470   47.3270 C   0  0  0  0  0  0  0  0  0  0  0  0
    7.2530   -3.9510   46.6810 C   0  0  0  0  0  0  0  0  0  0  0  0
    6.0300   -4.6360   48.6440 C   0  0  0  0  0  0  0  0  0  0  0  0
    8.4650   -4.2400   47.3250 C   0  0  0  0  0  0  0  0  0  0  0  0
    7.2350   -4.9280   49.2890 C   0  0  0  0  0  0  0  0  0  0  0  0
    8.4470   -4.7330   48.6320 C   0  0  0  0  0  0  0  0  0  0  0  0
    9.7450   -4.0210   46.6290 C   0  0  0  0  0  0  0  0  0  0  0  0
   10.2730   -2.8000   46.4150 C   0  0  0  0  0  0  0  0  0  0  0  0
   10.4320   -5.2770   46.1670 C   0  0  0  0  0  0  0  0  0  0  0  0
    9.7130   -1.5330   46.8360 C   0  0  0  0  0  0  0  0  0  0  0  0
    8.8850   -0.8130   46.0690 C   0  0  0  0  0  0  0  0  0  0  0  0
    4.4740   -2.3020   46.4870 C   0  0  0  0  0  0  0  0  0  0  0  0
    4.7600   -1.4830   45.4600 C   0  0  0  0  0  0  0  0  0  0  0  0
    5.3970   -1.8590   44.2190 C   0  0  0  0  0  0  0  0  0  0  0  0
    4.9870   -1.5350   42.9820 C   0  0  0  0  0  0  0  0  0  0  0  0
    3.7910   -0.7230   42.5650 C   0  0  0  0  0  0  0  0  0  0  0  0
    2.5790   -1.5920   42.3200 C   0  0  0  0  0  0  0  0  0  0  0  0
    2.2070   -2.5790   43.2450 C   0  0  0  0  0  0  0  0  0  0  0  0
    1.8330   -1.4480   41.1440 C   0  0  0  0  0  0  0  0  0  0  0  0
    1.1010   -3.4170   43.0210 C   0  0  0  0  0  0  0  0  0  0  0  0
    0.7320   -2.2680   40.9050 C   0  0  0  0  0  0  0  0  0  0  0  0
    0.3700   -3.2420   41.8360 C   0  0  0  0  0  0  0  0  0  0  0  0
    0.7270   -4.4550   43.9970 C   0  0  0  0  0  0  0  0  0  0  0  0
    0.3600   -5.7450   43.5780 C   0  0  0  0  0  0  0  0  0  0  0  0
    0.7210   -4.1830   45.3750 C   0  0  0  0  0  0  0  0  0  0  0  0
   -0.0010   -6.7280   44.5040 C   0  0  0  0  0  0  0  0  0  0  0  0
    0.3590   -5.1640   46.3030 C   0  0  0  0  0  0  0  0  0  0  0  0
   -0.0020   -6.4370   45.8660 C   0  0  0  0  0  0  0  0  0  0  0  0
  1  2  1  6
  1 19  1  0
  1  8  1  0
  2  3  1  0
  3  4  1  0
  4  5  1  0
  5  6  2  0
  5  7  1  0
  8  9  2  0
  8 10  1  0
  9 11  1  0
 10 12  2  0
 11 14  1  0
 11 13  2  0
 12 13  1  0
 14 16  1  0
 14 15  2  3
 15 17  1  0
 17 18  2  0
 19 20  2  3
 20 21  1  0
 21 22  2  3
 22 23  1  0
 23 24  1  0
 24 26  1  0
 24 25  2  0
 25 27  1  0
 26 28  2  0
 27 29  2  0
 27 30  1  0
 28 29  1  0
 30 31  2  0
 30 32  1  0
 31 33  1  0
 32 34  2  0
 33 35  2  0
 34 35  1  0
M  END
>  <vina_dock>  (807) 
-8.565

$$$$
O14757_PocketFlow_idx-in-all-generaetd-42
     RDKit          3D

 15 15  0  0  0  0  0  0  0  0999 V2000
    1.7710   -3.7130   44.3280 C   0  0  0  0  0  0  0  0  0  0  0  0
    0.7650   -3.3400   43.5180 C   0  0  0  0  0  0  0  0  0  0  0  0
    3.1540   -4.2170   43.9540 C   0  0  1  0  0  0  0  0  0  0  0  0
    4.1640   -3.0710   44.0110 C   0  0  0  0  0  0  0  0  0  0  0  0
    5.0650   -0.9410   43.2810 C   0  0  0  0  0  0  0  0  0  0  0  0
    4.9900    0.1250   42.4730 F   0  0  0  0  0  0  0  0  0  0  0  0
    6.0990   -1.0240   44.2040 C   0  0  0  0  0  0  0  0  0  0  0  0
    4.1040   -1.9450   43.1760 C   0  0  0  0  0  0  0  0  0  0  0  0
    6.1760   -2.1310   45.0420 C   0  0  0  0  0  0  0  0  0  0  0  0
    5.2170   -3.1450   44.9470 C   0  0  0  0  0  0  0  0  0  0  0  0
    3.4830   -5.4430   44.8190 C   0  0  0  0  0  0  0  0  0  0  0  0
    2.8680   -6.5460   44.3100 F   0  0  0  0  0  0  0  0  0  0  0  0
    0.7740   -3.3550   42.0750 C   0  0  0  0  0  0  0  0  0  0  0  0
    0.8610   -2.2850   41.2690 C   0  0  0  0  0  0  0  0  0  0  0  0
    0.9750   -0.8390   41.6360 C   0  0  0  0  0  0  0  0  0  0  0  0
  1  2  2  3
  1  3  1  0
  2 13  1  0
  3  4  1  0
  3 11  1  1
  4  8  2  0
  4 10  1  0
  5  6  1  0
  5  8  1  0
  5  7  2  0
  7  9  1  0
  9 10  2  0
 11 12  1  0
 13 14  2  3
 14 15  1  0
M  END
>  <vina_dock>  (808) 
-7.14

$$$$
O14757_PocketFlow_idx-in-all-generaetd-349
     RDKit          3D

 16 17  0  0  0  0  0  0  0  0999 V2000
    0.7720   -4.9520   44.5160 C   0  0  0  0  0  0  0  0  0  0  0  0
    0.3690   -6.1010   43.9550 C   0  0  0  0  0  0  0  0  0  0  0  0
    1.3710   -3.8590   43.7280 C   0  0  0  0  0  0  0  0  0  0  0  0
    5.2330   -2.2930   44.5640 C   0  0  0  0  0  0  0  0  0  0  0  0
    4.4680   -1.7450   43.5230 C   0  0  0  0  0  0  0  0  0  0  0  0
    4.7410   -3.3450   45.3220 C   0  0  0  0  0  0  0  0  0  0  0  0
    5.0600   -0.6060   42.7320 C   0  0  0  0  0  0  0  0  0  0  0  0
    3.1750   -2.2670   43.2370 C   0  0  0  0  0  0  0  0  0  0  0  0
    3.4770   -3.8610   45.0510 C   0  0  0  0  0  0  0  0  0  0  0  0
    2.3690   -1.7550   42.1960 C   0  0  0  0  0  0  0  0  0  0  0  0
    2.6650   -3.3420   44.0170 C   0  0  0  0  0  0  0  0  0  0  0  0
    1.1030   -2.2710   41.9230 C   0  0  0  0  0  0  0  0  0  0  0  0
    0.6060   -3.3170   42.6860 C   0  0  0  0  0  0  0  0  0  0  0  0
   -0.2140   -7.1810   44.7180 C   0  0  0  0  0  0  0  0  0  0  0  0
   -1.5070   -7.5230   44.6210 C   0  0  0  0  0  0  0  0  0  0  0  0
   -2.1320   -8.6350   45.3990 C   0  0  0  0  0  0  0  0  0  0  0  0
  1  3  1  0
  1  2  2  3
  2 14  1  0
  3 13  2  0
  3 11  1  0
  4  5  2  0
  4  6  1  0
  5  7  1  0
  5  8  1  0
  6  9  2  0
  8 10  1  0
  8 11  2  0
  9 11  1  0
 10 12  2  0
 12 13  1  0
 14 15  2  3
 15 16  1  0
M  END
>  <vina_dock>  (809) 
-8.543

$$$$
O14757_PocketFlow_idx-in-all-generaetd-248
     RDKit          3D

 19 18  0  0  0  0  0  0  0  0999 V2000
    1.5250   -4.9410   45.2840 C   0  0  1  0  0  0  0  0  0  0  0  0
    0.7450   -6.2320   45.6640 C   0  0  0  0  0  0  0  0  0  0  0  0
   -0.2580   -6.6650   44.6230 C   0  0  0  0  0  0  0  0  0  0  0  0
   -1.2930   -7.4810   44.8750 C   0  0  0  0  0  0  0  0  0  0  0  0
   -2.2930   -7.9050   43.8490 C   0  0  0  0  0  0  0  0  0  0  0  0
    3.0660   -5.2270   45.2810 C   0  0  2  0  0  0  0  0  0  0  0  0
    3.3970   -6.7070   45.5140 C   0  0  0  0  0  0  0  0  0  0  0  0
    3.8800   -4.3490   46.2090 C   0  0  0  0  0  0  0  0  0  0  0  0
    4.5040   -3.1900   45.9350 C   0  0  0  0  0  0  0  0  0  0  0  0
    4.5360   -2.4980   44.6680 C   0  0  0  0  0  0  0  0  0  0  0  0
    5.1260   -1.3030   44.5140 C   0  0  0  0  0  0  0  0  0  0  0  0
    5.1750   -0.5610   43.2170 C   0  0  0  0  0  0  0  0  0  0  0  0
    0.8680   -4.2700   44.0810 C   0  0  0  0  0  0  0  0  0  0  0  0
    1.3530   -3.3520   43.2300 C   0  0  0  0  0  0  0  0  0  0  0  0
    0.5660   -2.7890   42.0700 C   0  0  0  0  0  0  0  0  0  0  0  0
    1.2270   -1.5890   41.4040 C   0  0  0  0  0  0  0  0  0  0  0  0
    1.7520   -1.9060   40.2010 F   0  0  0  0  0  0  0  0  0  0  0  0
    0.3220   -0.6030   41.2050 F   0  0  0  0  0  0  0  0  0  0  0  0
    2.2170   -1.0800   42.1720 F   0  0  0  0  0  0  0  0  0  0  0  0
  1 13  1  0
  1  6  1  0
  1  2  1  6
  2  3  1  0
  3  4  2  3
  4  5  1  0
  6  7  1  1
  6  8  1  0
  8  9  2  3
  9 10  1  0
 10 11  2  3
 11 12  1  0
 13 14  2  3
 14 15  1  0
 15 16  1  0
 16 17  1  0
 16 18  1  0
 16 19  1  0
M  END
>  <vina_dock>  (810) 
-7.35

$$$$
O14757_PocketFlow_idx-in-all-generaetd-504
     RDKit          3D

 16 17  0  0  0  0  0  0  0  0999 V2000
    3.9920   -3.1840   44.3430 C   0  0  0  0  0  0  0  0  0  0  0  0
    3.7200   -2.1870   43.3860 C   0  0  0  0  0  0  0  0  0  0  0  0
    4.6250   -1.1430   43.1620 C   0  0  0  0  0  0  0  0  0  0  0  0
    5.8160   -1.0790   43.8850 C   0  0  0  0  0  0  0  0  0  0  0  0
    6.1100   -2.0590   44.8380 C   0  0  0  0  0  0  0  0  0  0  0  0
    5.2020   -3.1030   45.0620 C   0  0  0  0  0  0  0  0  0  0  0  0
    2.2750   -2.2020   42.4340 Cl  0  0  0  0  0  0  0  0  0  0  0  0
    3.0750   -4.2980   44.6210 C   0  0  0  0  0  0  0  0  0  0  0  0
    3.5160   -5.6290   44.5270 C   0  0  0  0  0  0  0  0  0  0  0  0
    2.6500   -6.6890   44.8030 C   0  0  0  0  0  0  0  0  0  0  0  0
    1.7470   -4.0600   45.0060 C   0  0  0  0  0  0  0  0  0  0  0  0
    1.3330   -6.4350   45.1800 C   0  0  0  0  0  0  0  0  0  0  0  0
    0.8810   -5.1210   45.2820 C   0  0  0  0  0  0  0  0  0  0  0  0
    7.3880   -1.9520   45.5840 C   0  0  0  0  0  0  0  0  0  0  0  0
    8.0130   -2.8810   46.0600 O   0  0  0  0  0  0  0  0  0  0  0  0
    7.8200   -0.6840   45.6990 O   0  0  0  0  0  0  0  0  0  0  0  0
  1  2  2  0
  1  8  1  0
  1  6  1  0
  2  7  1  0
  2  3  1  0
  3  4  2  0
  4  5  1  0
  5  6  2  0
  5 14  1  0
  8  9  2  0
  8 11  1  0
  9 10  1  0
 10 12  2  0
 11 13  2  0
 12 13  1  0
 14 16  1  0
 14 15  2  0
M  END
>  <vina_dock>  (811) 
-7.585

$$$$
O14757_PocketFlow_idx-in-all-generaetd-752
     RDKit          3D

 18 21  0  0  0  0  0  0  0  0999 V2000
    2.2320   -4.7420   44.7750 C   0  0  0  0  0  0  0  0  0  0  0  0
    2.6790   -3.6140   44.0660 C   0  0  0  0  0  0  0  0  0  0  0  0
    1.8690   -2.9440   43.0030 C   0  0  0  0  0  0  0  0  0  0  0  0
    0.5970   -3.3820   42.5950 C   0  0  0  0  0  0  0  0  0  0  0  0
    3.0240   -5.3470   45.7540 C   0  0  0  0  0  0  0  0  0  0  0  0
    4.2840   -4.8350   46.0470 C   0  0  0  0  0  0  0  0  0  0  0  0
    4.7710   -3.7110   45.3690 C   0  0  0  0  0  0  0  0  0  0  0  0
    6.0390   -3.1840   45.6660 C   0  0  0  0  0  0  0  0  0  0  0  0
    6.5300   -2.0570   44.9980 C   0  0  0  0  0  0  0  0  0  0  0  0
    3.9680   -3.0960   44.3770 C   0  0  0  0  0  0  0  0  0  0  0  0
    7.8650   -1.4790   45.3630 C   0  0  0  0  0  0  0  0  0  0  0  0
   -0.1180   -2.7110   41.5970 C   0  0  0  0  0  0  0  0  0  0  0  0
    0.4180   -1.5820   40.9890 C   0  0  0  0  0  0  0  0  0  0  0  0
    1.6770   -1.1250   41.3710 C   0  0  0  0  0  0  0  0  0  0  0  0
    2.4110   -1.8060   42.3520 C   0  0  0  0  0  0  0  0  0  0  0  0
    5.7300   -1.4390   44.0330 C   0  0  0  0  0  0  0  0  0  0  0  0
    4.4740   -1.9630   43.7030 C   0  0  0  0  0  0  0  0  0  0  0  0
    3.6590   -1.2950   42.7660 N   0  0  0  0  0  0  0  0  0  0  0  0
  1  2  2  0
  1  5  1  0
  2  3  1  0
  2 10  1  0
  3 15  2  0
  3  4  1  0
  4 12  2  0
  5  6  2  0
  6  7  1  0
  7 10  2  0
  7  8  1  0
  8  9  2  0
  9 16  1  0
  9 11  1  0
 10 17  1  0
 12 13  1  0
 13 14  2  0
 14 15  1  0
 15 18  1  0
 16 17  2  0
 17 18  1  0
M  END
>  <vina_dock>  (812) 
-9.606

$$$$
O14757_PocketFlow_idx-in-all-generaetd-474
     RDKit          3D

  9  8  0  0  0  0  0  0  0  0999 V2000
    3.2230   -2.8790   43.4670 C   0  0  0  0  0  0  0  0  0  0  0  0
    2.0530   -3.4070   43.8700 C   0  0  0  0  0  0  0  0  0  0  0  0
    4.5320   -2.8550   44.2110 C   0  0  0  0  0  0  0  0  0  0  0  0
    5.2960   -1.5640   44.1220 C   0  0  0  0  0  0  0  0  0  0  0  0
    4.9800   -0.5510   43.3050 C   0  0  0  0  0  0  0  0  0  0  0  0
    0.7960   -3.3800   43.0480 C   0  0  0  0  0  0  0  0  0  0  0  0
    1.0330   -2.7100   41.6930 C   0  0  0  0  0  0  0  0  0  0  0  0
    0.4890   -1.2810   41.6780 C   0  0  0  0  0  0  0  0  0  0  0  0
    1.5970   -0.2660   41.4470 C   0  0  0  0  0  0  0  0  0  0  0  0
  1  2  2  3
  1  3  1  0
  2  6  1  0
  3  4  1  0
  4  5  2  0
  6  7  1  0
  7  8  1  0
  8  9  1  0
M  END
>  <vina_dock>  (813) 
-4.824

$$$$
O14757_PocketFlow_idx-in-all-generaetd-391
     RDKit          3D

 35 37  0  0  0  0  0  0  0  0999 V2000
    4.8950   -1.0850   45.1090 C   0  0  0  0  0  0  0  0  0  0  0  0
    4.5850   -0.3240   43.9390 O   0  0  0  0  0  0  0  0  0  0  0  0
    4.4300   -1.0720   42.7330 C   0  0  0  0  0  0  0  0  0  0  0  0
    3.0010   -1.4570   42.4430 C   0  0  0  0  0  0  0  0  0  0  0  0
    1.1220   -3.0030   42.7240 C   0  0  0  0  0  0  0  0  0  0  0  0
    2.4490   -2.6150   43.0000 C   0  0  0  0  0  0  0  0  0  0  0  0
    0.3290   -2.2310   41.8440 C   0  0  0  0  0  0  0  0  0  0  0  0
    0.8820   -1.0450   41.3380 C   0  0  0  0  0  0  0  0  0  0  0  0
    2.1990   -0.6680   41.6190 C   0  0  0  0  0  0  0  0  0  0  0  0
    0.5810   -4.2240   43.4410 C   0  0  0  0  0  0  0  0  0  0  0  0
    1.2070   -4.3810   44.8330 C   0  0  0  0  0  0  0  0  0  0  0  0
    1.4900   -5.8120   45.1770 C   0  0  0  0  0  0  0  0  0  0  0  0
    0.5400   -6.6440   45.7300 C   0  0  0  0  0  0  0  0  0  0  0  0
    2.7130   -6.4090   44.9550 C   0  0  0  0  0  0  0  0  0  0  0  0
    0.7640   -7.9360   46.0380 N   0  0  0  0  0  0  0  0  0  0  0  0
    2.9850   -7.6950   45.2500 N   0  0  0  0  0  0  0  0  0  0  0  0
    1.9820   -8.4120   45.7620 C   0  0  0  0  0  0  0  0  0  0  0  0
    2.2390   -9.7300   46.0810 N   0  0  0  0  0  0  0  0  0  0  0  0
   -1.0000   -2.6050   41.5950 N   0  0  0  0  0  0  0  0  0  0  0  0
   -1.9850   -1.6060   41.2150 C   0  0  0  0  0  0  0  0  0  0  0  0
    5.9830   -2.1330   44.8760 C   0  0  0  0  0  0  0  0  0  0  0  0
    5.4490   -3.5490   45.1060 C   0  0  0  0  0  0  0  0  0  0  0  0
    4.5340   -3.6050   46.3290 C   0  0  0  0  0  0  0  0  0  0  0  0
    5.2690   -3.8080   47.6610 C   0  0  0  0  0  0  0  0  0  0  0  0
    6.3000   -4.9540   47.7510 C   0  0  2  0  0  0  0  0  0  0  0  0
    5.6670   -6.1820   48.3850 C   0  0  0  0  0  0  0  0  0  0  0  0
    5.7540   -6.5470   49.5450 O   0  0  0  0  0  0  0  0  0  0  0  0
    4.9650   -6.9150   47.4960 O   0  0  0  0  0  0  0  0  0  0  0  0
    7.6350   -4.5830   48.4480 C   0  0  1  0  0  0  0  0  0  0  0  0
    8.7830   -5.5310   48.0640 C   0  0  0  0  0  0  0  0  0  0  0  0
    8.2240   -3.2310   48.0200 C   0  0  0  0  0  0  0  0  0  0  0  0
    9.3900   -4.9610   46.7810 C   0  0  0  0  0  0  0  0  0  0  0  0
    8.8900   -3.5130   46.6700 C   0  0  2  0  0  0  0  0  0  0  0  0
   10.0090   -2.5330   46.3110 C   0  0  0  0  0  0  0  0  0  0  0  0
    9.5860   -1.0790   46.4570 C   0  0  0  0  0  0  0  0  0  0  0  0
  1  2  1  0
  1 21  1  0
  2  3  1  0
  3  4  1  0
  4  9  1  0
  4  6  2  0
  5  7  2  0
  5  6  1  0
  5 10  1  0
  7  8  1  0
  7 19  1  0
  8  9  2  0
 10 11  1  0
 11 12  1  0
 12 14  1  0
 12 13  2  0
 13 15  1  0
 14 16  2  0
 15 17  2  0
 16 17  1  0
 17 18  1  0
 19 20  1  0
 21 22  1  0
 22 23  1  0
 23 24  1  0
 25 24  1  1
 25 26  1  0
 25 29  1  0
 26 28  1  0
 26 27  2  0
 29 31  1  6
 29 30  1  0
 30 32  1  0
 31 33  1  0
 32 33  1  0
 33 34  1  1
 34 35  1  0
M  END
>  <vina_dock>  (814) 
-7.443

$$$$
O14757_PocketFlow_idx-in-all-generaetd-159
     RDKit          3D

 35 38  0  0  0  0  0  0  0  0999 V2000
    3.3620   -6.2440   45.1480 C   0  0  0  0  0  0  0  0  0  0  0  0
    3.2800   -5.0790   45.9810 O   0  0  0  0  0  0  0  0  0  0  0  0
    4.5300   -4.5680   46.2350 C   0  0  0  0  0  0  0  0  0  0  0  0
    8.8180   -1.8390   46.4550 C   0  0  0  0  0  0  0  0  0  0  0  0
    8.0700   -1.2680   45.4270 C   0  0  0  0  0  0  0  0  0  0  0  0
    8.3060   -2.9440   47.1440 C   0  0  0  0  0  0  0  0  0  0  0  0
    6.8110   -1.7890   45.1080 C   0  0  0  0  0  0  0  0  0  0  0  0
    7.0440   -3.4740   46.8320 C   0  0  0  0  0  0  0  0  0  0  0  0
    6.2630   -2.8990   45.7940 C   0  0  0  0  0  0  0  0  0  0  0  0
    6.5550   -4.5700   47.5520 C   0  0  0  0  0  0  0  0  0  0  0  0
    4.9830   -3.4570   45.4920 C   0  0  0  0  0  0  0  0  0  0  0  0
    5.3080   -5.1020   47.2590 C   0  0  0  0  0  0  0  0  0  0  0  0
    4.8610   -6.1410   47.9780 F   0  0  0  0  0  0  0  0  0  0  0  0
   10.1660   -1.3310   46.8340 C   0  0  0  0  0  0  0  0  0  0  0  0
   10.3980   -1.1530   48.1840 N   0  0  0  0  0  0  0  0  0  0  0  0
   11.0080   -1.1240   45.9690 O   0  0  0  0  0  0  0  0  0  0  0  0
   11.7100   -0.7800   48.6540 C   0  0  0  0  0  0  0  0  0  0  0  0
    4.1370   -2.9170   44.4100 C   0  0  0  0  0  0  0  0  0  0  0  0
    2.8330   -3.4040   44.2100 C   0  0  0  0  0  0  0  0  0  0  0  0
    4.6110   -1.8960   43.5710 C   0  0  0  0  0  0  0  0  0  0  0  0
    2.0270   -2.8860   43.1940 C   0  0  0  0  0  0  0  0  0  0  0  0
    3.8040   -1.3760   42.5550 C   0  0  0  0  0  0  0  0  0  0  0  0
    2.5160   -1.8730   42.3720 C   0  0  0  0  0  0  0  0  0  0  0  0
    1.5230   -1.2330   41.1210 Cl  0  0  0  0  0  0  0  0  0  0  0  0
    2.6860   -7.3960   45.8900 C   0  0  0  0  0  0  0  0  0  0  0  0
    1.2410   -7.5550   45.4920 C   0  0  0  0  0  0  0  0  0  0  0  0
    0.4250   -8.4940   46.1380 C   0  0  0  0  0  0  0  0  0  0  0  0
    0.7030   -6.7850   44.4550 C   0  0  0  0  0  0  0  0  0  0  0  0
   -0.9220   -8.6750   45.7660 C   0  0  0  0  0  0  0  0  0  0  0  0
   -0.6310   -6.9460   44.0810 C   0  0  0  0  0  0  0  0  0  0  0  0
   -1.4410   -7.8810   44.7320 C   0  0  0  0  0  0  0  0  0  0  0  0
   -3.0850   -8.0080   44.2140 Cl  0  0  0  0  0  0  0  0  0  0  0  0
   -1.7540   -9.6920   46.5170 C   0  0  0  0  0  0  0  0  0  0  0  0
   -2.1220   -9.3440   47.9360 C   0  0  0  0  0  0  0  0  0  0  0  0
   -3.1760   -8.6350   48.3670 C   0  0  0  0  0  0  0  0  0  0  0  0
  1 25  1  0
  1  2  1  0
  2  3  1  0
  3 11  2  0
  3 12  1  0
  4  5  2  0
  4 14  1  0
  4  6  1  0
  5  7  1  0
  6  8  2  0
  7  9  2  0
  8  9  1  0
  8 10  1  0
  9 11  1  0
 10 12  2  0
 11 18  1  0
 12 13  1  0
 14 16  2  0
 14 15  1  0
 15 17  1  0
 18 20  1  0
 18 19  2  0
 19 21  1  0
 20 22  2  0
 21 23  2  0
 22 23  1  0
 23 24  1  0
 25 26  1  0
 26 28  1  0
 26 27  2  0
 27 29  1  0
 28 30  2  0
 29 31  2  0
 29 33  1  0
 30 31  1  0
 31 32  1  0
 33 34  1  0
 34 35  2  0
M  END
>  <vina_dock>  (815) 
-10.141

$$$$
O14757_PocketFlow_idx-in-all-generaetd-300
     RDKit          3D

 27 29  0  0  0  0  0  0  0  0999 V2000
    8.0140   -2.0930   46.1090 C   0  0  1  0  0  0  0  0  0  0  0  0
    8.7790   -1.2250   45.3910 F   0  0  0  0  0  0  0  0  0  0  0  0
    6.6430   -2.2790   45.4910 C   0  0  0  0  0  0  0  0  0  0  0  0
    1.7940   -6.1960   45.3460 C   0  0  0  0  0  0  0  0  0  0  0  0
    2.5680   -4.9500   45.0140 C   0  0  0  0  0  0  0  0  0  0  0  0
    0.2880   -6.0070   45.1170 C   0  0  2  0  0  0  0  0  0  0  0  0
    2.0910   -4.0580   44.0540 C   0  0  0  0  0  0  0  0  0  0  0  0
    3.8110   -4.6990   45.5920 C   0  0  0  0  0  0  0  0  0  0  0  0
    0.0050   -5.3110   43.9000 N   0  0  0  0  0  0  0  0  0  0  0  0
    0.7760   -4.2960   43.3990 C   0  0  0  0  0  0  0  0  0  0  0  0
    2.8410   -2.9270   43.7010 C   0  0  0  0  0  0  0  0  0  0  0  0
    4.2830   -5.5790   46.4930 F   0  0  0  0  0  0  0  0  0  0  0  0
    4.5820   -3.5740   45.2580 C   0  0  0  0  0  0  0  0  0  0  0  0
    0.3910   -3.6030   42.4620 O   0  0  0  0  0  0  0  0  0  0  0  0
    4.0910   -2.6500   44.3020 C   0  0  0  0  0  0  0  0  0  0  0  0
    5.8400   -3.3670   45.8470 C   0  0  0  0  0  0  0  0  0  0  0  0
    4.8730   -1.5040   43.9910 C   0  0  0  0  0  0  0  0  0  0  0  0
    6.1540   -1.3710   44.5480 C   0  0  0  0  0  0  0  0  0  0  0  0
   -0.3840   -5.2360   46.1420 N   0  0  0  0  0  0  0  0  0  0  0  0
    4.4970   -0.5920   42.9850 N   0  0  0  0  0  0  0  0  0  0  0  0
    8.7170   -3.3720   46.1870 N   0  0  0  0  0  0  0  0  0  0  0  0
    8.9140   -3.8960   47.3520 C   0  0  0  0  0  0  0  0  0  0  0  0
    8.5000   -3.4050   48.7290 C   0  0  2  0  0  0  0  0  0  0  0  0
    9.5370   -3.3410   49.6110 F   0  0  0  0  0  0  0  0  0  0  0  0
    7.3690   -4.2550   49.2370 C   0  0  0  0  0  0  0  0  0  0  0  0
    7.0070   -5.4420   48.7250 C   0  0  0  0  0  0  0  0  0  0  0  0
    5.8680   -6.2650   49.2330 C   0  0  0  0  0  0  0  0  0  0  0  0
  1  2  1  6
  1  3  1  0
  1 21  1  0
  3 18  2  0
  3 16  1  0
  4  5  1  0
  4  6  1  0
  5  7  1  0
  5  8  2  0
  6  9  1  0
  6 19  1  1
  7 10  1  0
  7 11  2  0
  8 13  1  0
  8 12  1  0
  9 10  1  0
 10 14  2  0
 11 15  1  0
 13 15  1  0
 13 16  2  0
 15 17  2  0
 17 20  1  0
 17 18  1  0
 21 22  2  3
 22 23  1  0
 23 25  1  0
 23 24  1  1
 25 26  2  3
 26 27  1  0
M  END
>  <vina_dock>  (816) 
-8.982

$$$$
O14757_PocketFlow_idx-in-all-generaetd-172
     RDKit          3D

 21 21  0  0  0  0  0  0  0  0999 V2000
    0.8490   -5.7930   45.2550 C   0  0  0  0  0  0  0  0  0  0  0  0
    0.2030   -6.7670   44.5950 C   0  0  0  0  0  0  0  0  0  0  0  0
    2.1000   -5.1490   44.8500 C   0  0  0  0  0  0  0  0  0  0  0  0
    2.1130   -3.8080   44.6990 C   0  0  0  0  0  0  0  0  0  0  0  0
    3.3090   -6.0250   44.6290 C   0  0  0  0  0  0  0  0  0  0  0  0
    3.2730   -3.0110   44.2960 C   0  0  0  0  0  0  0  0  0  0  0  0
    5.5400   -2.2550   44.6970 C   0  0  0  0  0  0  0  0  0  0  0  0
    5.4940   -1.4890   43.5270 C   0  0  0  0  0  0  0  0  0  0  0  0
    4.4320   -3.0190   45.0800 C   0  0  0  0  0  0  0  0  0  0  0  0
    4.3380   -1.4820   42.7440 C   0  0  0  0  0  0  0  0  0  0  0  0
    3.2310   -2.2400   43.1290 C   0  0  0  0  0  0  0  0  0  0  0  0
    6.7700   -2.2820   45.5310 C   0  0  0  0  0  0  0  0  0  0  0  0
    7.4840   -1.2260   45.7600 N   0  0  0  0  0  0  0  0  0  0  0  0
    7.1960   -3.4490   46.0880 N   0  0  0  0  0  0  0  0  0  0  0  0
   -1.0350   -7.3480   45.0740 C   0  0  0  0  0  0  0  0  0  0  0  0
   -1.9620   -7.8610   44.2510 C   0  0  0  0  0  0  0  0  0  0  0  0
   -3.2810   -8.4870   44.6350 C   0  0  0  0  0  0  0  0  0  0  0  0
   -3.2770   -9.8850   45.2780 C   0  0  0  0  0  0  0  0  0  0  0  0
   -2.8600  -10.0170   46.7230 C   0  0  0  0  0  0  0  0  0  0  0  0
   -3.0900   -9.1530   47.7230 C   0  0  0  0  0  0  0  0  0  0  0  0
   -2.6360   -9.3700   49.1320 C   0  0  0  0  0  0  0  0  0  0  0  0
  1  2  2  3
  1  3  1  0
  2 15  1  0
  3  5  1  0
  3  4  2  3
  4  6  1  0
  6 11  2  0
  6  9  1  0
  7  8  1  0
  7  9  2  0
  7 12  1  0
  8 10  2  0
 10 11  1  0
 12 13  2  3
 12 14  1  0
 15 16  2  3
 16 17  1  0
 17 18  1  0
 18 19  1  0
 19 20  2  3
 20 21  1  0
M  END
>  <vina_dock>  (817) 
-7.56

$$$$
O14757_PocketFlow_idx-in-all-generaetd-586
     RDKit          3D

 26 28  0  0  0  0  0  0  0  0999 V2000
    0.9150   -5.7510   44.3360 C   0  0  0  0  0  0  0  0  0  0  0  0
    0.5670   -4.6870   43.4940 C   0  0  0  0  0  0  0  0  0  0  0  0
    2.1820   -5.7600   44.9190 C   0  0  0  0  0  0  0  0  0  0  0  0
    1.4670   -3.6400   43.2210 C   0  0  0  0  0  0  0  0  0  0  0  0
    1.0920   -2.5840   42.3720 C   0  0  0  0  0  0  0  0  0  0  0  0
    1.9750   -1.5530   42.0520 C   0  0  0  0  0  0  0  0  0  0  0  0
    3.2190   -1.5230   42.6780 C   0  0  0  0  0  0  0  0  0  0  0  0
    3.6280   -2.5600   43.5350 C   0  0  0  0  0  0  0  0  0  0  0  0
    2.7530   -3.6450   43.8100 C   0  0  0  0  0  0  0  0  0  0  0  0
    3.0830   -4.7230   44.6620 C   0  0  0  0  0  0  0  0  0  0  0  0
   -0.0590   -6.8670   44.6210 C   0  0  0  0  0  0  0  0  0  0  0  0
   -0.9300   -6.8110   46.1840 P   0  0  0  0  0  0  0  0  0  0  0  0
   -0.3700   -7.6120   47.3120 O   0  0  0  0  0  0  0  0  0  0  0  0
   -1.1120   -5.2610   46.5440 O   0  0  0  0  0  0  0  0  0  0  0  0
   -2.4540   -7.1830   45.8410 O   0  0  0  0  0  0  0  0  0  0  0  0
    1.5380   -0.4580   41.2950 N   0  0  0  0  0  0  0  0  0  0  0  0
    4.9790   -2.4880   44.1180 C   0  0  0  0  0  0  0  0  0  0  0  0
    5.1970   -2.0350   45.3640 C   0  0  0  0  0  0  0  0  0  0  0  0
    6.5280   -1.9390   46.0820 C   0  0  2  0  0  0  0  0  0  0  0  0
    7.7330   -1.5810   45.2020 C   0  0  0  0  0  0  0  0  0  0  0  0
    6.8210   -3.2060   46.8750 C   0  0  0  0  0  0  0  0  0  0  0  0
    5.7800   -3.8890   47.5220 C   0  0  0  0  0  0  0  0  0  0  0  0
    8.1270   -3.7120   46.9840 C   0  0  0  0  0  0  0  0  0  0  0  0
    6.0380   -5.0480   48.2570 C   0  0  0  0  0  0  0  0  0  0  0  0
    8.3830   -4.8720   47.7190 C   0  0  0  0  0  0  0  0  0  0  0  0
    7.3380   -5.5390   48.3560 C   0  0  0  0  0  0  0  0  0  0  0  0
  1  2  2  0
  1 11  1  0
  1  3  1  0
  2  4  1  0
  3 10  2  0
  4  5  2  0
  4  9  1  0
  5  6  1  0
  6 16  1  0
  6  7  2  0
  7  8  1  0
  8  9  2  0
  8 17  1  0
  9 10  1  0
 11 12  1  0
 12 15  1  0
 12 14  1  0
 12 13  2  0
 17 18  2  3
 18 19  1  0
 19 20  1  6
 19 21  1  0
 21 23  1  0
 21 22  2  0
 22 24  1  0
 23 25  2  0
 24 26  2  0
 25 26  1  0
M  END
>  <vina_dock>  (818) 
-8.784

$$$$
O14757_PocketFlow_idx-in-all-generaetd-410
     RDKit          3D

 22 23  0  0  0  0  0  0  0  0999 V2000
    4.4420   -2.7820   43.4920 C   0  0  0  0  0  0  0  0  0  0  0  0
    5.1410   -1.7520   44.3700 C   0  0  0  0  0  0  0  0  0  0  0  0
    4.8690   -0.5540   44.3220 O   0  0  0  0  0  0  0  0  0  0  0  0
    6.2140   -2.1970   45.2840 C   0  0  0  0  0  0  0  0  0  0  0  0
    7.4120   -1.5190   45.3390 C   0  0  0  0  0  0  0  0  0  0  0  0
    6.1350   -3.2890   46.1150 C   0  0  0  0  0  0  0  0  0  0  0  0
    8.4420   -1.8790   46.1390 N   0  0  0  0  0  0  0  0  0  0  0  0
    7.1370   -3.6870   46.9320 N   0  0  0  0  0  0  0  0  0  0  0  0
    8.2620   -2.9640   46.8970 C   0  0  0  0  0  0  0  0  0  0  0  0
    9.2910   -3.3410   47.7290 N   0  0  0  0  0  0  0  0  0  0  0  0
    3.0840   -3.2590   44.0340 C   0  0  1  0  0  0  0  0  0  0  0  0
    1.9670   -2.9610   43.0410 C   0  0  0  0  0  0  0  0  0  0  0  0
    3.0640   -4.7440   44.4130 C   0  0  0  0  0  0  0  0  0  0  0  0
    0.7630   -3.8790   43.0590 C   0  0  0  0  0  0  0  0  0  0  0  0
    2.0450   -2.0190   42.2500 O   0  0  0  0  0  0  0  0  0  0  0  0
    1.7280   -5.1670   45.0570 C   0  0  1  0  0  0  0  0  0  0  0  0
    0.5190   -4.4250   44.4630 C   0  0  1  0  0  0  0  0  0  0  0  0
    1.5330   -6.6690   44.9190 C   0  0  0  0  0  0  0  0  0  0  0  0
    1.0910   -7.2200   46.0660 F   0  0  0  0  0  0  0  0  0  0  0  0
    0.6480   -6.9570   43.9420 F   0  0  0  0  0  0  0  0  0  0  0  0
    2.7020   -7.2710   44.5980 F   0  0  0  0  0  0  0  0  0  0  0  0
    0.2110   -3.3110   45.3110 O   0  0  0  0  0  0  0  0  0  0  0  0
 11  1  1  6
  1  2  1  0
  2  3  2  0
  2  4  1  0
  4  5  2  0
  4  6  1  0
  5  7  1  0
  6  8  2  0
  7  9  2  0
  8  9  1  0
  9 10  1  0
 11 12  1  0
 11 13  1  0
 12 15  2  0
 12 14  1  0
 13 16  1  0
 14 17  1  0
 16 17  1  0
 16 18  1  6
 17 22  1  1
 18 20  1  0
 18 21  1  0
 18 19  1  0
M  END
>  <vina_dock>  (819) 
-7.306

$$$$
O14757_PocketFlow_idx-in-all-generaetd-460
     RDKit          3D

 18 19  0  0  0  0  0  0  0  0999 V2000
    4.3610   -1.2670   42.6310 C   0  0  0  0  0  0  0  0  0  0  0  0
    2.9890   -1.8970   42.6010 C   0  0  0  0  0  0  0  0  0  0  0  0
    1.3840   -3.5140   43.4630 C   0  0  0  0  0  0  0  0  0  0  0  0
    2.6550   -2.9350   43.4900 C   0  0  0  0  0  0  0  0  0  0  0  0
    0.4440   -3.0580   42.5370 C   0  0  0  0  0  0  0  0  0  0  0  0
    0.7660   -2.0370   41.6420 C   0  0  0  0  0  0  0  0  0  0  0  0
    2.0350   -1.4630   41.6730 C   0  0  0  0  0  0  0  0  0  0  0  0
    0.9400   -4.5210   44.2770 O   0  0  0  0  0  0  0  0  0  0  0  0
    1.4110   -4.5190   45.6170 C   0  0  0  0  0  0  0  0  0  0  0  0
    4.8680   -0.9140   44.0360 C   0  0  0  0  0  0  0  0  0  0  0  0
    6.2380   -1.5050   44.3970 C   0  0  0  0  0  0  0  0  0  0  0  0
    6.2240   -2.4320   45.5890 C   0  0  0  0  0  0  0  0  0  0  0  0
    7.4230   -2.9360   46.1200 C   0  0  0  0  0  0  0  0  0  0  0  0
    5.0070   -2.8150   46.1720 C   0  0  0  0  0  0  0  0  0  0  0  0
    7.4020   -3.7920   47.2200 C   0  0  0  0  0  0  0  0  0  0  0  0
    4.9880   -3.6720   47.2730 C   0  0  0  0  0  0  0  0  0  0  0  0
    6.1860   -4.1510   47.7870 C   0  0  0  0  0  0  0  0  0  0  0  0
    6.1680   -4.9730   48.8450 F   0  0  0  0  0  0  0  0  0  0  0  0
  1  2  1  0
  1 10  1  0
  2  7  1  0
  2  4  2  0
  3  5  2  0
  3  4  1  0
  3  8  1  0
  5  6  1  0
  6  7  2  0
  8  9  1  0
 10 11  1  0
 11 12  1  0
 12 13  2  0
 12 14  1  0
 13 15  1  0
 14 16  2  0
 15 17  2  0
 16 17  1  0
 17 18  1  0
M  END
>  <vina_dock>  (820) 
-7.257

$$$$
O14757_PocketFlow_idx-in-all-generaetd-558
     RDKit          3D

 35 37  0  0  0  0  0  0  0  0999 V2000
    4.6020   -4.4170   45.5300 C   0  0  0  0  0  0  0  0  0  0  0  0
    4.7350   -3.1400   44.7300 C   0  0  0  0  0  0  0  0  0  0  0  0
    3.7670   -1.5830   43.1050 C   0  0  0  0  0  0  0  0  0  0  0  0
    4.8940   -0.7620   43.2370 C   0  0  0  0  0  0  0  0  0  0  0  0
    3.6990   -2.7710   43.8460 C   0  0  0  0  0  0  0  0  0  0  0  0
    5.9290   -1.1170   44.1030 C   0  0  0  0  0  0  0  0  0  0  0  0
    5.8520   -2.2960   44.8490 C   0  0  0  0  0  0  0  0  0  0  0  0
    7.1680   -2.6610   45.9050 Cl  0  0  0  0  0  0  0  0  0  0  0  0
    2.6850   -1.1540   42.1640 C   0  0  0  0  0  0  0  0  0  0  0  0
    2.5060    0.0510   41.9910 O   0  0  0  0  0  0  0  0  0  0  0  0
    1.8840   -2.2270   41.4350 C   0  0  0  0  0  0  0  0  0  0  0  0
    0.4120   -1.9600   41.5360 C   0  0  0  0  0  0  0  0  0  0  0  0
   -0.5320   -2.8710   41.2570 C   0  0  0  0  0  0  0  0  0  0  0  0
   -0.1520   -4.1160   40.9010 F   0  0  0  0  0  0  0  0  0  0  0  0
    0.0690   -0.7010   42.0090 O   0  0  0  0  0  0  0  0  0  0  0  0
   -1.8850   -2.6170   41.2940 N   0  0  0  0  0  0  0  0  0  0  0  0
    3.2360   -4.9330   45.5850 N   0  0  0  0  0  0  0  0  0  0  0  0
    2.9420   -6.0380   44.7830 C   0  0  0  0  0  0  0  0  0  0  0  0
    2.2000   -4.0570   46.1260 C   0  0  0  0  0  0  0  0  0  0  0  0
    3.7060   -6.4710   43.9240 O   0  0  0  0  0  0  0  0  0  0  0  0
    1.6560   -6.7460   44.9870 C   0  0  0  0  0  0  0  0  0  0  0  0
    1.5680   -7.8330   45.8690 C   0  0  0  0  0  0  0  0  0  0  0  0
    0.5360   -6.3440   44.2520 C   0  0  0  0  0  0  0  0  0  0  0  0
    0.3500   -8.4920   46.0390 C   0  0  0  0  0  0  0  0  0  0  0  0
   -0.6820   -7.0030   44.4270 C   0  0  0  0  0  0  0  0  0  0  0  0
   -0.7700   -8.0830   45.3070 C   0  0  0  0  0  0  0  0  0  0  0  0
   -2.0110   -8.6620   45.4590 O   0  0  0  0  0  0  0  0  0  0  0  0
   -2.2720   -9.2930   46.6530 C   0  0  0  0  0  0  0  0  0  0  0  0
   -1.2550   -9.2830   47.6120 C   0  0  0  0  0  0  0  0  0  0  0  0
   -3.5110   -9.8660   46.9430 C   0  0  0  0  0  0  0  0  0  0  0  0
   -1.4590   -9.8740   48.8660 C   0  0  0  0  0  0  0  0  0  0  0  0
   -3.7180  -10.4700   48.1820 C   0  0  0  0  0  0  0  0  0  0  0  0
   -2.6940  -10.4820   49.1320 C   0  0  0  0  0  0  0  0  0  0  0  0
   -0.4070   -9.9250   49.8910 C   0  0  0  0  0  0  0  0  0  0  0  0
    0.8080   -9.3790   49.7580 C   0  0  0  0  0  0  0  0  0  0  0  0
  1  2  1  0
  1 17  1  0
  2  5  2  0
  2  7  1  0
  3  9  1  0
  3  4  2  0
  3  5  1  0
  4  6  1  0
  6  7  2  0
  7  8  1  0
  9 11  1  0
  9 10  2  0
 11 12  1  0
 12 13  2  3
 12 15  1  0
 13 14  1  0
 13 16  1  0
 17 18  1  0
 17 19  1  0
 18 20  2  0
 18 21  1  0
 21 23  1  0
 21 22  2  0
 22 24  1  0
 23 25  2  0
 24 26  2  0
 25 26  1  0
 26 27  1  0
 27 28  1  0
 28 30  1  0
 28 29  2  0
 29 31  1  0
 30 32  2  0
 31 33  2  0
 31 34  1  0
 32 33  1  0
 34 35  2  0
M  END
>  <vina_dock>  (821) 
-9.091

$$$$
O14757_PocketFlow_idx-in-all-generaetd-905
     RDKit          3D

 16 17  0  0  0  0  0  0  0  0999 V2000
    5.8480   -2.6720   45.1140 C   0  0  0  0  0  0  0  0  0  0  0  0
    4.6250   -3.2770   44.8050 C   0  0  0  0  0  0  0  0  0  0  0  0
    6.2090   -1.4910   44.4630 C   0  0  0  0  0  0  0  0  0  0  0  0
    3.7680   -2.7010   43.8500 C   0  0  0  0  0  0  0  0  0  0  0  0
    4.1340   -1.5080   43.1900 C   0  0  0  0  0  0  0  0  0  0  0  0
    5.3510   -0.9250   43.5130 C   0  0  0  0  0  0  0  0  0  0  0  0
    2.5370   -3.2840   43.5200 C   0  0  0  0  0  0  0  0  0  0  0  0
    1.7060   -2.6790   42.5740 C   0  0  0  0  0  0  0  0  0  0  0  0
    2.1750   -1.5200   41.9760 C   0  0  0  0  0  0  0  0  0  0  0  0
    3.3520   -0.9260   42.2680 N   0  0  0  0  0  0  0  0  0  0  0  0
    1.4190   -0.9250   41.0390 F   0  0  0  0  0  0  0  0  0  0  0  0
    6.7820   -3.2420   46.1150 C   0  0  0  0  0  0  0  0  0  0  0  0
    7.8940   -2.8200   46.3700 O   0  0  0  0  0  0  0  0  0  0  0  0
    6.2760   -4.3140   46.7470 O   0  0  0  0  0  0  0  0  0  0  0  0
    0.4000   -3.2760   42.1550 C   0  0  0  0  0  0  0  0  0  0  0  0
    0.0380   -4.3550   43.0120 O   0  0  0  0  0  0  0  0  0  0  0  0
  1  3  2  0
  1  2  1  0
  1 12  1  0
  2  4  2  0
  3  6  1  0
  4  5  1  0
  4  7  1  0
  5 10  1  0
  5  6  2  0
  7  8  2  0
  8  9  1  0
  8 15  1  0
  9 11  1  0
  9 10  2  0
 12 13  2  0
 12 14  1  0
 15 16  1  0
M  END
>  <vina_dock>  (822) 
-7.459

$$$$
O14757_PocketFlow_idx-in-all-generaetd-423
     RDKit          3D

 35 38  0  0  0  0  0  0  0  0999 V2000
    5.5120   -2.0140   44.5560 C   0  0  0  0  0  0  0  0  0  0  0  0
    5.6190   -0.8780   43.7380 C   0  0  0  0  0  0  0  0  0  0  0  0
    4.6120   -0.5520   42.8280 C   0  0  0  0  0  0  0  0  0  0  0  0
    3.4790   -1.3570   42.7260 C   0  0  0  0  0  0  0  0  0  0  0  0
    4.3660   -2.8190   44.4400 C   0  0  0  0  0  0  0  0  0  0  0  0
    3.3440   -2.4860   43.5390 C   0  0  0  0  0  0  0  0  0  0  0  0
    6.5740   -2.3530   45.5120 C   0  0  0  0  0  0  0  0  0  0  0  0
    8.7990   -1.9370   46.4490 C   0  0  0  0  0  0  0  0  0  0  0  0
    7.7780   -1.6270   45.5390 C   0  0  0  0  0  0  0  0  0  0  0  0
    8.6150   -3.0110   47.3290 C   0  0  0  0  0  0  0  0  0  0  0  0
    7.4260   -3.7400   47.3190 C   0  0  0  0  0  0  0  0  0  0  0  0
    6.4130   -3.4120   46.4170 C   0  0  0  0  0  0  0  0  0  0  0  0
   10.0780   -1.2130   46.4710 C   0  0  0  0  0  0  0  0  0  0  0  0
   11.2570   -1.7840   46.7710 C   0  0  0  0  0  0  0  0  0  0  0  0
   12.6100   -1.1120   46.8110 C   0  0  2  0  0  0  0  0  0  0  0  0
   12.6150    0.4120   46.8990 C   0  0  0  0  0  0  0  0  0  0  0  0
   13.3600   -1.5430   45.5630 C   0  0  0  0  0  0  0  0  0  0  0  0
   12.8650   -1.5350   44.4390 O   0  0  0  0  0  0  0  0  0  0  0  0
    2.0940   -3.2900   43.4270 C   0  0  0  0  0  0  0  0  0  0  0  0
    1.1100   -2.8300   42.8590 O   0  0  0  0  0  0  0  0  0  0  0  0
    2.0980   -4.5180   44.0560 N   0  0  0  0  0  0  0  0  0  0  0  0
    0.8600   -5.2470   44.2710 C   0  0  0  0  0  0  0  0  0  0  0  0
    1.0970   -6.6740   44.7830 C   0  0  0  0  0  0  0  0  0  0  0  0
   -0.1920   -7.3730   45.1580 C   0  0  0  0  0  0  0  0  0  0  0  0
   -1.2410   -7.4780   44.2400 C   0  0  0  0  0  0  0  0  0  0  0  0
   -0.3270   -7.9700   46.4240 C   0  0  0  0  0  0  0  0  0  0  0  0
   -2.4030   -8.1660   44.5820 C   0  0  0  0  0  0  0  0  0  0  0  0
   -1.4870   -8.6780   46.7850 C   0  0  0  0  0  0  0  0  0  0  0  0
   -2.5240   -8.7610   45.8400 C   0  0  0  0  0  0  0  0  0  0  0  0
   -1.6090   -9.3160   48.1040 C   0  0  0  0  0  0  0  0  0  0  0  0
   -0.5000   -9.8480   48.7740 C   0  0  0  0  0  0  0  0  0  0  0  0
   -2.8340   -9.4250   48.7650 C   0  0  0  0  0  0  0  0  0  0  0  0
   -0.6480  -10.4430   50.0250 C   0  0  0  0  0  0  0  0  0  0  0  0
   -3.0130   -9.9940   49.9830 N   0  0  0  0  0  0  0  0  0  0  0  0
   -1.9130  -10.4910   50.5830 C   0  0  0  0  0  0  0  0  0  0  0  0
  1  2  2  0
  1  5  1  0
  1  7  1  0
  2  3  1  0
  3  4  2  0
  4  6  1  0
  5  6  2  0
  6 19  1  0
  7  9  1  0
  7 12  2  0
  8  9  2  0
  8 13  1  0
  8 10  1  0
 10 11  2  0
 11 12  1  0
 13 14  2  3
 14 15  1  0
 15 17  1  0
 15 16  1  6
 17 18  2  0
 19 20  2  0
 19 21  1  0
 21 22  1  0
 22 23  1  0
 23 24  1  0
 24 25  2  0
 24 26  1  0
 25 27  1  0
 26 28  2  0
 27 29  2  0
 28 29  1  0
 28 30  1  0
 30 32  1  0
 30 31  2  0
 31 33  1  0
 32 34  2  0
 33 35  2  0
 34 35  1  0
M  END
>  <vina_dock>  (823) 
-9.869

$$$$
O14757_PocketFlow_idx-in-all-generaetd-279
     RDKit          3D

 11 10  0  0  0  0  0  0  0  0999 V2000
    3.4830   -4.2990   44.2500 C   0  0  0  0  0  0  0  0  0  0  0  0
    3.8230   -2.8320   43.9790 C   0  0  0  0  0  0  0  0  0  0  0  0
    5.2040   -2.4240   44.5040 C   0  0  0  0  0  0  0  0  0  0  0  0
    5.6820   -1.0740   43.9680 C   0  0  0  0  0  0  0  0  0  0  0  0
    4.6920   -0.4920   42.9700 C   0  0  0  0  0  0  0  0  0  0  0  0
    1.9760   -4.5730   44.2940 C   0  0  0  0  0  0  0  0  0  0  0  0
    1.1280   -3.3540   43.9230 C   0  0  0  0  0  0  0  0  0  0  0  0
    0.4180   -3.5660   42.6150 C   0  0  0  0  0  0  0  0  0  0  0  0
    0.6330   -2.9200   41.4570 C   0  0  0  0  0  0  0  0  0  0  0  0
    1.6710   -1.8700   41.1800 C   0  0  0  0  0  0  0  0  0  0  0  0
    1.1480   -0.4780   41.4970 C   0  0  0  0  0  0  0  0  0  0  0  0
  1  2  1  0
  1  6  1  0
  2  3  1  0
  3  4  1  0
  4  5  1  0
  6  7  1  0
  7  8  1  0
  8  9  2  3
  9 10  1  0
 10 11  1  0
M  END
>  <vina_dock>  (824) 
-5.172

$$$$
O14757_PocketFlow_idx-in-all-generaetd-876
     RDKit          3D

 30 32  0  0  0  0  0  0  0  0999 V2000
    2.1750   -6.2670   44.9610 C   0  0  2  0  0  0  0  0  0  0  0  0
    3.4150   -6.8130   45.6800 C   0  0  0  0  0  0  0  0  0  0  0  0
    1.8400   -4.8260   45.3970 C   0  0  0  0  0  0  0  0  0  0  0  0
    2.5920   -3.7600   44.6180 C   0  0  0  0  0  0  0  0  0  0  0  0
    2.3090   -1.4820   41.6660 C   0  0  0  0  0  0  0  0  0  0  0  0
    2.8230   -2.1360   42.8000 C   0  0  0  0  0  0  0  0  0  0  0  0
    1.0340   -1.7720   41.1840 C   0  0  0  0  0  0  0  0  0  0  0  0
    2.0440   -3.1130   43.4740 C   0  0  0  0  0  0  0  0  0  0  0  0
    4.1090   -1.8200   43.2620 C   0  0  0  0  0  0  0  0  0  0  0  0
    0.2680   -2.7230   41.8370 C   0  0  0  0  0  0  0  0  0  0  0  0
    0.7550   -3.3840   42.9610 C   0  0  0  0  0  0  0  0  0  0  0  0
    4.6410   -2.4550   44.3870 C   0  0  0  0  0  0  0  0  0  0  0  0
    3.8840   -3.4170   45.0580 C   0  0  0  0  0  0  0  0  0  0  0  0
   -0.9860   -3.0430   41.4070 O   0  0  0  0  0  0  0  0  0  0  0  0
    5.9970   -2.1460   44.9000 C   0  0  0  0  0  0  0  0  0  0  0  0
    6.7340   -2.9210   45.4800 O   0  0  0  0  0  0  0  0  0  0  0  0
    6.3700   -0.8750   44.6650 O   0  0  0  0  0  0  0  0  0  0  0  0
    0.9690   -7.2270   45.1180 C   0  0  0  0  0  0  0  0  0  0  0  0
   -0.3880   -6.7310   44.5580 C   0  0  1  0  0  0  0  0  0  0  0  0
   -0.4030   -6.6830   43.0240 C   0  0  0  0  0  0  0  0  0  0  0  0
   -1.5340   -7.6060   45.0540 C   0  0  0  0  0  0  0  0  0  0  0  0
   -2.5360   -8.0110   44.1610 C   0  0  0  0  0  0  0  0  0  0  0  0
   -1.6160   -8.0190   46.3940 C   0  0  0  0  0  0  0  0  0  0  0  0
   -3.5970   -8.8070   44.5960 C   0  0  0  0  0  0  0  0  0  0  0  0
   -2.6750   -8.8270   46.8410 C   0  0  0  0  0  0  0  0  0  0  0  0
   -3.6680   -9.2110   45.9280 C   0  0  0  0  0  0  0  0  0  0  0  0
   -2.7660   -9.2420   48.2880 C   0  0  0  0  0  0  0  0  0  0  0  0
   -1.5480   -9.4290   48.8700 F   0  0  0  0  0  0  0  0  0  0  0  0
   -3.4070   -8.3160   49.0530 F   0  0  0  0  0  0  0  0  0  0  0  0
   -3.4440  -10.4100   48.4690 F   0  0  0  0  0  0  0  0  0  0  0  0
  1 18  1  0
  1  3  1  0
  1  2  1  1
  3  4  1  0
  4  8  2  0
  4 13  1  0
  5  7  2  0
  5  6  1  0
  6  9  2  0
  6  8  1  0
  7 10  1  0
  8 11  1  0
  9 12  1  0
 10 14  1  0
 10 11  2  0
 12 15  1  0
 12 13  2  0
 15 17  1  0
 15 16  2  0
 18 19  1  0
 19 20  1  6
 19 21  1  0
 21 22  2  0
 21 23  1  0
 22 24  1  0
 23 25  2  0
 24 26  2  0
 25 26  1  0
 25 27  1  0
 27 30  1  0
 27 28  1  0
 27 29  1  0
M  END
>  <vina_dock>  (825) 
-9.809

$$$$
O14757_PocketFlow_idx-in-all-generaetd-623
     RDKit          3D

 18 20  0  0  0  0  0  0  0  0999 V2000
    6.2370   -1.2960   44.5120 C   0  0  0  0  0  0  0  0  0  0  0  0
    7.2790   -1.9740   45.3700 C   0  0  0  0  0  0  0  0  0  0  0  0
    9.4140   -1.9330   46.5190 C   0  0  0  0  0  0  0  0  0  0  0  0
   10.8560   -1.0970   46.9460 Cl  0  0  0  0  0  0  0  0  0  0  0  0
    8.4590   -1.3030   45.7210 C   0  0  0  0  0  0  0  0  0  0  0  0
    9.2090   -3.2340   46.9740 C   0  0  0  0  0  0  0  0  0  0  0  0
    8.0400   -3.9100   46.6290 C   0  0  0  0  0  0  0  0  0  0  0  0
    7.0800   -3.2840   45.8300 C   0  0  0  0  0  0  0  0  0  0  0  0
    5.0500   -2.2050   44.1420 C   0  0  1  0  0  0  0  0  0  0  0  0
    4.2190   -2.6070   45.3690 C   0  0  0  0  0  0  0  0  0  0  0  0
    4.1400   -1.4790   43.1330 C   0  0  0  0  0  0  0  0  0  0  0  0
    3.1150   -3.5890   44.9740 C   0  0  0  0  0  0  0  0  0  0  0  0
    2.8350   -2.1900   42.8720 C   0  0  0  0  0  0  0  0  0  0  0  0
    2.3330   -3.1550   43.7610 C   0  0  0  0  0  0  0  0  0  0  0  0
    2.0790   -1.8340   41.7450 C   0  0  0  0  0  0  0  0  0  0  0  0
    1.1040   -3.7720   43.4860 C   0  0  0  0  0  0  0  0  0  0  0  0
    0.8540   -2.4470   41.4870 C   0  0  0  0  0  0  0  0  0  0  0  0
    0.3680   -3.4190   42.3560 C   0  0  0  0  0  0  0  0  0  0  0  0
  9  1  1  1
  1  2  1  0
  2  5  1  0
  2  8  2  0
  3  5  2  0
  3  4  1  0
  3  6  1  0
  6  7  2  0
  7  8  1  0
  9 11  1  0
  9 10  1  0
 10 12  1  0
 11 13  1  0
 12 14  1  0
 13 15  1  0
 13 14  2  0
 14 16  1  0
 15 17  2  0
 16 18  2  0
 17 18  1  0
M  END
>  <vina_dock>  (826) 
-8.605

$$$$
O14757_PocketFlow_idx-in-all-generaetd-358
     RDKit          3D

 17 17  0  0  0  0  0  0  0  0999 V2000
    0.1580   -6.1910   44.5020 C   0  0  0  0  0  0  0  0  0  0  0  0
    1.3090   -6.0390   45.4840 C   0  0  2  0  0  0  0  0  0  0  0  0
    0.0090   -5.1940   43.5740 N   0  0  0  0  0  0  0  0  0  0  0  0
    1.0850   -4.2750   43.2510 C   0  0  2  0  0  0  0  0  0  0  0  0
    1.7180   -3.6570   44.5230 C   0  0  1  0  0  0  0  0  0  0  0  0
    1.5340   -4.5460   45.7710 C   0  0  0  0  0  0  0  0  0  0  0  0
   -0.5880   -7.1650   44.4880 O   0  0  0  0  0  0  0  0  0  0  0  0
    0.5900   -3.1940   42.2910 C   0  0  0  0  0  0  0  0  0  0  0  0
    2.5650   -6.7560   44.9720 C   0  0  0  0  0  0  0  0  0  0  0  0
    3.6760   -6.6360   45.9140 N   0  0  0  0  0  0  0  0  0  0  0  0
    3.1830   -3.3430   44.2960 C   0  0  0  0  0  0  0  0  0  0  0  0
    4.0460   -3.0660   45.2870 C   0  0  0  0  0  0  0  0  0  0  0  0
    5.4390   -2.7670   45.0510 C   0  0  0  0  0  0  0  0  0  0  0  0
    6.4050   -3.0750   45.9320 C   0  0  0  0  0  0  0  0  0  0  0  0
    7.8890   -2.8090   45.7940 C   0  0  0  0  0  0  0  0  0  0  0  0
    8.1810   -1.3430   46.1290 C   0  0  0  0  0  0  0  0  0  0  0  0
    8.8020   -3.7210   46.6180 C   0  0  0  0  0  0  0  0  0  0  0  0
  1  3  1  0
  1  7  2  0
  1  2  1  0
  2  9  1  6
  2  6  1  0
  3  4  1  0
  4  8  1  6
  4  5  1  0
  5 11  1  0
  5  6  1  1
  9 10  1  0
 11 12  2  3
 12 13  1  0
 13 14  2  3
 14 15  1  0
 15 16  1  0
 15 17  1  0
M  END
>  <vina_dock>  (827) 
-6.567

$$$$
O14757_PocketFlow_idx-in-all-generaetd-904
     RDKit          3D

 14 15  0  0  0  0  0  0  0  0999 V2000
    0.8620   -5.4590   45.8120 C   0  0  0  0  0  0  0  0  0  0  0  0
    1.8330   -4.4830   46.0610 C   0  0  0  0  0  0  0  0  0  0  0  0
    1.2210   -6.5880   45.0740 C   0  0  0  0  0  0  0  0  0  0  0  0
    3.1700   -4.6700   45.6720 C   0  0  0  0  0  0  0  0  0  0  0  0
    2.5460   -6.7900   44.6820 C   0  0  0  0  0  0  0  0  0  0  0  0
    3.5180   -5.8410   44.9890 C   0  0  0  0  0  0  0  0  0  0  0  0
   -0.4840   -5.2040   46.1000 N   0  0  0  0  0  0  0  0  0  0  0  0
    4.2110   -3.6170   45.9800 C   0  0  0  0  0  0  0  0  0  0  0  0
    4.4440   -2.6250   44.8620 C   0  0  0  0  0  0  0  0  0  0  0  0
    3.5830   -2.5790   43.7560 C   0  0  0  0  0  0  0  0  0  0  0  0
    5.5170   -1.7250   44.9230 C   0  0  0  0  0  0  0  0  0  0  0  0
    3.7960   -1.6560   42.7310 C   0  0  0  0  0  0  0  0  0  0  0  0
    5.7270   -0.8020   43.8970 C   0  0  0  0  0  0  0  0  0  0  0  0
    4.8660   -0.7680   42.8010 C   0  0  0  0  0  0  0  0  0  0  0  0
  1  3  2  0
  1  2  1  0
  1  7  1  0
  2  4  2  0
  3  5  1  0
  4  6  1  0
  4  8  1  0
  5  6  2  0
  8  9  1  0
  9 10  2  0
  9 11  1  0
 10 12  1  0
 11 13  2  0
 12 14  2  0
 13 14  1  0
M  END
>  <vina_dock>  (828) 
-6.724

$$$$
O14757_PocketFlow_idx-in-all-generaetd-209
     RDKit          3D

 35 38  0  0  0  0  0  0  0  0999 V2000
    1.4840   -7.3770   44.9400 O   0  0  0  0  0  0  0  0  0  0  0  0
    2.2870   -6.2730   44.8600 C   0  0  0  0  0  0  0  0  0  0  0  0
    3.7890   -3.8910   44.7860 C   0  0  0  0  0  0  0  0  0  0  0  0
    4.3400   -5.0900   44.3270 C   0  0  0  0  0  0  0  0  0  0  0  0
    2.4860   -3.8920   45.2980 C   0  0  0  0  0  0  0  0  0  0  0  0
    3.5940   -6.2730   44.3640 C   0  0  0  0  0  0  0  0  0  0  0  0
    1.7260   -5.0780   45.3410 C   0  0  0  0  0  0  0  0  0  0  0  0
    4.5570   -2.6380   44.7010 C   0  0  0  0  0  0  0  0  0  0  0  0
    3.2450   -1.5960   42.7810 C   0  0  0  0  0  0  0  0  0  0  0  0
    4.2590   -1.6900   43.7990 C   0  0  0  0  0  0  0  0  0  0  0  0
    3.4090   -0.4110   42.1680 C   0  0  0  0  0  0  0  0  0  0  0  0
    4.9480   -0.3840   43.6340 C   0  0  0  0  0  0  0  0  0  0  0  0
    4.4470    0.3510   42.6780 N   0  0  0  0  0  0  0  0  0  0  0  0
    5.9520   -2.4910   45.9460 Br  0  0  0  0  0  0  0  0  0  0  0  0
    2.3910   -2.6120   42.4710 O   0  0  0  0  0  0  0  0  0  0  0  0
    1.1130   -2.2640   42.0500 C   0  0  0  0  0  0  0  0  0  0  0  0
    0.2910   -3.3060   41.6880 C   0  0  0  0  0  0  0  0  0  0  0  0
    0.7330   -0.9720   42.0550 N   0  0  0  0  0  0  0  0  0  0  0  0
   -0.9810   -2.9480   41.3150 C   0  0  0  0  0  0  0  0  0  0  0  0
   -0.5270   -0.7430   41.6620 C   0  0  0  0  0  0  0  0  0  0  0  0
   -1.4170   -1.6740   41.2860 N   0  0  0  0  0  0  0  0  0  0  0  0
    0.3160   -5.0570   45.8790 C   0  0  0  0  0  0  0  0  0  0  0  0
   -0.5850   -5.6470   45.0450 F   0  0  0  0  0  0  0  0  0  0  0  0
   -0.1580   -3.7920   46.0860 F   0  0  0  0  0  0  0  0  0  0  0  0
    0.1940   -5.6850   47.0840 F   0  0  0  0  0  0  0  0  0  0  0  0
    1.7720   -8.3870   45.9110 C   0  0  0  0  0  0  0  0  0  0  0  0
    0.5480   -8.7760   46.7030 C   0  0  0  0  0  0  0  0  0  0  0  0
   -0.7350   -8.6420   46.1510 C   0  0  0  0  0  0  0  0  0  0  0  0
    0.6790   -9.3130   47.9920 C   0  0  0  0  0  0  0  0  0  0  0  0
   -1.8770   -9.0400   46.8650 C   0  0  0  0  0  0  0  0  0  0  0  0
   -0.4480   -9.7110   48.7120 C   0  0  0  0  0  0  0  0  0  0  0  0
   -1.7190   -9.5740   48.1520 C   0  0  0  0  0  0  0  0  0  0  0  0
   -3.2520   -8.8990   46.2460 C   0  0  0  0  0  0  0  0  0  0  0  0
   -3.3100   -7.7330   45.3630 N   0  0  0  0  0  0  0  0  0  0  0  0
   -3.7000   -8.1120   44.0130 C   0  0  0  0  0  0  0  0  0  0  0  0
  1  2  1  0
  1 26  1  0
  2  6  2  0
  2  7  1  0
  3  4  2  0
  3  8  1  0
  3  5  1  0
  4  6  1  0
  5  7  2  0
  7 22  1  0
  8 10  2  3
  8 14  1  0
  9 11  2  0
  9 15  1  0
  9 10  1  0
 10 12  1  0
 11 13  1  0
 12 13  2  0
 15 16  1  0
 16 17  2  0
 16 18  1  0
 17 19  1  0
 18 20  2  0
 19 21  2  0
 20 21  1  0
 22 23  1  0
 22 24  1  0
 22 25  1  0
 26 27  1  0
 27 28  2  0
 27 29  1  0
 28 30  1  0
 29 31  2  0
 30 33  1  0
 30 32  2  0
 31 32  1  0
 33 34  1  0
 34 35  1  0
M  END
>  <vina_dock>  (829) 
-8.42

$$$$
O14757_PocketFlow_idx-in-all-generaetd-850
     RDKit          3D

 35 39  0  0  0  0  0  0  0  0999 V2000
    1.3710   -5.0560   45.0670 C   0  0  0  0  0  0  0  0  0  0  0  0
    2.4480   -5.4300   45.7870 C   0  0  0  0  0  0  0  0  0  0  0  0
    3.6650   -4.6810   46.0140 C   0  0  0  0  0  0  0  0  0  0  0  0
    4.2450   -3.8360   45.1410 C   0  0  0  0  0  0  0  0  0  0  0  0
    3.7060   -3.4560   43.7860 C   0  0  0  0  0  0  0  0  0  0  0  0
    2.2470   -3.0980   43.7830 C   0  0  0  0  0  0  0  0  0  0  0  0
    1.2510   -3.7900   44.3560 C   0  0  0  0  0  0  0  0  0  0  0  0
    0.2340   -6.0050   45.0690 C   0  0  0  0  0  0  0  0  0  0  0  0
   -1.9050   -7.8250   45.0960 C   0  0  0  0  0  0  0  0  0  0  0  0
   -1.4630   -7.2420   46.2900 C   0  0  0  0  0  0  0  0  0  0  0  0
   -1.2730   -7.4990   43.8900 C   0  0  0  0  0  0  0  0  0  0  0  0
   -0.3960   -6.3370   46.2750 C   0  0  0  0  0  0  0  0  0  0  0  0
   -0.2070   -6.5950   43.8760 C   0  0  0  0  0  0  0  0  0  0  0  0
   -3.0300   -8.7910   45.0610 C   0  0  0  0  0  0  0  0  0  0  0  0
   -3.3040   -9.5960   45.9310 O   0  0  0  0  0  0  0  0  0  0  0  0
   -3.7610   -8.7020   43.9360 O   0  0  0  0  0  0  0  0  0  0  0  0
    5.5240   -3.1960   45.5320 C   0  0  0  0  0  0  0  0  0  0  0  0
    5.9940   -2.1760   44.6970 C   0  0  0  0  0  0  0  0  0  0  0  0
    6.2530   -3.5770   46.6950 C   0  0  0  0  0  0  0  0  0  0  0  0
    7.1790   -1.5250   44.9960 C   0  0  0  0  0  0  0  0  0  0  0  0
    5.7840   -4.5820   47.5680 C   0  0  0  0  0  0  0  0  0  0  0  0
    7.4850   -2.9280   47.0010 C   0  0  0  0  0  0  0  0  0  0  0  0
    7.9070   -1.8960   46.1260 C   0  0  0  0  0  0  0  0  0  0  0  0
    6.4840   -4.9490   48.7100 C   0  0  0  0  0  0  0  0  0  0  0  0
    8.2210   -3.3320   48.1620 C   0  0  0  0  0  0  0  0  0  0  0  0
    7.6870   -4.3260   49.0070 C   0  0  0  0  0  0  0  0  0  0  0  0
    9.5650   -2.6900   48.5560 C   0  0  2  0  0  0  0  0  0  0  0  0
   10.7720   -3.5650   48.1950 C   0  0  0  0  0  0  0  0  0  0  0  0
   10.8410   -4.1080   46.8980 C   0  0  0  0  0  0  0  0  0  0  0  0
   11.8020   -3.8750   49.0970 C   0  0  0  0  0  0  0  0  0  0  0  0
   11.9090   -4.9220   46.5140 C   0  0  0  0  0  0  0  0  0  0  0  0
   12.8710   -4.6870   48.7100 C   0  0  0  0  0  0  0  0  0  0  0  0
   12.9250   -5.2080   47.4190 C   0  0  0  0  0  0  0  0  0  0  0  0
    9.4790   -2.2020   50.0230 C   0  0  0  0  0  0  0  0  0  0  0  0
   10.1080   -0.8290   50.2380 C   0  0  0  0  0  0  0  0  0  0  0  0
  1  7  1  0
  1  8  1  0
  1  2  2  0
  2  3  1  0
  3  4  2  0
  4  5  1  0
  4 17  1  0
  5  6  1  0
  6  7  2  0
  8 13  2  0
  8 12  1  0
  9 11  2  0
  9 14  1  0
  9 10  1  0
 10 12  2  0
 11 13  1  0
 14 16  1  0
 14 15  2  0
 17 18  2  0
 17 19  1  0
 18 20  1  0
 19 22  2  0
 19 21  1  0
 20 23  2  0
 21 24  2  0
 22 23  1  0
 22 25  1  0
 24 26  1  0
 25 27  1  0
 25 26  2  0
 27 28  1  0
 27 34  1  1
 28 29  2  0
 28 30  1  0
 29 31  1  0
 30 32  2  0
 31 33  2  0
 32 33  1  0
 34 35  1  0
M  END
>  <vina_dock>  (830) 
-9.163

$$$$
O14757_PocketFlow_idx-in-all-generaetd-16
     RDKit          3D

 35 39  0  0  0  0  0  0  0  0999 V2000
    1.6220   -3.5000   43.4120 C   0  0  0  0  0  0  0  0  0  0  0  0
    2.8410   -3.3840   44.0930 C   0  0  0  0  0  0  0  0  0  0  0  0
    3.7630   -2.3920   43.7390 C   0  0  0  0  0  0  0  0  0  0  0  0
    3.4140   -1.5590   42.6790 C   0  0  0  0  0  0  0  0  0  0  0  0
    2.2480   -1.6360   41.9970 N   0  0  0  0  0  0  0  0  0  0  0  0
    1.3790   -2.5990   42.3800 C   0  0  0  0  0  0  0  0  0  0  0  0
    0.6160   -4.5550   43.7860 C   0  0  0  0  0  0  0  0  0  0  0  0
    0.6100   -4.9010   45.2820 C   0  0  0  0  0  0  0  0  0  0  0  0
    0.9810   -6.3240   45.5650 C   0  0  0  0  0  0  0  0  0  0  0  0
    0.0850   -7.2340   46.0840 C   0  0  0  0  0  0  0  0  0  0  0  0
    2.2460   -6.8270   45.3500 C   0  0  0  0  0  0  0  0  0  0  0  0
    0.3930   -8.5160   46.3620 N   0  0  0  0  0  0  0  0  0  0  0  0
    2.6010   -8.1010   45.6110 N   0  0  0  0  0  0  0  0  0  0  0  0
    1.6540   -8.8900   46.1240 C   0  0  0  0  0  0  0  0  0  0  0  0
    1.9900  -10.2030   46.3840 N   0  0  0  0  0  0  0  0  0  0  0  0
    5.0410   -2.2490   44.4490 C   0  0  0  0  0  0  0  0  0  0  0  0
    5.3750   -3.0360   45.5910 C   0  0  0  0  0  0  0  0  0  0  0  0
    5.9640   -1.3010   43.9690 C   0  0  0  0  0  0  0  0  0  0  0  0
    4.5250   -4.0230   46.1440 C   0  0  0  0  0  0  0  0  0  0  0  0
    6.6310   -2.8360   46.2140 C   0  0  0  0  0  0  0  0  0  0  0  0
    7.1950   -1.1190   44.5890 C   0  0  0  0  0  0  0  0  0  0  0  0
    4.8930   -4.7660   47.2700 C   0  0  0  0  0  0  0  0  0  0  0  0
    6.9900   -3.5930   47.3420 C   0  0  0  0  0  0  0  0  0  0  0  0
    7.5220   -1.8810   45.7060 C   0  0  0  0  0  0  0  0  0  0  0  0
    6.1310   -4.5590   47.8800 C   0  0  0  0  0  0  0  0  0  0  0  0
    6.5280   -5.3390   49.1120 C   0  0  0  0  0  0  0  0  0  0  0  0
    6.9720   -6.6950   48.8020 N   0  0  0  0  0  0  0  0  0  0  0  0
    8.3320   -6.9380   48.6410 C   0  0  0  0  0  0  0  0  0  0  0  0
    6.0530   -7.8010   49.0790 C   0  0  0  0  0  0  0  0  0  0  0  0
    8.6950   -8.3990   48.4610 C   0  0  0  0  0  0  0  0  0  0  0  0
    9.1950   -6.0650   48.6630 O   0  0  0  0  0  0  0  0  0  0  0  0
    6.2910   -9.0470   48.2180 C   0  0  2  0  0  0  0  0  0  0  0  0
    7.6690   -9.0690   47.5550 C   0  0  2  0  0  0  0  0  0  0  0  0
    5.3500   -9.0920   47.2310 F   0  0  0  0  0  0  0  0  0  0  0  0
    8.0810  -10.4950   47.1970 C   0  0  0  0  0  0  0  0  0  0  0  0
  1  6  1  0
  1  7  1  0
  1  2  2  0
  2  3  1  0
  3  4  2  0
  3 16  1  0
  4  5  1  0
  5  6  2  0
  7  8  1  0
  8  9  1  0
  9 11  1  0
  9 10  2  0
 10 12  1  0
 11 13  2  0
 12 14  2  0
 13 14  1  0
 14 15  1  0
 16 18  2  0
 16 17  1  0
 17 19  2  0
 17 20  1  0
 18 21  1  0
 19 22  1  0
 20 24  1  0
 20 23  2  0
 21 24  2  0
 22 25  2  0
 23 25  1  0
 25 26  1  0
 26 27  1  0
 27 28  1  0
 27 29  1  0
 28 30  1  0
 28 31  2  0
 29 32  1  0
 30 33  1  0
 32 34  1  6
 32 33  1  0
 33 35  1  1
M  END
>  <vina_dock>  (831) 
-9.265

$$$$
O14757_PocketFlow_idx-in-all-generaetd-900
     RDKit          3D

 27 29  0  0  0  0  0  0  0  0999 V2000
    2.2410   -2.8890   43.3150 C   0  0  0  0  0  0  0  0  0  0  0  0
    1.3700   -3.8660   43.8320 C   0  0  0  0  0  0  0  0  0  0  0  0
    1.7440   -4.6690   44.9110 C   0  0  0  0  0  0  0  0  0  0  0  0
    3.5340   -2.7220   43.8820 C   0  0  0  0  0  0  0  0  0  0  0  0
    4.4830   -1.7820   43.4190 C   0  0  0  0  0  0  0  0  0  0  0  0
    5.7430   -1.6510   44.0130 C   0  0  0  0  0  0  0  0  0  0  0  0
    6.1090   -2.4650   45.0840 C   0  0  0  0  0  0  0  0  0  0  0  0
    5.1800   -3.3970   45.5620 C   0  0  0  0  0  0  0  0  0  0  0  0
    3.9100   -3.5400   44.9750 C   0  0  0  0  0  0  0  0  0  0  0  0
    3.0130   -4.4990   45.4720 C   0  0  0  0  0  0  0  0  0  0  0  0
    1.7330   -2.0300   42.1700 C   0  0  0  0  0  0  0  0  0  0  0  0
    0.2270   -2.2000   41.8910 C   0  0  1  0  0  0  0  0  0  0  0  0
   -0.3680   -0.8560   41.6510 N   0  0  0  0  0  0  0  0  0  0  0  0
   -0.0290   -3.1760   40.7220 C   0  0  0  0  0  0  0  0  0  0  0  0
   -0.3440   -4.4060   41.2090 F   0  0  0  0  0  0  0  0  0  0  0  0
    1.1220   -3.3320   40.0120 F   0  0  0  0  0  0  0  0  0  0  0  0
    0.8070   -5.7260   45.4430 C   0  0  0  0  0  0  0  0  0  0  0  0
    0.1950   -6.5580   44.3120 C   0  0  0  0  0  0  0  0  0  0  0  0
   -0.8320   -7.5330   44.8350 C   0  0  0  0  0  0  0  0  0  0  0  0
   -2.0280   -7.7470   44.1370 C   0  0  0  0  0  0  0  0  0  0  0  0
   -0.5880   -8.2580   46.0080 C   0  0  0  0  0  0  0  0  0  0  0  0
   -2.9680   -8.6640   44.6120 C   0  0  0  0  0  0  0  0  0  0  0  0
   -1.5290   -9.1740   46.4810 C   0  0  0  0  0  0  0  0  0  0  0  0
   -2.7180   -9.3770   45.7830 C   0  0  0  0  0  0  0  0  0  0  0  0
    7.4090   -2.3420   45.7590 C   0  0  0  0  0  0  0  0  0  0  0  0
    8.1580   -1.2290   45.7530 C   0  0  0  0  0  0  0  0  0  0  0  0
    9.4830   -1.1180   46.4360 C   0  0  0  0  0  0  0  0  0  0  0  0
  1 11  1  0
  1  2  2  0
  1  4  1  0
  2  3  1  0
  3 17  1  0
  3 10  2  0
  4  5  2  0
  4  9  1  0
  5  6  1  0
  6  7  2  0
  7  8  1  0
  7 25  1  0
  8  9  2  0
  9 10  1  0
 11 12  1  0
 12 14  1  0
 12 13  1  6
 14 16  1  0
 14 15  1  0
 17 18  1  0
 18 19  1  0
 19 20  2  0
 19 21  1  0
 20 22  1  0
 21 23  2  0
 22 24  2  0
 23 24  1  0
 25 26  2  3
 26 27  1  0
M  END
>  <vina_dock>  (832) 
-10.157

$$$$
O14757_PocketFlow_idx-in-all-generaetd-609
     RDKit          3D

 35 39  0  0  0  0  0  0  0  0999 V2000
    9.0580   -2.1990   47.1990 C   0  0  0  0  0  0  0  0  0  0  0  0
    8.2960   -1.7510   46.1110 C   0  0  0  0  0  0  0  0  0  0  0  0
    7.0530   -2.3200   45.7820 C   0  0  0  0  0  0  0  0  0  0  0  0
    6.3340   -1.8270   44.6850 C   0  0  0  0  0  0  0  0  0  0  0  0
    8.5390   -3.2440   47.9680 C   0  0  0  0  0  0  0  0  0  0  0  0
    7.2950   -3.8330   47.6650 C   0  0  0  0  0  0  0  0  0  0  0  0
    6.5270   -3.3820   46.5550 C   0  0  0  0  0  0  0  0  0  0  0  0
    5.2630   -3.9050   46.1680 C   0  0  0  0  0  0  0  0  0  0  0  0
    4.5360   -3.4140   45.0660 C   0  0  0  0  0  0  0  0  0  0  0  0
    5.0950   -2.3660   44.3320 C   0  0  0  0  0  0  0  0  0  0  0  0
   10.3610   -1.5920   47.5170 C   0  0  0  0  0  0  0  0  0  0  0  0
   12.8650   -0.4180   48.1400 C   0  0  0  0  0  0  0  0  0  0  0  0
   11.9780   -0.7620   49.1560 C   0  0  0  0  0  0  0  0  0  0  0  0
   12.4970   -0.6550   46.8140 C   0  0  0  0  0  0  0  0  0  0  0  0
   10.7410   -1.3440   48.8460 C   0  0  0  0  0  0  0  0  0  0  0  0
   11.2640   -1.2360   46.5050 C   0  0  0  0  0  0  0  0  0  0  0  0
   14.0940    0.1590   48.2920 O   0  0  0  0  0  0  0  0  0  0  0  0
   14.2080    1.3400   49.0840 C   0  0  0  0  0  0  0  0  0  0  0  0
   13.6110    2.5340   48.3610 C   0  0  0  0  0  0  0  0  0  0  0  0
    6.8370   -4.9490   48.5350 C   0  0  0  0  0  0  0  0  0  0  0  0
    7.0320   -6.1390   48.3850 O   0  0  0  0  0  0  0  0  0  0  0  0
    6.1100   -4.4980   49.5750 O   0  0  0  0  0  0  0  0  0  0  0  0
    3.2280   -3.9860   44.7010 C   0  0  0  0  0  0  0  0  0  0  0  0
    2.9010   -5.3140   45.0270 C   0  0  0  0  0  0  0  0  0  0  0  0
    2.2710   -3.2240   44.0130 C   0  0  0  0  0  0  0  0  0  0  0  0
    1.6600   -5.8730   44.6800 C   0  0  0  0  0  0  0  0  0  0  0  0
    1.0340   -3.7670   43.6610 C   0  0  0  0  0  0  0  0  0  0  0  0
    0.7310   -5.0860   43.9920 C   0  0  0  0  0  0  0  0  0  0  0  0
    1.3420   -7.3100   45.0310 C   0  0  0  0  0  0  0  0  0  0  0  0
   -0.1120   -7.5480   45.3740 C   0  0  0  0  0  0  0  0  0  0  0  0
   -0.5200   -7.6550   46.7120 C   0  0  0  0  0  0  0  0  0  0  0  0
   -1.0750   -7.6700   44.3600 C   0  0  0  0  0  0  0  0  0  0  0  0
   -1.8610   -7.8800   47.0290 C   0  0  0  0  0  0  0  0  0  0  0  0
   -2.4150   -7.8940   44.6800 C   0  0  0  0  0  0  0  0  0  0  0  0
   -2.8080   -8.0000   46.0140 C   0  0  0  0  0  0  0  0  0  0  0  0
  1  2  2  0
  1 11  1  0
  1  5  1  0
  2  3  1  0
  3  4  2  0
  3  7  1  0
  4 10  1  0
  5  6  2  0
  6  7  1  0
  6 20  1  0
  7  8  2  0
  8  9  1  0
  9 10  2  0
  9 23  1  0
 11 16  2  0
 11 15  1  0
 12 14  2  0
 12 17  1  0
 12 13  1  0
 13 15  2  0
 14 16  1  0
 17 18  1  0
 18 19  1  0
 20 21  2  0
 20 22  1  0
 23 25  1  0
 23 24  2  0
 24 26  1  0
 25 27  2  0
 26 28  2  0
 26 29  1  0
 27 28  1  0
 29 30  1  0
 30 32  1  0
 30 31  2  0
 31 33  1  0
 32 34  2  0
 33 35  2  0
 34 35  1  0
M  END
>  <vina_dock>  (833) 
-8.919

$$$$
O14757_PocketFlow_idx-in-all-generaetd-829
     RDKit          3D

 31 35  0  0  0  0  0  0  0  0999 V2000
    8.9710   -3.4560   47.2040 C   0  0  2  0  0  0  0  0  0  0  0  0
    7.9850   -3.9860   48.2450 C   0  0  0  0  0  0  0  0  0  0  0  0
    6.6450   -3.9760   47.6460 N   0  0  0  0  0  0  0  0  0  0  0  0
    6.7360   -3.3760   46.4990 C   0  0  0  0  0  0  0  0  0  0  0  0
    8.0910   -2.8380   46.1290 C   0  0  0  0  0  0  0  0  0  0  0  0
    9.9920   -4.5140   46.7310 C   0  0  2  0  0  0  0  0  0  0  0  0
   12.2730   -9.0050   45.7710 C   0  0  0  0  0  0  0  0  0  0  0  0
   10.9400   -9.3030   46.0650 C   0  0  0  0  0  0  0  0  0  0  0  0
   12.7380   -7.6930   45.9280 C   0  0  0  0  0  0  0  0  0  0  0  0
   10.0850   -8.2980   46.5250 C   0  0  0  0  0  0  0  0  0  0  0  0
   11.8870   -6.6790   46.3940 C   0  0  0  0  0  0  0  0  0  0  0  0
   10.5440   -6.9830   46.6820 C   0  0  0  0  0  0  0  0  0  0  0  0
   12.4400   -5.2820   46.5580 C   0  0  0  0  0  0  0  0  0  0  0  0
    9.6010   -5.9230   47.2030 C   0  0  0  0  0  0  0  0  0  0  0  0
   11.4430   -4.3120   47.1540 C   0  0  0  0  0  0  0  0  0  0  0  0
   11.8140   -3.4060   47.8970 O   0  0  0  0  0  0  0  0  0  0  0  0
   13.2230  -10.0340   45.2710 C   0  0  0  0  0  0  0  0  0  0  0  0
   13.0440  -10.4950   43.9960 N   0  0  0  0  0  0  0  0  0  0  0  0
   14.1150  -10.4850   45.9800 O   0  0  0  0  0  0  0  0  0  0  0  0
    5.5670   -3.1920   45.6020 C   0  0  0  0  0  0  0  0  0  0  0  0
    4.4330   -4.0040   45.6950 C   0  0  0  0  0  0  0  0  0  0  0  0
    5.6080   -2.1840   44.6350 C   0  0  0  0  0  0  0  0  0  0  0  0
    3.3520   -3.8040   44.8280 C   0  0  0  0  0  0  0  0  0  0  0  0
    4.5240   -1.9870   43.7710 C   0  0  0  0  0  0  0  0  0  0  0  0
    3.3780   -2.7920   43.8530 C   0  0  0  0  0  0  0  0  0  0  0  0
    2.2360   -2.5830   42.9470 C   0  0  0  0  0  0  0  0  0  0  0  0
    1.0880   -3.3880   43.0330 C   0  0  0  0  0  0  0  0  0  0  0  0
    2.2620   -1.5720   41.9710 C   0  0  0  0  0  0  0  0  0  0  0  0
    0.0040   -3.1920   42.1740 C   0  0  0  0  0  0  0  0  0  0  0  0
    1.1770   -1.3730   41.1110 C   0  0  0  0  0  0  0  0  0  0  0  0
    0.0500   -2.1840   41.2130 C   0  0  0  0  0  0  0  0  0  0  0  0
  1  5  1  6
  1  6  1  0
  1  2  1  0
  2  3  1  0
  3  4  1  0
  4 20  1  0
  4  5  1  0
  6 15  1  0
  6 14  1  1
  7 17  1  0
  7  9  2  0
  7  8  1  0
  8 10  2  0
  9 11  1  0
 10 12  1  0
 11 13  1  0
 11 12  2  0
 12 14  1  0
 13 15  1  0
 15 16  2  0
 17 18  1  0
 17 19  2  0
 20 22  1  0
 20 21  2  0
 21 23  1  0
 22 24  2  0
 23 25  2  0
 24 25  1  0
 25 26  1  0
 26 28  1  0
 26 27  2  0
 27 29  1  0
 28 30  2  0
 29 31  2  0
 30 31  1  0
M  END
>  <vina_dock>  (834) 
-8.628

$$$$
O14757_PocketFlow_idx-in-all-generaetd-866
     RDKit          3D

 35 37  0  0  0  0  0  0  0  0999 V2000
    0.5760   -3.1800   42.5570 C   0  0  0  0  0  0  0  0  0  0  0  0
   -0.7380   -3.0090   42.1040 C   0  0  0  0  0  0  0  0  0  0  0  0
   -1.0930   -1.8780   41.3570 C   0  0  0  0  0  0  0  0  0  0  0  0
   -0.1330   -0.9010   41.0710 C   0  0  0  0  0  0  0  0  0  0  0  0
    1.1820   -1.0410   41.5370 C   0  0  0  0  0  0  0  0  0  0  0  0
    1.5230   -2.1850   42.2750 C   0  0  0  0  0  0  0  0  0  0  0  0
    0.9870   -4.3360   43.3680 C   0  0  0  0  0  0  0  0  0  0  0  0
    1.6070   -4.2540   44.5560 C   0  0  0  0  0  0  0  0  0  0  0  0
    2.0120   -5.4640   45.3710 C   0  0  2  0  0  0  0  0  0  0  0  0
    3.5100   -5.3830   45.6830 C   0  0  0  0  0  0  0  0  0  0  0  0
    1.6480   -6.7520   44.6030 C   0  0  0  0  0  0  0  0  0  0  0  0
    0.4530   -7.4800   45.1760 C   0  0  0  0  0  0  0  0  0  0  0  0
   -1.9510   -7.8660   45.2260 C   0  0  0  0  0  0  0  0  0  0  0  0
   -0.8400   -7.2090   44.6940 C   0  0  0  0  0  0  0  0  0  0  0  0
   -1.7660   -8.8020   46.2470 C   0  0  0  0  0  0  0  0  0  0  0  0
   -0.4880   -9.0800   46.7310 C   0  0  0  0  0  0  0  0  0  0  0  0
    0.6190   -8.4230   46.1980 C   0  0  0  0  0  0  0  0  0  0  0  0
   -3.2530   -7.6880   44.8460 O   0  0  0  0  0  0  0  0  0  0  0  0
   -3.6390   -8.2530   43.5990 C   0  0  0  0  0  0  0  0  0  0  0  0
   -2.4960   -1.7580   40.8940 C   0  0  0  0  0  0  0  0  0  0  0  0
   -3.1680   -0.7420   40.9030 O   0  0  0  0  0  0  0  0  0  0  0  0
   -2.9990   -2.9190   40.4380 O   0  0  0  0  0  0  0  0  0  0  0  0
    2.2180    0.0120   41.2240 C   0  0  0  0  0  0  0  0  0  0  0  0
    2.7950    0.6320   42.4660 C   0  0  0  0  0  0  0  0  0  0  0  0
    3.9320    0.2960   43.0970 C   0  0  0  0  0  0  0  0  0  0  0  0
    4.8780   -0.8190   42.7430 C   0  0  0  0  0  0  0  0  0  0  0  0
    4.5690   -2.1270   43.4830 C   0  0  0  0  0  0  0  0  0  0  0  0
    5.6420   -2.5220   44.4620 C   0  0  0  0  0  0  0  0  0  0  0  0
    6.6250   -1.6980   44.8570 C   0  0  0  0  0  0  0  0  0  0  0  0
    7.6920   -2.0750   45.7940 C   0  0  0  0  0  0  0  0  0  0  0  0
    8.7090   -1.1510   46.0690 C   0  0  0  0  0  0  0  0  0  0  0  0
    7.7000   -3.3050   46.4640 C   0  0  0  0  0  0  0  0  0  0  0  0
    9.7260   -1.4620   46.9730 C   0  0  0  0  0  0  0  0  0  0  0  0
    8.7180   -3.6150   47.3690 C   0  0  0  0  0  0  0  0  0  0  0  0
    9.7330   -2.6950   47.6220 C   0  0  0  0  0  0  0  0  0  0  0  0
  1  2  2  0
  1  6  1  0
  1  7  1  0
  2  3  1  0
  3 20  1  0
  3  4  2  0
  4  5  1  0
  5 23  1  0
  5  6  2  0
  7  8  2  3
  8  9  1  0
  9 11  1  0
  9 10  1  6
 11 12  1  0
 12 14  1  0
 12 17  2  0
 13 14  2  0
 13 18  1  0
 13 15  1  0
 15 16  2  0
 16 17  1  0
 18 19  1  0
 20 22  1  0
 20 21  2  0
 23 24  1  0
 24 25  2  3
 25 26  1  0
 26 27  1  0
 27 28  1  0
 28 29  2  3
 29 30  1  0
 30 31  2  0
 30 32  1  0
 31 33  1  0
 32 34  2  0
 33 35  2  0
 34 35  1  0
M  END
>  <vina_dock>  (835) 
-8.7

$$$$
O14757_PocketFlow_idx-in-all-generaetd-361
     RDKit          3D

  7  7  0  0  0  0  0  0  0  0999 V2000
    7.2180   -1.8350   45.4210 C   0  0  0  0  0  0  0  0  0  0  0  0
    5.9770   -1.8670   44.5790 C   0  0  0  0  0  0  0  0  0  0  0  0
    5.0920   -2.9480   44.6620 C   0  0  0  0  0  0  0  0  0  0  0  0
    3.9200   -2.9630   43.9020 C   0  0  0  0  0  0  0  0  0  0  0  0
    3.6210   -1.8920   43.0610 C   0  0  0  0  0  0  0  0  0  0  0  0
    4.4890   -0.8050   42.9830 C   0  0  0  0  0  0  0  0  0  0  0  0
    5.6600   -0.7890   43.7420 C   0  0  0  0  0  0  0  0  0  0  0  0
  1  2  1  0
  2  7  2  0
  2  3  1  0
  3  4  2  0
  4  5  1  0
  5  6  2  0
  6  7  1  0
M  END
>  <vina_dock>  (836) 
-4.654

$$$$
O14757_PocketFlow_idx-in-all-generaetd-620
     RDKit          3D

 24 26  0  0  0  0  0  0  0  0999 V2000
    3.4510   -5.7910   44.3150 C   0  0  0  0  0  0  0  0  0  0  0  0
    3.8720   -4.6460   44.8750 C   0  0  0  0  0  0  0  0  0  0  0  0
    4.8150   -3.6700   44.2080 C   0  0  0  0  0  0  0  0  0  0  0  0
    5.0760   -2.5710   45.2630 C   0  0  1  0  0  0  0  0  0  0  0  0
    3.5600   -4.1300   46.1840 C   0  0  0  0  0  0  0  0  0  0  0  0
    4.2080   -2.9860   46.4180 C   0  0  0  0  0  0  0  0  0  0  0  0
    2.5420   -6.7620   44.9310 C   0  0  0  0  0  0  0  0  0  0  0  0
    0.2760   -7.5420   45.3270 C   0  0  0  0  0  0  0  0  0  0  0  0
    0.7710   -8.5700   46.1380 C   0  0  0  0  0  0  0  0  0  0  0  0
    1.1640   -6.6320   44.7370 C   0  0  0  0  0  0  0  0  0  0  0  0
    2.1480   -8.6960   46.3420 C   0  0  0  0  0  0  0  0  0  0  0  0
    3.0280   -7.7950   45.7410 C   0  0  0  0  0  0  0  0  0  0  0  0
   -1.1790   -7.3620   45.0850 C   0  0  0  0  0  0  0  0  0  0  0  0
   -1.8970   -6.6830   46.0310 N   0  0  0  0  0  0  0  0  0  0  0  0
   -1.7310   -7.8300   44.0970 O   0  0  0  0  0  0  0  0  0  0  0  0
    6.5370   -2.4210   45.6450 C   0  0  0  0  0  0  0  0  0  0  0  0
    7.2370   -1.2240   45.4290 C   0  0  0  0  0  0  0  0  0  0  0  0
    7.2180   -3.5020   46.2260 C   0  0  0  0  0  0  0  0  0  0  0  0
    8.5830   -1.1070   45.7880 C   0  0  0  0  0  0  0  0  0  0  0  0
    8.5650   -3.3880   46.5870 C   0  0  0  0  0  0  0  0  0  0  0  0
    9.2520   -2.1890   46.3690 C   0  0  0  0  0  0  0  0  0  0  0  0
   10.6790   -2.0220   46.7330 C   0  0  0  0  0  0  0  0  0  0  0  0
   11.4320   -2.9060   47.1000 O   0  0  0  0  0  0  0  0  0  0  0  0
   11.1030   -0.7500   46.6220 O   0  0  0  0  0  0  0  0  0  0  0  0
  1  2  2  3
  1  7  1  0
  2  3  1  0
  2  5  1  0
  3  4  1  0
  4 16  1  1
  4  6  1  0
  5  6  2  0
  7 10  1  0
  7 12  2  0
  8 10  2  0
  8 13  1  0
  8  9  1  0
  9 11  2  0
 11 12  1  0
 13 15  2  0
 13 14  1  0
 16 17  2  0
 16 18  1  0
 17 19  1  0
 18 20  2  0
 19 21  2  0
 20 21  1  0
 21 22  1  0
 22 24  1  0
 22 23  2  0
M  END
>  <vina_dock>  (837) 
-8.396

$$$$
O14757_PocketFlow_idx-in-all-generaetd-908
     RDKit          3D

 25 27  0  0  0  0  0  0  0  0999 V2000
   -1.0500   -6.5110   46.0470 C   0  0  0  0  0  0  0  0  0  0  0  0
    0.2530   -6.4230   45.7130 C   0  0  0  0  0  0  0  0  0  0  0  0
    1.2100   -7.5920   45.6620 C   0  0  0  0  0  0  0  0  0  0  0  0
    0.8570   -5.0800   45.3520 C   0  0  0  0  0  0  0  0  0  0  0  0
    2.0410   -5.2750   44.3890 C   0  0  2  0  0  0  0  0  0  0  0  0
    3.1070   -6.1960   45.0310 C   0  0  0  0  0  0  0  0  0  0  0  0
    2.5660   -7.1660   45.9920 N   0  0  0  0  0  0  0  0  0  0  0  0
   -1.7380   -7.7570   46.3910 C   0  0  0  0  0  0  0  0  0  0  0  0
   -2.5180   -9.3500   48.0440 C   0  0  0  0  0  0  0  0  0  0  0  0
   -3.0690  -10.1350   47.0250 C   0  0  0  0  0  0  0  0  0  0  0  0
   -1.8530   -8.1610   47.7260 C   0  0  0  0  0  0  0  0  0  0  0  0
   -2.9530   -9.7330   45.6940 C   0  0  0  0  0  0  0  0  0  0  0  0
   -2.2890   -8.5470   45.3770 C   0  0  0  0  0  0  0  0  0  0  0  0
   -2.6340   -9.7630   49.4110 C   0  0  0  0  0  0  0  0  0  0  0  0
   -2.7290  -10.0940   50.5200 N   0  0  0  0  0  0  0  0  0  0  0  0
    2.6380   -3.9640   43.9040 C   0  0  0  0  0  0  0  0  0  0  0  0
    3.9100   -3.5410   44.3130 C   0  0  0  0  0  0  0  0  0  0  0  0
    1.9140   -3.1520   43.0160 C   0  0  0  0  0  0  0  0  0  0  0  0
    4.4460   -2.3390   43.8500 C   0  0  0  0  0  0  0  0  0  0  0  0
    2.4390   -1.9340   42.5490 C   0  0  0  0  0  0  0  0  0  0  0  0
    3.7170   -1.5410   42.9690 C   0  0  0  0  0  0  0  0  0  0  0  0
    1.6490   -1.0850   41.5840 C   0  0  0  0  0  0  0  0  0  0  0  0
    2.1670    0.1660   41.4480 F   0  0  0  0  0  0  0  0  0  0  0  0
    1.6080   -1.6110   40.3280 F   0  0  0  0  0  0  0  0  0  0  0  0
    0.3490   -0.9140   41.9560 F   0  0  0  0  0  0  0  0  0  0  0  0
  1  2  2  3
  1  8  1  0
  2  4  1  0
  2  3  1  0
  3  7  1  0
  4  5  1  0
  5 16  1  1
  5  6  1  0
  6  7  1  0
  8 13  1  0
  8 11  2  0
  9 10  2  0
  9 11  1  0
  9 14  1  0
 10 12  1  0
 12 13  2  0
 14 15  3  0
 16 18  1  0
 16 17  2  0
 17 19  1  0
 18 20  2  0
 19 21  2  0
 20 22  1  0
 20 21  1  0
 22 24  1  0
 22 23  1  0
 22 25  1  0
M  END
>  <vina_dock>  (838) 
-9.458

$$$$
O14757_PocketFlow_idx-in-all-generaetd-90
     RDKit          3D

  6  6  0  0  0  0  0  0  0  0999 V2000
    4.0740   -1.0140   42.7680 C   0  0  0  0  0  0  0  0  0  0  0  0
    3.5780   -2.2490   43.1870 C   0  0  0  0  0  0  0  0  0  0  0  0
    5.2720   -0.5280   43.2910 C   0  0  0  0  0  0  0  0  0  0  0  0
    5.9750   -1.2780   44.2350 C   0  0  0  0  0  0  0  0  0  0  0  0
    5.4800   -2.5120   44.6540 C   0  0  0  0  0  0  0  0  0  0  0  0
    4.2820   -2.9980   44.1310 C   0  0  0  0  0  0  0  0  0  0  0  0
  1  2  2  0
  1  3  1  0
  2  6  1  0
  3  4  2  0
  4  5  1  0
  5  6  2  0
M  END
>  <vina_dock>  (839) 
-3.982

$$$$
O14757_PocketFlow_idx-in-all-generaetd-853
     RDKit          3D

  9  8  0  0  0  0  0  0  0  0999 V2000
    5.0290   -2.1810   45.2000 C   0  0  0  0  0  0  0  0  0  0  0  0
    4.5180   -2.6870   43.8350 C   0  0  1  0  0  0  0  0  0  0  0  0
    3.1300   -3.2760   43.9410 C   0  0  0  0  0  0  0  0  0  0  0  0
    2.1080   -2.9500   43.1340 C   0  0  0  0  0  0  0  0  0  0  0  0
    0.7380   -3.5350   43.2420 C   0  0  0  0  0  0  0  0  0  0  0  0
    4.5080   -1.5440   42.8440 C   0  0  0  0  0  0  0  0  0  0  0  0
    4.8510   -0.2830   43.1410 C   0  0  0  0  0  0  0  0  0  0  0  0
    6.4260   -2.6740   45.6030 C   0  0  0  0  0  0  0  0  0  0  0  0
    7.5220   -1.6400   45.3850 C   0  0  0  0  0  0  0  0  0  0  0  0
  2  1  1  1
  1  8  1  0
  2  6  1  0
  2  3  1  0
  3  4  2  3
  4  5  1  0
  6  7  2  0
  8  9  1  0
M  END
>  <vina_dock>  (840) 
-4.833

$$$$
O14757_PocketFlow_idx-in-all-generaetd-406
     RDKit          3D

 24 27  0  0  0  0  0  0  0  0999 V2000
   -0.3700   -3.2090   41.6090 C   0  0  0  0  0  0  0  0  0  0  0  0
    0.0910   -3.2130   43.0080 N   0  0  0  0  0  0  0  0  0  0  0  0
    1.5360   -3.4460   43.1400 C   0  0  1  0  0  0  0  0  0  0  0  0
    2.2220   -1.2370   41.8880 C   0  0  0  0  0  0  0  0  0  0  0  0
    2.3700   -2.2610   42.7490 C   0  0  0  0  0  0  0  0  0  0  0  0
    3.4020   -0.2850   41.9030 C   0  0  0  0  0  0  0  0  0  0  0  0
    3.6340   -2.0500   43.4430 C   0  0  0  0  0  0  0  0  0  0  0  0
    4.2630   -0.9060   42.9560 C   0  0  0  0  0  0  0  0  0  0  0  0
    1.8230   -3.8180   44.6160 C   0  0  0  0  0  0  0  0  0  0  0  0
    4.1480   -2.8290   44.4730 C   0  0  0  0  0  0  0  0  0  0  0  0
    5.4770   -0.5080   43.4710 C   0  0  0  0  0  0  0  0  0  0  0  0
    3.3340   -4.0320   44.9150 C   0  0  2  0  0  0  0  0  0  0  0  0
    5.3890   -2.4380   45.0170 C   0  0  0  0  0  0  0  0  0  0  0  0
    6.0350   -1.2820   44.4980 C   0  0  0  0  0  0  0  0  0  0  0  0
    3.8550   -5.3160   44.2610 C   0  0  0  0  0  0  0  0  0  0  0  0
    6.0390   -3.1680   46.1150 C   0  0  0  0  0  0  0  0  0  0  0  0
    7.4250   -3.3920   46.1040 C   0  0  0  0  0  0  0  0  0  0  0  0
    5.2950   -3.6350   47.2080 C   0  0  0  0  0  0  0  0  0  0  0  0
    8.0460   -4.0760   47.1510 C   0  0  0  0  0  0  0  0  0  0  0  0
    5.9150   -4.3180   48.2560 C   0  0  0  0  0  0  0  0  0  0  0  0
    7.2910   -4.5400   48.2270 C   0  0  0  0  0  0  0  0  0  0  0  0
   -1.3850   -2.1050   41.3250 C   0  0  0  0  0  0  0  0  0  0  0  0
   -1.2750   -0.9010   41.4900 O   0  0  0  0  0  0  0  0  0  0  0  0
   -2.5460   -2.6090   40.8440 O   0  0  0  0  0  0  0  0  0  0  0  0
  1 22  1  0
  1  2  1  0
  3  2  1  1
  3  5  1  0
  3  9  1  0
  4  6  2  0
  4  5  1  0
  5  7  2  0
  6  8  1  0
  7  8  1  0
  7 10  1  0
  8 11  1  0
  9 12  1  0
 10 12  1  0
 10 13  2  0
 11 14  2  0
 12 15  1  6
 13 14  1  0
 13 16  1  0
 16 17  2  0
 16 18  1  0
 17 19  1  0
 18 20  2  0
 19 21  2  0
 20 21  1  0
 22 24  1  0
 22 23  2  0
M  END
>  <vina_dock>  (841) 
-9.569

$$$$
O14757_PocketFlow_idx-in-all-generaetd-773
     RDKit          3D

 35 37  0  0  0  0  0  0  0  0999 V2000
    5.5860   -5.0880   47.8850 C   0  0  0  0  0  0  0  0  0  0  0  0
    6.4970   -3.8990   47.5490 C   0  0  0  0  0  0  0  0  0  0  0  0
    6.4940   -3.5420   46.0450 C   0  0  1  0  0  0  0  0  0  0  0  0
    5.2140   -2.9480   45.4850 C   0  0  0  0  0  0  0  0  0  0  0  0
    4.7320   -3.0620   44.2350 C   0  0  0  0  0  0  0  0  0  0  0  0
    3.4460   -2.4850   43.6890 C   0  0  0  0  0  0  0  0  0  0  0  0
    3.5960   -1.3050   42.7500 C   0  0  0  0  0  0  0  0  0  0  0  0
    2.6670   -0.8910   41.8660 C   0  0  0  0  0  0  0  0  0  0  0  0
    4.9380   -0.6180   42.8040 C   0  0  0  0  0  0  0  0  0  0  0  0
    1.3300   -1.4660   41.6770 C   0  0  0  0  0  0  0  0  0  0  0  0
   -1.0820   -1.2090   41.4510 C   0  0  0  0  0  0  0  0  0  0  0  0
   -1.1860   -2.5790   41.2010 C   0  0  0  0  0  0  0  0  0  0  0  0
    0.1880   -0.6560   41.6360 C   0  0  0  0  0  0  0  0  0  0  0  0
   -0.0550   -3.3970   41.2290 C   0  0  0  0  0  0  0  0  0  0  0  0
    1.2010   -2.8430   41.4710 C   0  0  0  0  0  0  0  0  0  0  0  0
   -2.1970   -0.3770   41.2960 N   0  0  0  0  0  0  0  0  0  0  0  0
    7.7080   -2.6840   45.7410 C   0  0  0  0  0  0  0  0  0  0  0  0
    7.8040   -1.3480   45.8080 C   0  0  0  0  0  0  0  0  0  0  0  0
    6.0310   -5.8680   49.1260 C   0  0  0  0  0  0  0  0  0  0  0  0
    5.8410   -7.3830   49.0120 C   0  0  0  0  0  0  0  0  0  0  0  0
    4.8650   -7.7310   47.9790 N   0  0  0  0  0  0  0  0  0  0  0  0
    4.5230   -9.1540   47.9830 C   0  0  0  0  0  0  0  0  0  0  0  0
    3.1210   -9.3610   48.5270 C   0  0  0  0  0  0  0  0  0  0  0  0
    1.9660   -9.4000   47.7130 C   0  0  0  0  0  0  0  0  0  0  0  0
    2.9720   -9.4940   49.9230 C   0  0  0  0  0  0  0  0  0  0  0  0
    0.7080   -9.5770   48.3240 C   0  0  0  0  0  0  0  0  0  0  0  0
    1.7200   -9.6640   50.5080 C   0  0  0  0  0  0  0  0  0  0  0  0
    0.5860   -9.7060   49.7070 C   0  0  0  0  0  0  0  0  0  0  0  0
    2.0100   -9.2590   46.2030 C   0  0  0  0  0  0  0  0  0  0  0  0
    1.6580   -7.8970   45.6450 C   0  0  0  0  0  0  0  0  0  0  0  0
    0.3420   -7.5400   45.3160 C   0  0  0  0  0  0  0  0  0  0  0  0
    2.6880   -6.9820   45.3740 C   0  0  0  0  0  0  0  0  0  0  0  0
    0.0610   -6.2900   44.7650 C   0  0  0  0  0  0  0  0  0  0  0  0
    2.4060   -5.7330   44.8180 C   0  0  0  0  0  0  0  0  0  0  0  0
    1.0910   -5.3870   44.5190 C   0  0  0  0  0  0  0  0  0  0  0  0
  1  2  1  0
  1 19  1  0
  3  2  1  1
  3  4  1  0
  3 17  1  0
  4  5  2  3
  5  6  1  0
  6  7  1  0
  7  8  2  3
  7  9  1  0
  8 10  1  0
 10 15  1  0
 10 13  2  0
 11 12  2  0
 11 16  1  0
 11 13  1  0
 12 14  1  0
 14 15  2  0
 17 18  2  0
 19 20  1  0
 20 21  1  0
 21 22  1  0
 22 23  1  0
 23 24  1  0
 23 25  2  0
 24 29  1  0
 24 26  2  0
 25 27  1  0
 26 28  1  0
 27 28  2  0
 29 30  1  0
 30 31  2  0
 30 32  1  0
 31 33  1  0
 32 34  2  0
 33 35  2  0
 34 35  1  0
M  END
>  <vina_dock>  (842) 
-8.064

$$$$
O14757_PocketFlow_idx-in-all-generaetd-978
     RDKit          3D

 14 15  0  0  0  0  0  0  0  0999 V2000
    6.7300   -1.9400   45.3020 C   0  0  0  0  0  0  0  0  0  0  0  0
    5.9980   -1.5110   44.2600 C   0  0  0  0  0  0  0  0  0  0  0  0
    8.0830   -1.4350   45.7280 C   0  0  0  0  0  0  0  0  0  0  0  0
    8.7600   -2.1700   46.8780 C   0  0  0  0  0  0  0  0  0  0  0  0
    4.6770   -2.0530   43.9140 C   0  0  0  0  0  0  0  0  0  0  0  0
    4.1630   -3.1140   44.6650 C   0  0  0  0  0  0  0  0  0  0  0  0
    3.8910   -1.5050   42.8910 C   0  0  0  0  0  0  0  0  0  0  0  0
    2.8990   -3.6390   44.3840 C   0  0  0  0  0  0  0  0  0  0  0  0
    2.6150   -2.0200   42.5960 C   0  0  0  0  0  0  0  0  0  0  0  0
    2.1150   -3.1040   43.3520 C   0  0  0  0  0  0  0  0  0  0  0  0
    1.8260   -1.4800   41.5670 C   0  0  0  0  0  0  0  0  0  0  0  0
    0.8420   -3.6190   43.0560 C   0  0  0  0  0  0  0  0  0  0  0  0
    0.5630   -2.0030   41.2860 C   0  0  0  0  0  0  0  0  0  0  0  0
    0.0720   -3.0720   42.0300 C   0  0  0  0  0  0  0  0  0  0  0  0
  1  2  2  3
  1  3  1  0
  2  5  1  0
  3  4  1  0
  5  7  2  0
  5  6  1  0
  6  8  2  0
  7  9  1  0
  8 10  1  0
  9 11  2  0
  9 10  1  0
 10 12  2  0
 11 13  1  0
 12 14  1  0
 13 14  2  0
M  END
>  <vina_dock>  (843) 
-7.664

$$$$
O14757_PocketFlow_idx-in-all-generaetd-12
     RDKit          3D

 35 37  0  0  0  0  0  0  0  0999 V2000
    5.7560   -2.5860   45.2000 C   0  0  0  0  0  0  0  0  0  0  0  0
    5.6870   -3.6170   46.1510 C   0  0  0  0  0  0  0  0  0  0  0  0
    6.7450   -3.8440   47.0400 C   0  0  0  0  0  0  0  0  0  0  0  0
    7.8720   -3.0160   47.0090 C   0  0  0  0  0  0  0  0  0  0  0  0
    6.9060   -1.7790   45.1730 C   0  0  0  0  0  0  0  0  0  0  0  0
    7.9600   -1.9720   46.0800 C   0  0  0  0  0  0  0  0  0  0  0  0
    4.6490   -2.3510   44.2590 C   0  0  0  0  0  0  0  0  0  0  0  0
    2.3680   -2.8660   43.4770 C   0  0  0  0  0  0  0  0  0  0  0  0
    2.5190   -1.9020   42.4720 C   0  0  0  0  0  0  0  0  0  0  0  0
    3.4470   -3.0730   44.3620 C   0  0  0  0  0  0  0  0  0  0  0  0
    3.7070   -1.1790   42.3520 C   0  0  0  0  0  0  0  0  0  0  0  0
    4.7620   -1.4000   43.2370 C   0  0  0  0  0  0  0  0  0  0  0  0
    1.0930   -3.6810   43.6830 C   0  0  1  0  0  0  0  0  0  0  0  0
    0.3150   -3.7680   42.3600 C   0  0  0  0  0  0  0  0  0  0  0  0
    1.2930   -5.0440   44.3800 C   0  0  1  0  0  0  0  0  0  0  0  0
    0.8880   -5.0580   45.8260 C   0  0  0  0  0  0  0  0  0  0  0  0
   -0.0730   -5.9640   46.0190 C   0  0  0  0  0  0  0  0  0  0  0  0
    0.3180   -6.1240   43.9560 C   0  0  0  0  0  0  0  0  0  0  0  0
   -0.4380   -6.6260   44.8830 N   0  0  0  0  0  0  0  0  0  0  0  0
    6.7020   -4.9380   48.0480 C   0  0  0  0  0  0  0  0  0  0  0  0
    7.5300   -4.9760   48.9510 O   0  0  0  0  0  0  0  0  0  0  0  0
    5.7210   -5.8910   47.8760 N   0  0  0  0  0  0  0  0  0  0  0  0
    5.6440   -7.0530   48.7440 C   0  0  0  0  0  0  0  0  0  0  0  0
    5.2330   -8.3280   47.9830 C   0  0  0  0  0  0  0  0  0  0  0  0
    3.8190   -8.7060   48.1060 N   0  0  0  0  0  0  0  0  0  0  0  0
    3.3680   -9.7290   47.1600 C   0  0  0  0  0  0  0  0  0  0  0  0
    2.0950   -9.3690   46.3860 C   0  0  0  0  0  0  0  0  0  0  0  0
    2.3900   -8.3400   45.4430 O   0  0  0  0  0  0  0  0  0  0  0  0
    9.1820   -1.0930   46.0300 C   0  0  0  0  0  0  0  0  0  0  0  0
   10.1670   -1.6700   46.8810 O   0  0  0  0  0  0  0  0  0  0  0  0
   11.1040   -2.5140   46.2020 C   0  0  0  0  0  0  0  0  0  0  0  0
   12.5220   -1.9160   46.1370 C   0  0  2  0  0  0  0  0  0  0  0  0
   12.6750   -0.7080   47.0690 C   0  0  0  0  0  0  0  0  0  0  0  0
   12.1680    0.4840   46.4860 O   0  0  0  0  0  0  0  0  0  0  0  0
   12.8360   -1.5080   44.7980 O   0  0  0  0  0  0  0  0  0  0  0  0
  1  7  1  0
  1  5  1  0
  1  2  2  0
  2  3  1  0
  3  4  2  0
  3 20  1  0
  4  6  1  0
  5  6  2  0
  6 29  1  0
  7 12  1  0
  7 10  2  0
  8  9  2  0
  8 13  1  0
  8 10  1  0
  9 11  1  0
 11 12  2  0
 13 14  1  6
 13 15  1  0
 15 18  1  6
 15 16  1  0
 16 17  2  0
 17 19  1  0
 18 19  2  0
 20 22  1  0
 20 21  2  0
 22 23  1  0
 23 24  1  0
 24 25  1  0
 25 26  1  0
 26 27  1  0
 27 28  1  0
 29 30  1  0
 30 31  1  0
 31 32  1  0
 32 35  1  6
 32 33  1  0
 33 34  1  0
M  END
>  <vina_dock>  (844) 
-8.04

$$$$
O14757_PocketFlow_idx-in-all-generaetd-509
     RDKit          3D

 35 38  0  0  0  0  0  0  0  0999 V2000
    0.8870   -2.3450   41.4640 C   0  0  2  0  0  0  0  0  0  0  0  0
    0.7730   -0.8140   41.4290 C   0  0  0  0  0  0  0  0  0  0  0  0
    1.8710   -0.2830   40.8220 F   0  0  0  0  0  0  0  0  0  0  0  0
   -0.4380   -2.9950   40.9830 C   0  0  0  0  0  0  0  0  0  0  0  0
   -1.7480   -2.2460   41.2650 C   0  0  0  0  0  0  0  0  0  0  0  0
   -2.7800   -2.3240   40.1390 C   0  0  0  0  0  0  0  0  0  0  0  0
   -3.7610   -1.1460   40.1380 C   0  0  0  0  0  0  0  0  0  0  0  0
   -3.2520    0.0660   40.9020 C   0  0  0  0  0  0  0  0  0  0  0  0
    1.4240   -2.9480   42.7620 C   0  0  0  0  0  0  0  0  0  0  0  0
    0.6730   -3.8110   43.5770 C   0  0  0  0  0  0  0  0  0  0  0  0
    2.7180   -2.6120   43.1910 C   0  0  0  0  0  0  0  0  0  0  0  0
    1.1860   -4.3580   44.7670 C   0  0  0  0  0  0  0  0  0  0  0  0
    3.2760   -3.1510   44.3610 C   0  0  0  0  0  0  0  0  0  0  0  0
    2.4980   -4.0330   45.1270 C   0  0  0  0  0  0  0  0  0  0  0  0
    0.3750   -5.2500   45.4950 N   0  0  0  0  0  0  0  0  0  0  0  0
    0.5330   -6.5960   45.6970 C   0  0  0  0  0  0  0  0  0  0  0  0
   -0.1860   -7.6150   45.2040 C   0  0  0  0  0  0  0  0  0  0  0  0
   -1.3400   -7.5030   44.3420 C   0  0  0  0  0  0  0  0  0  0  0  0
   -2.5630   -7.9050   44.7130 C   0  0  0  0  0  0  0  0  0  0  0  0
    4.6430   -2.8000   44.7720 C   0  0  0  0  0  0  0  0  0  0  0  0
    5.3040   -1.6980   44.2100 C   0  0  0  0  0  0  0  0  0  0  0  0
    5.3230   -3.5600   45.7370 C   0  0  0  0  0  0  0  0  0  0  0  0
    6.6030   -1.3650   44.6010 C   0  0  0  0  0  0  0  0  0  0  0  0
    6.6320   -3.2410   46.1390 C   0  0  0  0  0  0  0  0  0  0  0  0
    7.2800   -2.1280   45.5650 C   0  0  0  0  0  0  0  0  0  0  0  0
    7.3110   -4.0040   47.0990 C   0  0  0  0  0  0  0  0  0  0  0  0
    8.5880   -1.8060   45.9690 C   0  0  0  0  0  0  0  0  0  0  0  0
    8.6120   -3.6720   47.4880 C   0  0  0  0  0  0  0  0  0  0  0  0
    9.2720   -2.5680   46.9320 C   0  0  0  0  0  0  0  0  0  0  0  0
   10.6400   -2.2150   47.3440 C   0  0  0  0  0  0  0  0  0  0  0  0
   11.3330   -2.9890   48.2880 C   0  0  0  0  0  0  0  0  0  0  0  0
   11.2910   -1.0950   46.8020 C   0  0  0  0  0  0  0  0  0  0  0  0
   12.6330   -2.6550   48.6790 C   0  0  0  0  0  0  0  0  0  0  0  0
   12.5900   -0.7580   47.1920 C   0  0  0  0  0  0  0  0  0  0  0  0
   13.2600   -1.5390   48.1300 C   0  0  0  0  0  0  0  0  0  0  0  0
  1  4  1  1
  1  2  1  0
  1  9  1  0
  2  3  1  0
  4  5  1  0
  5  6  1  0
  6  7  1  0
  7  8  1  0
  9 11  2  0
  9 10  1  0
 10 12  2  0
 11 13  1  0
 12 14  1  0
 12 15  1  0
 13 20  1  0
 13 14  2  0
 15 16  1  0
 16 17  2  3
 17 18  1  0
 18 19  2  0
 20 21  2  0
 20 22  1  0
 21 23  1  0
 22 24  2  0
 23 25  2  0
 24 25  1  0
 24 26  1  0
 25 27  1  0
 26 28  2  0
 27 29  2  0
 28 29  1  0
 29 30  1  0
 30 32  1  0
 30 31  2  0
 31 33  1  0
 32 34  2  0
 33 35  2  0
 34 35  1  0
M  END
>  <vina_dock>  (845) 
-9.726

$$$$
O14757_PocketFlow_idx-in-all-generaetd-80
     RDKit          3D

 35 37  0  0  0  0  0  0  0  0999 V2000
    7.6860   -3.4390   46.2010 C   0  0  0  0  0  0  0  0  0  0  0  0
    7.7850   -1.9090   46.1400 C   0  0  0  0  0  0  0  0  0  0  0  0
    7.0150   -1.4410   44.9900 N   0  0  0  0  0  0  0  0  0  0  0  0
    5.6150   -1.8200   44.9500 C   0  0  2  0  0  0  0  0  0  0  0  0
    5.1510   -2.5950   43.6890 C   0  0  2  0  0  0  0  0  0  0  0  0
    2.6410   -2.6730   43.4860 C   0  0  0  0  0  0  0  0  0  0  0  0
    1.5370   -2.9320   42.7850 C   0  0  0  0  0  0  0  0  0  0  0  0
    3.8790   -1.9510   43.0720 C   0  0  0  0  0  0  0  0  0  0  0  0
    2.5910   -3.3950   44.7950 C   0  0  2  0  0  0  0  0  0  0  0  0
    0.6440   -3.7320   43.4420 N   0  0  0  0  0  0  0  0  0  0  0  0
    3.7450   -4.3880   44.9080 C   0  0  0  0  0  0  0  0  0  0  0  0
    1.2120   -3.9990   44.5850 C   0  0  0  0  0  0  0  0  0  0  0  0
    4.9110   -4.0990   43.9500 C   0  0  0  0  0  0  0  0  0  0  0  0
    0.5260   -4.8020   45.6600 C   0  0  0  0  0  0  0  0  0  0  0  0
    0.8910   -6.2860   45.6730 C   0  0  0  0  0  0  0  0  0  0  0  0
    0.2340   -7.1230   44.5690 C   0  0  0  0  0  0  0  0  0  0  0  0
   -0.9750   -7.8690   45.0210 C   0  0  0  0  0  0  0  0  0  0  0  0
   -1.1210   -8.5950   46.1400 C   0  0  0  0  0  0  0  0  0  0  0  0
   -2.2650   -7.8760   44.2440 C   0  0  0  0  0  0  0  0  0  0  0  0
   -2.4590   -9.1230   46.1990 C   0  0  0  0  0  0  0  0  0  0  0  0
   -3.1440   -8.7220   45.1190 C   0  0  0  0  0  0  0  0  0  0  0  0
    4.8250   -0.6610   45.1430 O   0  0  0  0  0  0  0  0  0  0  0  0
    7.4620   -4.0640   47.5990 C   0  0  2  0  0  0  0  0  0  0  0  0
    5.9710   -4.2960   47.9240 C   0  0  0  0  0  0  0  0  0  0  0  0
    5.6400   -5.7030   48.4210 C   0  0  0  0  0  0  0  0  0  0  0  0
    4.8830   -6.4160   47.4530 O   0  0  0  0  0  0  0  0  0  0  0  0
    8.2460   -3.3340   48.7170 C   0  0  0  0  0  0  0  0  0  0  0  0
    9.2250   -4.1860   49.5310 C   0  0  0  0  0  0  0  0  0  0  0  0
   10.6810   -4.0430   49.0630 C   0  0  0  0  0  0  0  0  0  0  0  0
   10.9030   -2.8770   48.0920 C   0  0  0  0  0  0  0  0  0  0  0  0
   11.1300   -3.3030   46.7550 O   0  0  0  0  0  0  0  0  0  0  0  0
   11.7580   -4.5820   46.6730 C   0  0  0  0  0  0  0  0  0  0  0  0
   10.9270   -5.5030   45.7840 C   0  0  0  0  0  0  0  0  0  0  0  0
   10.8230   -6.9240   46.3440 C   0  0  0  0  0  0  0  0  0  0  0  0
    9.6200   -7.0650   47.2630 C   0  0  0  0  0  0  0  0  0  0  0  0
  1  2  1  0
 23  1  1  6
  2  3  1  0
  3  4  1  0
  4  5  1  0
  4 22  1  6
  5  8  1  1
  5 13  1  0
  6  7  2  0
  6  8  1  0
  6  9  1  0
  7 10  1  0
  9 12  1  0
  9 11  1  6
 10 12  2  0
 11 13  1  0
 12 14  1  0
 14 15  1  0
 15 16  1  0
 16 17  1  0
 17 19  2  0
 17 18  1  0
 18 20  1  0
 19 21  1  0
 20 21  2  0
 23 24  1  0
 23 27  1  0
 24 25  1  0
 25 26  1  0
 27 28  1  0
 28 29  1  0
 29 30  1  0
 30 31  1  0
 31 32  1  0
 32 33  1  0
 33 34  1  0
 34 35  1  0
M  END
>  <vina_dock>  (846) 
-6.413

$$$$
O14757_PocketFlow_idx-in-all-generaetd-686
     RDKit          3D

 20 22  0  0  0  0  0  0  0  0999 V2000
    5.6440   -2.6760   44.9540 C   0  0  0  0  0  0  0  0  0  0  0  0
    4.9830   -1.9870   43.9320 C   0  0  0  0  0  0  0  0  0  0  0  0
    5.0020   -3.7340   45.5960 C   0  0  0  0  0  0  0  0  0  0  0  0
    3.6810   -2.3480   43.5400 C   0  0  0  0  0  0  0  0  0  0  0  0
    3.0350   -1.6450   42.5090 C   0  0  0  0  0  0  0  0  0  0  0  0
    1.7600   -1.9990   42.0710 C   0  0  0  0  0  0  0  0  0  0  0  0
    1.0820   -3.0110   42.7460 C   0  0  0  0  0  0  0  0  0  0  0  0
    1.6900   -3.7440   43.7840 C   0  0  0  0  0  0  0  0  0  0  0  0
    3.0150   -3.4180   44.1880 C   0  0  0  0  0  0  0  0  0  0  0  0
    3.7070   -4.0970   45.2170 C   0  0  0  0  0  0  0  0  0  0  0  0
    7.0170   -2.3210   45.3860 C   0  0  0  0  0  0  0  0  0  0  0  0
    7.8290   -3.0810   45.8800 O   0  0  0  0  0  0  0  0  0  0  0  0
    7.3120   -1.0250   45.1790 O   0  0  0  0  0  0  0  0  0  0  0  0
    1.0930   -1.2120   41.1250 N   0  0  0  0  0  0  0  0  0  0  0  0
    0.9130   -4.8190   44.4210 C   0  0  0  0  0  0  0  0  0  0  0  0
    0.3770   -5.8660   43.6540 C   0  0  0  0  0  0  0  0  0  0  0  0
    0.6890   -4.8160   45.8060 C   0  0  0  0  0  0  0  0  0  0  0  0
   -0.3600   -6.8860   44.2590 C   0  0  0  0  0  0  0  0  0  0  0  0
   -0.0490   -5.8360   46.4100 C   0  0  0  0  0  0  0  0  0  0  0  0
   -0.5730   -6.8700   45.6360 C   0  0  0  0  0  0  0  0  0  0  0  0
  1  2  2  0
  1 11  1  0
  1  3  1  0
  2  4  1  0
  3 10  2  0
  4  5  2  0
  4  9  1  0
  5  6  1  0
  6 14  1  0
  6  7  2  0
  7  8  1  0
  8  9  2  0
  8 15  1  0
  9 10  1  0
 11 13  1  0
 11 12  2  0
 15 16  2  0
 15 17  1  0
 16 18  1  0
 17 19  2  0
 18 20  2  0
 19 20  1  0
M  END
>  <vina_dock>  (847) 
-8.792

$$$$
O14757_PocketFlow_idx-in-all-generaetd-758
     RDKit          3D

 18 19  0  0  0  0  0  0  0  0999 V2000
    3.5340   -3.7200   44.8300 C   0  0  0  0  0  0  0  0  0  0  0  0
    3.9380   -2.9450   43.5720 C   0  0  0  0  0  0  0  0  0  0  0  0
    2.7770   -2.3100   42.8470 C   0  0  0  0  0  0  0  0  0  0  0  0
    0.4790   -2.3710   42.0900 C   0  0  0  0  0  0  0  0  0  0  0  0
    1.5440   -2.9730   42.7570 C   0  0  0  0  0  0  0  0  0  0  0  0
    0.6190   -1.1180   41.5080 C   0  0  0  0  0  0  0  0  0  0  0  0
    1.8410   -0.4530   41.5900 C   0  0  0  0  0  0  0  0  0  0  0  0
    2.9150   -1.0460   42.2550 C   0  0  0  0  0  0  0  0  0  0  0  0
   -0.7330   -2.9870   41.9860 O   0  0  0  0  0  0  0  0  0  0  0  0
    3.7670   -5.2270   44.7030 C   0  0  0  0  0  0  0  0  0  0  0  0
    2.5040   -5.9670   44.8430 C   0  0  0  0  0  0  0  0  0  0  0  0
    1.4720   -6.5720   44.9590 C   0  0  0  0  0  0  0  0  0  0  0  0
    0.2450   -7.2920   45.1000 C   0  0  0  0  0  0  0  0  0  0  0  0
    0.0550   -8.1470   46.1870 C   0  0  0  0  0  0  0  0  0  0  0  0
   -0.7680   -7.1390   44.1490 C   0  0  0  0  0  0  0  0  0  0  0  0
   -1.1450   -8.8490   46.3230 C   0  0  0  0  0  0  0  0  0  0  0  0
   -1.9670   -7.8420   44.2860 C   0  0  0  0  0  0  0  0  0  0  0  0
   -2.1540   -8.6970   45.3730 C   0  0  0  0  0  0  0  0  0  0  0  0
  1  2  1  0
  1 10  1  0
  2  3  1  0
  3  8  1  0
  3  5  2  0
  4  6  2  0
  4  9  1  0
  4  5  1  0
  6  7  1  0
  7  8  2  0
 10 11  1  0
 11 12  3  0
 12 13  1  0
 13 15  1  0
 13 14  2  0
 14 16  1  0
 15 17  2  0
 16 18  2  0
 17 18  1  0
M  END
>  <vina_dock>  (848) 
-7.493

$$$$
O14757_PocketFlow_idx-in-all-generaetd-672
     RDKit          3D

 35 39  0  0  0  0  0  0  0  0999 V2000
   -1.1170   -6.6380   46.3210 C   0  0  0  0  0  0  0  0  0  0  0  0
   -0.1670   -5.5430   46.1240 N   0  0  0  0  0  0  0  0  0  0  0  0
    0.9980   -5.9390   45.3350 C   0  0  0  0  0  0  0  0  0  0  0  0
    1.5080   -4.7760   44.5150 C   0  0  0  0  0  0  0  0  0  0  0  0
   -1.1170   -0.7920   41.8480 O   0  0  0  0  0  0  0  0  0  0  0  0
    0.0070   -1.2300   41.6170 C   0  0  0  0  0  0  0  0  0  0  0  0
    0.3250   -2.7070   41.5770 C   0  0  0  0  0  0  0  0  0  0  0  0
    1.0420   -0.3810   41.3590 N   0  0  0  0  0  0  0  0  0  0  0  0
    1.2290   -3.1620   42.7080 C   0  0  0  0  0  0  0  0  0  0  0  0
    2.3820   -0.8200   41.0800 C   0  0  0  0  0  0  0  0  0  0  0  0
    0.7650   -4.2600   43.4610 C   0  0  0  0  0  0  0  0  0  0  0  0
    2.4930   -2.5480   43.0040 C   0  0  0  0  0  0  0  0  0  0  0  0
    3.0520   -1.4410   42.2830 C   0  0  0  0  0  0  0  0  0  0  0  0
    3.2470   -3.0730   44.0990 C   0  0  0  0  0  0  0  0  0  0  0  0
    4.2950   -0.8990   42.6520 C   0  0  0  0  0  0  0  0  0  0  0  0
    2.7300   -4.1740   44.8210 C   0  0  0  0  0  0  0  0  0  0  0  0
    4.5030   -2.4990   44.4540 C   0  0  0  0  0  0  0  0  0  0  0  0
    5.0040   -1.4170   43.7220 C   0  0  0  0  0  0  0  0  0  0  0  0
    5.3200   -2.9940   45.5780 C   0  0  0  0  0  0  0  0  0  0  0  0
    6.7240   -2.9560   45.5150 C   0  0  0  0  0  0  0  0  0  0  0  0
    4.7120   -3.5130   46.7300 C   0  0  0  0  0  0  0  0  0  0  0  0
    7.5240   -3.4120   46.5770 C   0  0  0  0  0  0  0  0  0  0  0  0
    5.4870   -3.9740   47.7930 C   0  0  0  0  0  0  0  0  0  0  0  0
    6.8790   -3.9210   47.7170 C   0  0  0  0  0  0  0  0  0  0  0  0
    8.9930   -3.3510   46.4980 C   0  0  0  0  0  0  0  0  0  0  0  0
    9.6680   -2.1180   46.4700 C   0  0  0  0  0  0  0  0  0  0  0  0
    9.7650   -4.5250   46.4520 C   0  0  0  0  0  0  0  0  0  0  0  0
   11.0630   -2.0610   46.4040 C   0  0  0  0  0  0  0  0  0  0  0  0
   11.1590   -4.4690   46.3870 C   0  0  0  0  0  0  0  0  0  0  0  0
   11.8070   -3.2370   46.3650 C   0  0  0  0  0  0  0  0  0  0  0  0
   -0.8710   -7.8250   45.3850 C   0  0  0  0  0  0  0  0  0  0  0  0
   -1.9220   -7.8720   44.2700 C   0  0  0  0  0  0  0  0  0  0  0  0
   -3.3250   -8.1020   44.8390 C   0  0  0  0  0  0  0  0  0  0  0  0
   -3.7540   -9.5370   45.0060 C   0  0  0  0  0  0  0  0  0  0  0  0
   -3.4530  -10.3680   46.0120 C   0  0  0  0  0  0  0  0  0  0  0  0
  1 31  1  0
  1  2  1  0
  2  3  1  0
  3  4  1  0
  4 11  2  0
  4 16  1  0
  5  6  2  0
  6  8  1  0
  6  7  1  0
  7  9  1  0
  8 10  1  0
  9 12  2  0
  9 11  1  0
 10 13  1  0
 12 13  1  0
 12 14  1  0
 13 15  2  0
 14 17  1  0
 14 16  2  0
 15 18  1  0
 17 18  2  0
 17 19  1  0
 19 20  2  0
 19 21  1  0
 20 22  1  0
 21 23  2  0
 22 25  1  0
 22 24  2  0
 23 24  1  0
 25 27  1  0
 25 26  2  0
 26 28  1  0
 27 29  2  0
 28 30  2  0
 29 30  1  0
 31 32  1  0
 32 33  1  0
 33 34  1  0
 34 35  2  0
M  END
>  <vina_dock>  (849) 
-10.409

$$$$
O14757_PocketFlow_idx-in-all-generaetd-935
     RDKit          3D

 33 37  0  0  0  0  0  0  0  0999 V2000
    7.4640   -2.1560   45.7250 C   0  0  0  0  0  0  0  0  0  0  0  0
    7.8030   -3.2650   46.5220 C   0  0  0  0  0  0  0  0  0  0  0  0
    8.9700   -3.2990   47.3210 C   0  0  0  0  0  0  0  0  0  0  0  0
    9.8210   -2.1800   47.2600 C   0  0  0  0  0  0  0  0  0  0  0  0
    9.5030   -1.0690   46.4770 C   0  0  0  0  0  0  0  0  0  0  0  0
    8.3310   -1.0560   45.7220 C   0  0  0  0  0  0  0  0  0  0  0  0
    6.2340   -2.1560   44.9150 C   0  0  0  0  0  0  0  0  0  0  0  0
    4.0890   -3.1980   44.2990 C   0  0  0  0  0  0  0  0  0  0  0  0
    3.8820   -2.1650   43.3710 C   0  0  0  0  0  0  0  0  0  0  0  0
    5.2730   -3.1740   45.0620 C   0  0  0  0  0  0  0  0  0  0  0  0
    4.8210   -1.1460   43.2090 C   0  0  0  0  0  0  0  0  0  0  0  0
    5.9870   -1.1430   43.9760 C   0  0  0  0  0  0  0  0  0  0  0  0
    3.0990   -4.2760   44.4680 C   0  0  0  0  0  0  0  0  0  0  0  0
    2.5520   -6.5870   45.0340 C   0  0  0  0  0  0  0  0  0  0  0  0
    1.2050   -6.3330   44.7950 C   0  0  0  0  0  0  0  0  0  0  0  0
    3.4920   -5.5640   44.8710 C   0  0  0  0  0  0  0  0  0  0  0  0
    0.0480   -7.5890   44.9980 Cl  0  0  0  0  0  0  0  0  0  0  0  0
    0.7910   -5.0670   44.3920 C   0  0  0  0  0  0  0  0  0  0  0  0
    1.7330   -4.0470   44.2300 C   0  0  0  0  0  0  0  0  0  0  0  0
    9.3260   -4.5580   48.1810 C   0  0  0  0  0  0  0  0  0  0  0  0
    9.7550   -4.0870   49.6130 C   0  0  0  0  0  0  0  0  0  0  0  0
    8.0660   -5.4730   48.3510 C   0  0  0  0  0  0  0  0  0  0  0  0
    6.7840   -4.9420   48.6050 C   0  0  0  0  0  0  0  0  0  0  0  0
    8.1910   -6.8790   48.3290 C   0  0  0  0  0  0  0  0  0  0  0  0
    5.6770   -5.7760   48.7880 C   0  0  0  0  0  0  0  0  0  0  0  0
    7.0840   -7.7110   48.5160 C   0  0  0  0  0  0  0  0  0  0  0  0
    5.8260   -7.1580   48.7390 C   0  0  0  0  0  0  0  0  0  0  0  0
   10.5510   -5.3380   47.5960 C   0  0  0  0  0  0  0  0  0  0  0  0
   10.7060   -5.5930   46.2210 C   0  0  0  0  0  0  0  0  0  0  0  0
   11.5530   -5.8360   48.4600 C   0  0  0  0  0  0  0  0  0  0  0  0
   11.8140   -6.2930   45.7320 C   0  0  0  0  0  0  0  0  0  0  0  0
   12.6600   -6.5360   47.9680 C   0  0  0  0  0  0  0  0  0  0  0  0
   12.7920   -6.7620   46.6030 C   0  0  0  0  0  0  0  0  0  0  0  0
  1  7  1  0
  1  6  1  0
  1  2  2  0
  2  3  1  0
  3  4  2  0
  3 20  1  0
  4  5  1  0
  5  6  2  0
  7 12  1  0
  7 10  2  0
  8  9  2  0
  8 13  1  0
  8 10  1  0
  9 11  1  0
 11 12  2  0
 13 19  1  0
 13 16  2  0
 14 15  2  0
 14 16  1  0
 15 18  1  0
 15 17  1  0
 18 19  2  0
 20 28  1  0
 20 22  1  0
 20 21  1  0
 22 24  1  0
 22 23  2  0
 23 25  1  0
 24 26  2  0
 25 27  2  0
 26 27  1  0
 28 29  2  0
 28 30  1  0
 29 31  1  0
 30 32  2  0
 31 33  2  0
 32 33  1  0
M  END
>  <vina_dock>  (850) 
-9.638

$$$$
O14757_PocketFlow_idx-in-all-generaetd-163
     RDKit          3D

 35 37  0  0  0  0  0  0  0  0999 V2000
    1.6990   -2.9160   42.8730 C   0  0  0  0  0  0  0  0  0  0  0  0
    2.8930   -2.8320   43.4880 C   0  0  0  0  0  0  0  0  0  0  0  0
    1.3850   -2.0220   41.7330 C   0  0  0  0  0  0  0  0  0  0  0  0
    0.5480   -1.0000   42.0520 N   0  0  0  0  0  0  0  0  0  0  0  0
    1.8260   -2.1930   40.6060 O   0  0  0  0  0  0  0  0  0  0  0  0
    0.6140   -3.8710   43.2950 C   0  0  0  0  0  0  0  0  0  0  0  0
    0.5500   -4.0230   44.8190 C   0  0  0  0  0  0  0  0  0  0  0  0
    0.8180   -5.4460   45.2420 C   0  0  0  0  0  0  0  0  0  0  0  0
    2.0970   -5.9980   45.1090 C   0  0  0  0  0  0  0  0  0  0  0  0
   -0.2030   -6.2240   45.8010 C   0  0  0  0  0  0  0  0  0  0  0  0
    2.3500   -7.3080   45.5230 C   0  0  0  0  0  0  0  0  0  0  0  0
    0.0510   -7.5340   46.2110 C   0  0  0  0  0  0  0  0  0  0  0  0
    1.3300   -8.0960   46.0780 C   0  0  0  0  0  0  0  0  0  0  0  0
    1.6150   -9.5230   46.5070 C   0  0  1  0  0  0  0  0  0  0  0  0
    2.7720  -10.0520   45.7700 N   0  0  0  0  0  0  0  0  0  0  0  0
    1.8760   -9.6590   48.0180 C   0  0  0  0  0  0  0  0  0  0  0  0
    0.6030   -9.8620   48.8310 C   0  0  0  0  0  0  0  0  0  0  0  0
    4.0200   -1.8860   43.1680 C   0  0  0  0  0  0  0  0  0  0  0  0
    5.1830   -2.0680   44.1150 C   0  0  0  0  0  0  0  0  0  0  0  0
    5.2290   -3.1780   44.9680 C   0  0  0  0  0  0  0  0  0  0  0  0
    6.2480   -1.1580   44.1280 C   0  0  0  0  0  0  0  0  0  0  0  0
    6.3120   -3.3680   45.8290 C   0  0  0  0  0  0  0  0  0  0  0  0
    7.3330   -1.3520   44.9860 C   0  0  0  0  0  0  0  0  0  0  0  0
    7.3750   -2.4540   45.8520 C   0  0  0  0  0  0  0  0  0  0  0  0
    8.5600   -2.6790   46.7630 C   0  0  0  0  0  0  0  0  0  0  0  0
    8.3750   -3.8160   47.6780 C   0  0  0  0  0  0  0  0  0  0  0  0
    8.2320   -4.7480   48.4240 C   0  0  0  0  0  0  0  0  0  0  0  0
    8.0720   -5.8900   49.3490 C   0  0  2  0  0  0  0  0  0  0  0  0
    9.4370   -6.3920   49.8240 C   0  0  0  0  0  0  0  0  0  0  0  0
    7.2550   -7.0130   48.7280 C   0  0  0  0  0  0  0  0  0  0  0  0
    7.8590   -8.1990   48.2770 C   0  0  0  0  0  0  0  0  0  0  0  0
    5.8640   -6.8810   48.6000 C   0  0  0  0  0  0  0  0  0  0  0  0
    7.0920   -9.2210   47.7150 C   0  0  0  0  0  0  0  0  0  0  0  0
    5.0980   -7.9050   48.0390 C   0  0  0  0  0  0  0  0  0  0  0  0
    5.7120   -9.0740   47.5970 C   0  0  0  0  0  0  0  0  0  0  0  0
  1  3  1  0
  1  6  1  0
  1  2  2  3
  2 18  1  0
  3  5  2  0
  3  4  1  0
  6  7  1  0
  7  8  1  0
  8  9  2  0
  8 10  1  0
  9 11  1  0
 10 12  2  0
 11 13  2  0
 12 13  1  0
 13 14  1  0
 14 15  1  6
 14 16  1  0
 16 17  1  0
 18 19  1  0
 19 21  1  0
 19 20  2  0
 20 22  1  0
 21 23  2  0
 22 24  2  0
 23 24  1  0
 24 25  1  0
 25 26  1  0
 26 27  3  0
 27 28  1  0
 28 30  1  0
 28 29  1  6
 30 31  2  0
 30 32  1  0
 31 33  1  0
 32 34  2  0
 33 35  2  0
 34 35  1  0
M  END
>  <vina_dock>  (851) 
-8.044

$$$$
O14757_PocketFlow_idx-in-all-generaetd-102
     RDKit          3D

 12 12  0  0  0  0  0  0  0  0999 V2000
    2.0800   -4.0880   44.6640 C   0  0  0  0  0  0  0  0  0  0  0  0
    1.9550   -4.4980   46.1110 C   0  0  0  0  0  0  0  0  0  0  0  0
    1.0250   -3.5440   44.0200 C   0  0  0  0  0  0  0  0  0  0  0  0
    3.4270   -4.3770   44.0300 C   0  0  0  0  0  0  0  0  0  0  0  0
    4.4500   -3.2880   44.2630 C   0  0  0  0  0  0  0  0  0  0  0  0
    4.4180   -2.1070   43.5090 C   0  0  0  0  0  0  0  0  0  0  0  0
    5.4510   -3.4470   45.2320 C   0  0  0  0  0  0  0  0  0  0  0  0
    5.3670   -1.1050   43.7230 C   0  0  0  0  0  0  0  0  0  0  0  0
    6.3970   -2.4430   45.4450 C   0  0  0  0  0  0  0  0  0  0  0  0
    6.3540   -1.2730   44.6910 C   0  0  0  0  0  0  0  0  0  0  0  0
    0.9570   -3.0580   42.6070 C   0  0  0  0  0  0  0  0  0  0  0  0
   -0.4270   -3.0040   42.1640 N   0  0  0  0  0  0  0  0  0  0  0  0
  1  3  2  3
  1  4  1  0
  1  2  1  0
  3 11  1  0
  4  5  1  0
  5  6  2  0
  5  7  1  0
  6  8  1  0
  7  9  2  0
  8 10  2  0
  9 10  1  0
 11 12  1  0
M  END
>  <vina_dock>  (852) 
-5.97

$$$$
O14757_PocketFlow_idx-in-all-generaetd-385
     RDKit          3D

 25 27  0  0  0  0  0  0  0  0999 V2000
    1.6730   -5.4430   44.6670 C   0  0  0  0  0  0  0  0  0  0  0  0
    1.3990   -4.1020   44.3580 C   0  0  0  0  0  0  0  0  0  0  0  0
    2.4280   -3.2150   44.0210 C   0  0  0  0  0  0  0  0  0  0  0  0
    3.7610   -3.6450   43.9840 C   0  0  0  0  0  0  0  0  0  0  0  0
    4.0390   -4.9830   44.2960 C   0  0  0  0  0  0  0  0  0  0  0  0
    3.0090   -5.8670   44.6330 C   0  0  0  0  0  0  0  0  0  0  0  0
    0.5910   -6.3750   45.0190 C   0  0  0  0  0  0  0  0  0  0  0  0
   -1.4830   -8.1590   45.6980 C   0  0  0  0  0  0  0  0  0  0  0  0
   -0.4780   -7.8750   46.6250 C   0  0  0  0  0  0  0  0  0  0  0  0
   -1.4500   -7.5660   44.4330 C   0  0  0  0  0  0  0  0  0  0  0  0
   -0.4430   -8.6380   48.3620 Br  0  0  0  0  0  0  0  0  0  0  0  0
    0.5500   -6.9860   46.2840 C   0  0  0  0  0  0  0  0  0  0  0  0
   -0.4250   -6.6790   44.0970 C   0  0  0  0  0  0  0  0  0  0  0  0
   -2.5590   -9.0980   46.0240 C   0  0  0  0  0  0  0  0  0  0  0  0
   -2.4660  -10.3070   46.1090 O   0  0  0  0  0  0  0  0  0  0  0  0
   -3.7030   -8.4310   46.2620 O   0  0  0  0  0  0  0  0  0  0  0  0
   -2.4230   -7.8560   43.5160 O   0  0  0  0  0  0  0  0  0  0  0  0
    4.8710   -2.6630   43.6250 C   0  0  1  0  0  0  0  0  0  0  0  0
    4.2610   -1.3220   43.1890 C   0  0  0  0  0  0  0  0  0  0  0  0
    5.9440   -2.5680   44.7070 C   0  0  0  0  0  0  0  0  0  0  0  0
    6.8790   -1.5190   44.6440 C   0  0  0  0  0  0  0  0  0  0  0  0
    6.0530   -3.4890   45.7610 C   0  0  0  0  0  0  0  0  0  0  0  0
    7.8840   -1.3920   45.6040 C   0  0  0  0  0  0  0  0  0  0  0  0
    7.0600   -3.3590   46.7220 C   0  0  0  0  0  0  0  0  0  0  0  0
    7.9740   -2.3120   46.6440 C   0  0  0  0  0  0  0  0  0  0  0  0
  1  2  2  0
  1  6  1  0
  1  7  1  0
  2  3  1  0
  3  4  2  0
  4 18  1  0
  4  5  1  0
  5  6  2  0
  7 13  2  0
  7 12  1  0
  8 10  2  0
  8 14  1  0
  8  9  1  0
  9 12  2  0
  9 11  1  0
 10 17  1  0
 10 13  1  0
 14 15  2  0
 14 16  1  0
 18 19  1  1
 18 20  1  0
 20 21  2  0
 20 22  1  0
 21 23  1  0
 22 24  2  0
 23 25  2  0
 24 25  1  0
M  END
>  <vina_dock>  (853) 
-9.2

$$$$
O14757_PocketFlow_idx-in-all-generaetd-383
     RDKit          3D

 35 36  0  0  0  0  0  0  0  0999 V2000
    1.6310   -4.7060   44.1310 C   0  0  2  0  0  0  0  0  0  0  0  0
    0.4230   -5.6040   43.9140 C   0  0  0  0  0  0  0  0  0  0  0  0
    0.0980   -6.7250   44.5820 C   0  0  0  0  0  0  0  0  0  0  0  0
   -1.0820   -7.4990   44.2640 C   0  0  0  0  0  0  0  0  0  0  0  0
   -2.1560   -7.5660   45.0660 C   0  0  0  0  0  0  0  0  0  0  0  0
   -3.3240   -8.3510   44.7360 C   0  0  0  0  0  0  0  0  0  0  0  0
   -3.7540   -9.4550   45.3680 C   0  0  0  0  0  0  0  0  0  0  0  0
   -3.1750  -10.1310   46.5790 C   0  0  0  0  0  0  0  0  0  0  0  0
   -1.7140  -10.4930   46.4730 C   0  0  0  0  0  0  0  0  0  0  0  0
   -0.7140  -10.1280   47.2950 C   0  0  0  0  0  0  0  0  0  0  0  0
    0.7470  -10.4950   47.1800 C   0  0  0  0  0  0  0  0  0  0  0  0
    1.7500   -9.3870   46.8170 C   0  0  0  0  0  0  0  0  0  0  0  0
    2.6200   -9.7770   45.7090 N   0  0  0  0  0  0  0  0  0  0  0  0
    1.9110   -4.3000   45.6130 C   0  0  0  0  0  0  0  0  0  0  0  0
    3.0790   -4.9170   46.2690 N   0  0  0  0  0  0  0  0  0  0  0  0
    4.3540   -4.2430   46.0320 C   0  0  0  0  0  0  0  0  0  0  0  0
    4.2820   -2.7630   46.2620 C   0  0  0  0  0  0  0  0  0  0  0  0
    5.1270   -1.8200   45.8110 C   0  0  0  0  0  0  0  0  0  0  0  0
    6.3180   -2.0050   44.9110 C   0  0  0  0  0  0  0  0  0  0  0  0
    7.6010   -2.1660   45.6900 C   0  0  0  0  0  0  0  0  0  0  0  0
    7.8840   -3.3730   46.3500 C   0  0  0  0  0  0  0  0  0  0  0  0
    8.5170   -1.1110   45.7840 C   0  0  0  0  0  0  0  0  0  0  0  0
    9.0530   -3.5330   47.1110 C   0  0  0  0  0  0  0  0  0  0  0  0
    9.6930   -1.2610   46.5160 C   0  0  0  0  0  0  0  0  0  0  0  0
    9.9610   -2.4630   47.1710 C   0  0  0  0  0  0  0  0  0  0  0  0
    9.3770   -4.8320   47.8300 C   0  0  1  0  0  0  0  0  0  0  0  0
   10.7200   -5.4370   47.4040 C   0  0  0  0  0  0  0  0  0  0  0  0
    9.4060   -4.6150   49.2870 N   0  0  0  0  0  0  0  0  0  0  0  0
    8.3780   -5.0550   49.9170 C   0  0  0  0  0  0  0  0  0  0  0  0
    1.5500   -3.4940   43.2060 C   0  0  0  0  0  0  0  0  0  0  0  0
    2.6240   -2.6000   43.0740 C   0  0  0  0  0  0  0  0  0  0  0  0
    0.3750   -3.2450   42.4770 C   0  0  0  0  0  0  0  0  0  0  0  0
    2.5320   -1.4970   42.2240 C   0  0  0  0  0  0  0  0  0  0  0  0
    0.2850   -2.1410   41.6290 C   0  0  0  0  0  0  0  0  0  0  0  0
    1.3630   -1.2690   41.4990 C   0  0  0  0  0  0  0  0  0  0  0  0
  1 30  1  0
  1  2  1  0
  1 14  1  1
  2  3  2  3
  3  4  1  0
  4  5  2  3
  5  6  1  0
  6  7  2  3
  7  8  1  0
  8  9  1  0
  9 10  2  3
 10 11  1  0
 11 12  1  0
 12 13  1  0
 14 15  1  0
 15 16  1  0
 16 17  1  0
 17 18  2  3
 18 19  1  0
 19 20  1  0
 20 22  1  0
 20 21  2  0
 21 23  1  0
 22 24  2  0
 23 25  2  0
 23 26  1  0
 24 25  1  0
 26 27  1  6
 26 28  1  0
 28 29  1  0
 30 32  1  0
 30 31  2  0
 31 33  1  0
 32 34  2  0
 33 35  2  0
 34 35  1  0
M  END
>  <vina_dock>  (854) 
1.844

$$$$
O14757_PocketFlow_idx-in-all-generaetd-725
     RDKit          3D

 13 12  0  0  0  0  0  0  0  0999 V2000
    0.6950   -1.0000   41.6350 C   0  0  0  0  0  0  0  0  0  0  0  0
    1.1080   -2.4570   41.4050 C   0  0  0  0  0  0  0  0  0  0  0  0
    0.3840   -3.4290   42.2920 C   0  0  0  0  0  0  0  0  0  0  0  0
    0.7750   -3.8720   43.4980 C   0  0  0  0  0  0  0  0  0  0  0  0
    2.0410   -3.5260   44.2280 C   0  0  0  0  0  0  0  0  0  0  0  0
    2.9810   -4.7200   44.2960 C   0  0  0  0  0  0  0  0  0  0  0  0
    1.8700   -0.0230   41.5710 C   0  0  0  0  0  0  0  0  0  0  0  0
    3.0580   -0.5830   42.2330 C   0  0  0  0  0  0  0  0  0  0  0  0
    4.0300   -1.0370   42.7740 C   0  0  0  0  0  0  0  0  0  0  0  0
    5.1760   -1.5790   43.4140 C   0  0  0  0  0  0  0  0  0  0  0  0
    5.2430   -1.6890   44.7470 C   0  0  0  0  0  0  0  0  0  0  0  0
    6.3910   -2.2340   45.4350 C   0  0  0  0  0  0  0  0  0  0  0  0
    7.5860   -1.6330   45.4460 C   0  0  0  0  0  0  0  0  0  0  0  0
  1  2  1  0
  1  7  1  0
  2  3  1  0
  3  4  2  3
  4  5  1  0
  5  6  1  0
  7  8  1  0
  8  9  3  0
  9 10  1  0
 10 11  2  3
 11 12  1  0
 12 13  2  0
M  END
>  <vina_dock>  (855) 
-5.608

$$$$
O14757_PocketFlow_idx-in-all-generaetd-418
     RDKit          3D

 20 22  0  0  0  0  0  0  0  0999 V2000
    0.7420   -5.1040   44.6820 C   0  0  0  0  0  0  0  0  0  0  0  0
    1.2420   -3.9860   43.7900 C   0  0  0  0  0  0  0  0  0  0  0  0
    6.3260   -1.4990   44.3210 C   0  0  0  0  0  0  0  0  0  0  0  0
    5.0700   -2.1170   44.1930 C   0  0  0  0  0  0  0  0  0  0  0  0
    7.2100   -1.8820   45.3320 C   0  0  0  0  0  0  0  0  0  0  0  0
    4.1690   -1.7450   43.1840 C   0  0  0  0  0  0  0  0  0  0  0  0
    4.7030   -3.1300   45.0970 C   0  0  0  0  0  0  0  0  0  0  0  0
    6.8480   -2.8840   46.2250 C   0  0  0  0  0  0  0  0  0  0  0  0
    2.9120   -2.3610   43.0540 C   0  0  0  0  0  0  0  0  0  0  0  0
    3.4450   -3.7450   44.9650 C   0  0  0  0  0  0  0  0  0  0  0  0
    5.6030   -3.5050   46.1100 C   0  0  0  0  0  0  0  0  0  0  0  0
    2.0430   -1.9620   42.0280 C   0  0  0  0  0  0  0  0  0  0  0  0
    2.5230   -3.3840   43.9520 C   0  0  0  0  0  0  0  0  0  0  0  0
    0.7960   -2.5580   41.8740 C   0  0  0  0  0  0  0  0  0  0  0  0
    0.3990   -3.5640   42.7460 C   0  0  0  0  0  0  0  0  0  0  0  0
    0.3010   -6.3180   43.8680 C   0  0  0  0  0  0  0  0  0  0  0  0
   -0.6280   -7.1940   44.6720 C   0  0  0  0  0  0  0  0  0  0  0  0
   -1.3040   -6.4740   45.5920 F   0  0  0  0  0  0  0  0  0  0  0  0
    0.0660   -8.1490   45.3280 F   0  0  0  0  0  0  0  0  0  0  0  0
   -1.5300   -7.8110   43.8810 F   0  0  0  0  0  0  0  0  0  0  0  0
  1  2  1  0
  1 16  1  0
  2 15  2  0
  2 13  1  0
  3  4  1  0
  3  5  2  0
  4  6  2  0
  4  7  1  0
  5  8  1  0
  6  9  1  0
  7 10  2  0
  7 11  1  0
  8 11  2  0
  9 12  1  0
  9 13  2  0
 10 13  1  0
 12 14  2  0
 14 15  1  0
 16 17  1  0
 17 20  1  0
 17 19  1  0
 17 18  1  0
M  END
>  <vina_dock>  (856) 
-9.613

$$$$
O14757_PocketFlow_idx-in-all-generaetd-946
     RDKit          3D

 31 34  0  0  0  0  0  0  0  0999 V2000
    1.5150   -3.2690   43.2710 C   0  0  0  0  0  0  0  0  0  0  0  0
    1.5560   -4.4810   44.0010 C   0  0  0  0  0  0  0  0  0  0  0  0
    0.3350   -5.3440   44.2120 C   0  0  0  0  0  0  0  0  0  0  0  0
    0.4520   -6.2260   45.4680 C   0  0  1  0  0  0  0  0  0  0  0  0
   -0.7860   -7.1060   45.5610 C   0  0  0  0  0  0  0  0  0  0  0  0
    2.7780   -4.9410   44.5330 C   0  0  0  0  0  0  0  0  0  0  0  0
    3.9310   -4.1510   44.4000 C   0  0  0  0  0  0  0  0  0  0  0  0
    3.8930   -2.9270   43.7290 C   0  0  0  0  0  0  0  0  0  0  0  0
    2.6840   -2.5050   43.1600 C   0  0  0  0  0  0  0  0  0  0  0  0
   -0.6960   -7.9390   46.8260 C   0  0  2  0  0  0  0  0  0  0  0  0
    0.6200   -8.6790   46.9040 C   0  0  0  0  0  0  0  0  0  0  0  0
    0.7580   -9.7940   47.7610 C   0  0  0  0  0  0  0  0  0  0  0  0
    1.9560  -10.4930   47.8480 C   0  0  0  0  0  0  0  0  0  0  0  0
    3.0390  -10.0850   47.0870 C   0  0  0  0  0  0  0  0  0  0  0  0
    2.9260   -8.9590   46.2660 C   0  0  0  0  0  0  0  0  0  0  0  0
    1.7390   -8.2030   46.1810 C   0  0  0  0  0  0  0  0  0  0  0  0
    1.6660   -7.0460   45.3740 N   0  0  0  0  0  0  0  0  0  0  0  0
    2.9210   -6.2820   45.2330 C   0  0  0  0  0  0  0  0  0  0  0  0
   -2.1200   -9.0300   46.8570 Cl  0  0  0  0  0  0  0  0  0  0  0  0
    0.3030   -2.8770   42.6490 N   0  0  0  0  0  0  0  0  0  0  0  0
   -0.0400   -2.9880   41.3160 C   0  0  0  0  0  0  0  0  0  0  0  0
    0.6550   -3.3970   40.3950 O   0  0  0  0  0  0  0  0  0  0  0  0
   -1.4280   -2.5170   41.0620 C   0  0  0  0  0  0  0  0  0  0  0  0
   -1.6980   -1.2050   41.1140 C   0  0  0  0  0  0  0  0  0  0  0  0
   -3.0680   -0.7550   40.8640 C   0  0  0  0  0  0  0  0  0  0  0  0
   -3.5840    0.2720   41.2610 O   0  0  0  0  0  0  0  0  0  0  0  0
   -3.7230   -1.6470   40.1080 O   0  0  0  0  0  0  0  0  0  0  0  0
    5.1420   -2.0900   43.5810 C   0  0  0  0  0  0  0  0  0  0  0  0
    4.9350   -0.6220   43.8690 C   0  0  0  0  0  0  0  0  0  0  0  0
    4.8670    0.3010   43.0750 O   0  0  0  0  0  0  0  0  0  0  0  0
    4.8690   -0.3750   45.1950 O   0  0  0  0  0  0  0  0  0  0  0  0
  1 20  1  0
  1  9  2  0
  1  2  1  0
  2  3  1  0
  2  6  2  0
  4  3  1  6
  4 17  1  0
  4  5  1  0
  5 10  1  0
  6  7  1  0
  6 18  1  0
  7  8  2  0
  8  9  1  0
  8 28  1  0
 10 19  1  6
 10 11  1  0
 11 16  2  0
 11 12  1  0
 12 13  2  0
 13 14  1  0
 14 15  2  0
 15 16  1  0
 16 17  1  0
 17 18  1  0
 20 21  1  0
 21 22  2  0
 21 23  1  0
 23 24  2  3
 24 25  1  0
 25 27  1  0
 25 26  2  0
 28 29  1  0
 29 30  2  0
 29 31  1  0
M  END
>  <vina_dock>  (857) 
-9.914

$$$$
O14757_PocketFlow_idx-in-all-generaetd-235
     RDKit          3D

 11 11  0  0  0  0  0  0  0  0999 V2000
    0.8180   -4.5920   45.5280 C   0  0  0  0  0  0  0  0  0  0  0  0
    2.1880   -4.8010   44.8690 C   0  0  0  0  0  0  0  0  0  0  0  0
    2.7080   -3.6420   44.0570 C   0  0  0  0  0  0  0  0  0  0  0  0
    1.8870   -3.0050   43.1130 C   0  0  0  0  0  0  0  0  0  0  0  0
    4.0120   -3.1700   44.2470 C   0  0  0  0  0  0  0  0  0  0  0  0
    2.3550   -1.9130   42.3700 C   0  0  0  0  0  0  0  0  0  0  0  0
    4.4900   -2.0920   43.5010 C   0  0  0  0  0  0  0  0  0  0  0  0
    1.4800   -1.2720   41.3340 C   0  0  0  0  0  0  0  0  0  0  0  0
    3.6680   -1.4700   42.5630 C   0  0  0  0  0  0  0  0  0  0  0  0
    0.0970   -5.8930   45.8710 C   0  0  0  0  0  0  0  0  0  0  0  0
   -1.1380   -5.6150   46.5100 O   0  0  0  0  0  0  0  0  0  0  0  0
  1  2  1  0
  1 10  1  0
  2  3  1  0
  3  4  2  0
  3  5  1  0
  4  6  1  0
  5  7  2  0
  6  8  1  0
  6  9  2  0
  7  9  1  0
 10 11  1  0
M  END
>  <vina_dock>  (858) 
-5.864

$$$$
O14757_PocketFlow_idx-in-all-generaetd-499
     RDKit          3D

 19 21  0  0  0  0  0  0  0  0999 V2000
    3.0210   -3.6130   44.2220 C   0  0  0  0  0  0  0  0  0  0  0  0
    2.8280   -4.8930   44.7700 C   0  0  0  0  0  0  0  0  0  0  0  0
    1.6250   -5.5990   44.5950 C   0  0  0  0  0  0  0  0  0  0  0  0
    0.5930   -5.0010   43.8610 C   0  0  0  0  0  0  0  0  0  0  0  0
    1.9650   -3.0440   43.4920 C   0  0  0  0  0  0  0  0  0  0  0  0
    0.7620   -3.7320   43.3120 C   0  0  0  0  0  0  0  0  0  0  0  0
    4.2920   -2.8940   44.4060 C   0  0  0  0  0  0  0  0  0  0  0  0
    6.4970   -2.7150   45.4340 C   0  0  0  0  0  0  0  0  0  0  0  0
    5.2890   -3.3950   45.2590 C   0  0  0  0  0  0  0  0  0  0  0  0
    6.7290   -1.5200   44.7570 C   0  0  0  0  0  0  0  0  0  0  0  0
    5.7540   -1.0050   43.9080 C   0  0  0  0  0  0  0  0  0  0  0  0
    4.5470   -1.6870   43.7320 C   0  0  0  0  0  0  0  0  0  0  0  0
    1.4470   -6.9740   45.1970 C   0  0  0  0  0  0  0  0  0  0  0  0
    0.0030   -7.3800   45.3920 C   0  0  0  0  0  0  0  0  0  0  0  0
   -0.8620   -7.4880   44.2930 C   0  0  0  0  0  0  0  0  0  0  0  0
   -0.4940   -7.6540   46.6740 C   0  0  0  0  0  0  0  0  0  0  0  0
   -2.1940   -7.8630   44.4730 C   0  0  0  0  0  0  0  0  0  0  0  0
   -1.8260   -8.0280   46.8520 C   0  0  0  0  0  0  0  0  0  0  0  0
   -2.6760   -8.1330   45.7520 C   0  0  0  0  0  0  0  0  0  0  0  0
  1  5  1  0
  1  7  1  0
  1  2  2  0
  2  3  1  0
  3  4  2  0
  3 13  1  0
  4  6  1  0
  5  6  2  0
  7 12  1  0
  7  9  2  0
  8 10  2  0
  8  9  1  0
 10 11  1  0
 11 12  2  0
 13 14  1  0
 14 15  2  0
 14 16  1  0
 15 17  1  0
 16 18  2  0
 17 19  2  0
 18 19  1  0
M  END
>  <vina_dock>  (859) 
-8.678

$$$$
O14757_PocketFlow_idx-in-all-generaetd-399
     RDKit          3D

 35 38  0  0  0  0  0  0  0  0999 V2000
    5.4840   -3.3490   45.6060 N   0  0  0  0  0  0  0  0  0  0  0  0
    5.1320   -3.5370   44.1880 C   0  0  0  0  0  0  0  0  0  0  0  0
    4.5110   -2.3240   43.5160 C   0  0  0  0  0  0  0  0  0  0  0  0
    2.5230   -1.3490   42.4380 C   0  0  0  0  0  0  0  0  0  0  0  0
    3.2400   -0.1570   42.2540 C   0  0  0  0  0  0  0  0  0  0  0  0
    3.1770   -2.4190   43.0750 C   0  0  0  0  0  0  0  0  0  0  0  0
    4.5600   -0.0400   42.6890 C   0  0  0  0  0  0  0  0  0  0  0  0
    5.1900   -1.1160   43.3140 C   0  0  0  0  0  0  0  0  0  0  0  0
    1.1330   -1.4770   41.9750 C   0  0  0  0  0  0  0  0  0  0  0  0
   -0.9660   -0.4570   41.2630 C   0  0  0  0  0  0  0  0  0  0  0  0
    0.3540   -0.3390   41.7090 C   0  0  0  0  0  0  0  0  0  0  0  0
   -1.5400   -1.7190   41.0790 C   0  0  0  0  0  0  0  0  0  0  0  0
   -0.7740   -2.8630   41.3300 C   0  0  0  0  0  0  0  0  0  0  0  0
    0.5470   -2.7370   41.7760 C   0  0  0  0  0  0  0  0  0  0  0  0
   -2.9440   -1.7930   40.5970 C   0  0  0  0  0  0  0  0  0  0  0  0
   -3.4230   -3.0170   40.2200 N   0  0  0  0  0  0  0  0  0  0  0  0
   -3.6660   -0.8050   40.5630 O   0  0  0  0  0  0  0  0  0  0  0  0
    4.4390   -3.7230   46.5730 C   0  0  0  0  0  0  0  0  0  0  0  0
    3.4530   -4.7520   46.0100 C   0  0  0  0  0  0  0  0  0  0  0  0
    2.0270   -4.2140   45.8770 C   0  0  0  0  0  0  0  0  0  0  0  0
    1.0680   -5.2860   45.4210 C   0  0  0  0  0  0  0  0  0  0  0  0
    0.8750   -5.5280   44.0540 C   0  0  0  0  0  0  0  0  0  0  0  0
    0.3440   -6.0400   46.3540 C   0  0  0  0  0  0  0  0  0  0  0  0
   -0.0230   -6.5080   43.6280 C   0  0  0  0  0  0  0  0  0  0  0  0
   -0.5510   -7.0220   45.9270 C   0  0  0  0  0  0  0  0  0  0  0  0
   -0.7360   -7.2550   44.5660 C   0  0  0  0  0  0  0  0  0  0  0  0
    6.7530   -2.9380   46.0050 C   0  0  0  0  0  0  0  0  0  0  0  0
    7.5500   -3.7020   46.8780 C   0  0  0  0  0  0  0  0  0  0  0  0
    7.3320   -1.7380   45.5530 C   0  0  0  0  0  0  0  0  0  0  0  0
    8.8290   -3.2940   47.2880 C   0  0  0  0  0  0  0  0  0  0  0  0
    8.6090   -1.3170   45.9530 C   0  0  0  0  0  0  0  0  0  0  0  0
    9.3640   -2.0950   46.8260 C   0  0  0  0  0  0  0  0  0  0  0  0
   10.7100   -1.6200   47.2220 C   0  0  0  0  0  0  0  0  0  0  0  0
   11.3760   -2.0490   48.1460 O   0  0  0  0  0  0  0  0  0  0  0  0
   11.1640   -0.6240   46.4390 O   0  0  0  0  0  0  0  0  0  0  0  0
  1  2  1  0
  1 27  1  0
  1 18  1  0
  2  3  1  0
  3  6  2  0
  3  8  1  0
  4  9  1  0
  4  5  2  0
  4  6  1  0
  5  7  1  0
  7  8  2  0
  9 11  2  0
  9 14  1  0
 10 12  2  0
 10 11  1  0
 12 15  1  0
 12 13  1  0
 13 14  2  0
 15 16  1  0
 15 17  2  0
 18 19  1  0
 19 20  1  0
 20 21  1  0
 21 22  2  0
 21 23  1  0
 22 24  1  0
 23 25  2  0
 24 26  2  0
 25 26  1  0
 27 29  1  0
 27 28  2  0
 28 30  1  0
 29 31  2  0
 30 32  2  0
 31 32  1  0
 32 33  1  0
 33 35  1  0
 33 34  2  0
M  END
>  <vina_dock>  (860) 
-9.311

$$$$
O14757_PocketFlow_idx-in-all-generaetd-477
     RDKit          3D

 25 27  0  0  0  0  0  0  0  0999 V2000
    6.0570   -2.3420   45.2170 C   0  0  0  0  0  0  0  0  0  0  0  0
    5.9640   -3.2270   46.2960 C   0  0  0  0  0  0  0  0  0  0  0  0
    4.9970   -2.2720   44.3000 C   0  0  0  0  0  0  0  0  0  0  0  0
    3.8500   -3.0680   44.4530 C   0  0  0  0  0  0  0  0  0  0  0  0
    3.7660   -3.9580   45.5470 C   0  0  0  0  0  0  0  0  0  0  0  0
    4.8290   -4.0250   46.4600 C   0  0  0  0  0  0  0  0  0  0  0  0
    2.7840   -2.9980   43.5450 C   0  0  0  0  0  0  0  0  0  0  0  0
    1.6500   -3.8010   43.7100 C   0  0  0  0  0  0  0  0  0  0  0  0
    1.5630   -4.6970   44.7780 C   0  0  0  0  0  0  0  0  0  0  0  0
    2.6200   -4.7570   45.6990 C   0  0  0  0  0  0  0  0  0  0  0  0
    7.2920   -1.4960   45.0220 C   0  0  0  0  0  0  0  0  0  0  0  0
    8.3310   -1.7530   46.1190 C   0  0  0  0  0  0  0  0  0  0  0  0
    9.3780   -0.7330   46.1050 N   0  0  0  0  0  0  0  0  0  0  0  0
    0.3460   -5.5080   44.9340 C   0  0  0  0  0  0  0  0  0  0  0  0
    0.0860   -6.5910   44.1850 C   0  0  0  0  0  0  0  0  0  0  0  0
   -1.0970   -7.4030   44.3590 C   0  0  0  0  0  0  0  0  0  0  0  0
   -1.6080   -7.8300   45.5280 C   0  0  0  0  0  0  0  0  0  0  0  0
   -1.1520   -7.5840   46.9450 C   0  0  2  0  0  0  0  0  0  0  0  0
   -0.0570   -8.4910   47.4830 C   0  0  0  0  0  0  0  0  0  0  0  0
    0.9900   -8.9480   46.6640 C   0  0  0  0  0  0  0  0  0  0  0  0
   -0.0890   -8.9260   48.8190 C   0  0  0  0  0  0  0  0  0  0  0  0
    1.9890   -9.7820   47.1740 C   0  0  0  0  0  0  0  0  0  0  0  0
    0.9100   -9.7600   49.3280 C   0  0  0  0  0  0  0  0  0  0  0  0
    1.9510  -10.1830   48.5070 C   0  0  0  0  0  0  0  0  0  0  0  0
   -2.3100   -7.5930   47.7770 O   0  0  0  0  0  0  0  0  0  0  0  0
  1  3  2  0
  1 11  1  0
  1  2  1  0
  2  6  2  0
  3  4  1  0
  4  7  2  0
  4  5  1  0
  5 10  2  0
  5  6  1  0
  7  8  1  0
  8  9  2  0
  9 14  1  0
  9 10  1  0
 11 12  1  0
 12 13  1  0
 14 15  2  3
 15 16  1  0
 16 17  2  3
 17 18  1  0
 18 19  1  0
 18 25  1  1
 19 20  2  0
 19 21  1  0
 20 22  1  0
 21 23  2  0
 22 24  2  0
 23 24  1  0
M  END
>  <vina_dock>  (861) 
-8.545

$$$$
O14757_PocketFlow_idx-in-all-generaetd-340
     RDKit          3D

 20 21  0  0  0  0  0  0  0  0999 V2000
    7.5480   -3.7200   46.8420 C   0  0  0  0  0  0  0  0  0  0  0  0
    7.1210   -2.9770   45.7390 C   0  0  0  0  0  0  0  0  0  0  0  0
    5.7870   -2.6020   45.6430 C   0  0  0  0  0  0  0  0  0  0  0  0
    6.6340   -4.0850   47.8300 C   0  0  0  0  0  0  0  0  0  0  0  0
    5.3460   -3.6980   47.7650 N   0  0  0  0  0  0  0  0  0  0  0  0
    4.9500   -2.9800   46.6850 C   0  0  0  0  0  0  0  0  0  0  0  0
    7.1170   -4.7920   48.9400 N   0  0  0  0  0  0  0  0  0  0  0  0
    6.7860   -6.1850   48.9640 C   0  0  2  0  0  0  0  0  0  0  0  0
    8.2710   -6.9930   48.3760 Cl  0  0  0  0  0  0  0  0  0  0  0  0
    5.7970   -6.6770   48.0310 N   0  0  0  0  0  0  0  0  0  0  0  0
    5.2790   -1.8080   44.5240 C   0  0  0  0  0  0  0  0  0  0  0  0
    4.1700   -2.1050   43.8280 C   0  0  0  0  0  0  0  0  0  0  0  0
    3.6360   -1.2620   42.6910 C   0  0  0  0  0  0  0  0  0  0  0  0
    3.2150   -3.2530   44.0580 C   0  0  0  0  0  0  0  0  0  0  0  0
    2.3420   -1.9180   42.3260 C   0  0  0  0  0  0  0  0  0  0  0  0
    2.1110   -3.0080   43.0770 C   0  0  0  0  0  0  0  0  0  0  0  0
    1.5190   -1.3270   41.2440 C   0  0  0  0  0  0  0  0  0  0  0  0
    1.8090   -0.0200   41.0250 F   0  0  0  0  0  0  0  0  0  0  0  0
    0.1960   -1.3960   41.5300 F   0  0  0  0  0  0  0  0  0  0  0  0
    1.7020   -1.9760   40.0670 F   0  0  0  0  0  0  0  0  0  0  0  0
  1  2  2  0
  1  4  1  0
  2  3  1  0
  3 11  1  0
  3  6  2  0
  4  5  2  0
  4  7  1  0
  5  6  1  0
  7  8  1  0
  8 10  1  6
  8  9  1  0
 11 12  1  0
 12 13  2  0
 12 14  1  0
 13 15  1  0
 14 16  1  0
 15 17  1  0
 15 16  2  0
 17 20  1  0
 17 18  1  0
 17 19  1  0
M  END
>  <vina_dock>  (862) 
-7.637

$$$$
O14757_PocketFlow_idx-in-all-generaetd-748
     RDKit          3D

 12 12  0  0  0  0  0  0  0  0999 V2000
    1.3790   -4.8480   45.1830 C   0  0  0  0  0  0  0  0  0  0  0  0
    1.8680   -3.7030   44.5650 C   0  0  0  0  0  0  0  0  0  0  0  0
    2.1840   -5.9730   45.3470 C   0  0  0  0  0  0  0  0  0  0  0  0
    3.1860   -3.6730   44.0980 C   0  0  0  0  0  0  0  0  0  0  0  0
    4.0010   -4.7990   44.2630 C   0  0  0  0  0  0  0  0  0  0  0  0
    3.5000   -5.9450   44.8850 C   0  0  0  0  0  0  0  0  0  0  0  0
    0.0870   -4.8320   45.6210 O   0  0  0  0  0  0  0  0  0  0  0  0
    3.7220   -2.4770   43.4450 C   0  0  0  0  0  0  0  0  0  0  0  0
    4.5670   -1.5930   44.0110 C   0  0  0  0  0  0  0  0  0  0  0  0
    5.0460   -0.3970   43.2280 C   0  0  0  0  0  0  0  0  0  0  0  0
    5.0690   -1.6770   45.4380 C   0  0  0  0  0  0  0  0  0  0  0  0
    6.5230   -2.1220   45.5220 C   0  0  0  0  0  0  0  0  0  0  0  0
  1  2  2  0
  1  3  1  0
  1  7  1  0
  2  4  1  0
  3  6  2  0
  4  8  1  0
  4  5  2  0
  5  6  1  0
  8  9  2  3
  9 10  1  0
  9 11  1  0
 11 12  1  0
M  END
>  <vina_dock>  (863) 
-6.134

$$$$
O14757_PocketFlow_idx-in-all-generaetd-302
     RDKit          3D

 25 27  0  0  0  0  0  0  0  0999 V2000
    1.4690   -6.9470   45.1150 C   0  0  0  0  0  0  0  0  0  0  0  0
    1.2710   -5.6730   45.4850 C   0  0  0  0  0  0  0  0  0  0  0  0
    0.8060   -8.0790   45.8170 C   0  0  0  0  0  0  0  0  0  0  0  0
   -0.4180   -8.2120   45.7670 O   0  0  0  0  0  0  0  0  0  0  0  0
    1.6910   -9.0290   46.6170 C   0  0  0  0  0  0  0  0  0  0  0  0
    2.6140   -9.7540   45.7350 N   0  0  0  0  0  0  0  0  0  0  0  0
    1.9240   -4.5750   44.7700 C   0  0  0  0  0  0  0  0  0  0  0  0
    3.1960   -4.1370   45.1630 C   0  0  0  0  0  0  0  0  0  0  0  0
    1.2850   -3.9480   43.7030 C   0  0  0  0  0  0  0  0  0  0  0  0
    3.8550   -3.0690   44.5080 C   0  0  0  0  0  0  0  0  0  0  0  0
    1.9070   -2.8900   43.0390 C   0  0  0  0  0  0  0  0  0  0  0  0
    5.1500   -2.6010   44.8810 C   0  0  0  0  0  0  0  0  0  0  0  0
    3.1790   -2.4410   43.4280 C   0  0  0  0  0  0  0  0  0  0  0  0
    5.7110   -1.5290   44.1690 C   0  0  0  0  0  0  0  0  0  0  0  0
    3.7840   -1.3740   42.7470 C   0  0  0  0  0  0  0  0  0  0  0  0
    6.9290   -1.0660   44.4990 F   0  0  0  0  0  0  0  0  0  0  0  0
    5.0450   -0.9180   43.1170 C   0  0  0  0  0  0  0  0  0  0  0  0
    5.9180   -3.2040   45.9820 C   0  0  0  0  0  0  0  0  0  0  0  0
    5.2830   -3.5770   47.1770 C   0  0  0  0  0  0  0  0  0  0  0  0
    7.3000   -3.4160   45.8590 C   0  0  0  0  0  0  0  0  0  0  0  0
    6.0090   -4.1430   48.2280 C   0  0  0  0  0  0  0  0  0  0  0  0
    8.0210   -3.9810   46.9110 C   0  0  0  0  0  0  0  0  0  0  0  0
    7.3820   -4.3450   48.0950 C   0  0  0  0  0  0  0  0  0  0  0  0
    9.7180   -4.2250   46.7480 Cl  0  0  0  0  0  0  0  0  0  0  0  0
    0.4620   -5.2730   46.5240 O   0  0  0  0  0  0  0  0  0  0  0  0
  1  2  2  3
  1  3  1  0
  2  7  1  0
  2 25  1  0
  3  4  2  0
  3  5  1  0
  5  6  1  0
  7  9  2  0
  7  8  1  0
  8 10  2  0
  9 11  1  0
 10 13  1  0
 10 12  1  0
 11 13  2  0
 12 14  2  0
 12 18  1  0
 13 15  1  0
 14 17  1  0
 14 16  1  0
 15 17  2  0
 18 20  1  0
 18 19  2  0
 19 21  1  0
 20 22  2  0
 21 23  2  0
 22 24  1  0
 22 23  1  0
M  END
>  <vina_dock>  (864) 
-9.81

$$$$
O14757_PocketFlow_idx-in-all-generaetd-827
     RDKit          3D

 29 32  0  0  0  0  0  0  0  0999 V2000
    7.9740   -1.9260   46.0770 C   0  0  0  0  0  0  0  0  0  0  0  0
    7.7610   -3.0300   46.9100 C   0  0  0  0  0  0  0  0  0  0  0  0
    6.9940   -1.6040   45.1230 C   0  0  0  0  0  0  0  0  0  0  0  0
    5.8150   -2.3590   45.0000 C   0  0  0  0  0  0  0  0  0  0  0  0
    5.6120   -3.4650   45.8480 C   0  0  0  0  0  0  0  0  0  0  0  0
    6.5940   -3.7910   46.7960 C   0  0  0  0  0  0  0  0  0  0  0  0
    4.8380   -2.0420   44.0450 C   0  0  0  0  0  0  0  0  0  0  0  0
    3.6610   -2.8040   43.9300 C   0  0  0  0  0  0  0  0  0  0  0  0
    3.4380   -3.9050   44.7850 C   0  0  0  0  0  0  0  0  0  0  0  0
    4.4330   -4.2200   45.7260 C   0  0  0  0  0  0  0  0  0  0  0  0
    9.2420   -1.1140   46.1840 C   0  0  2  0  0  0  0  0  0  0  0  0
   10.3390   -1.7710   45.7250 F   0  0  0  0  0  0  0  0  0  0  0  0
    9.5520   -0.7770   47.5630 N   0  0  0  0  0  0  0  0  0  0  0  0
    2.6560   -2.4540   42.8910 C   0  0  0  0  0  0  0  0  0  0  0  0
    1.6630   -3.1030   42.6120 O   0  0  0  0  0  0  0  0  0  0  0  0
    2.9310   -1.3050   42.2450 O   0  0  0  0  0  0  0  0  0  0  0  0
    2.2520   -4.6730   44.7140 N   0  0  0  0  0  0  0  0  0  0  0  0
    1.9660   -5.9870   45.1370 C   0  0  0  0  0  0  0  0  0  0  0  0
    0.6500   -6.4590   44.9960 C   0  0  0  0  0  0  0  0  0  0  0  0
    2.9290   -6.8620   45.6440 C   0  0  0  0  0  0  0  0  0  0  0  0
    0.2810   -7.7670   45.3580 C   0  0  0  0  0  0  0  0  0  0  0  0
    2.5890   -8.1640   46.0130 C   0  0  0  0  0  0  0  0  0  0  0  0
    1.2760   -8.6120   45.8710 C   0  0  0  0  0  0  0  0  0  0  0  0
   -1.1060   -8.2370   45.2000 C   0  0  0  0  0  0  0  0  0  0  0  0
   -1.6800   -9.1250   46.1240 C   0  0  0  0  0  0  0  0  0  0  0  0
   -1.8950   -7.8100   44.1190 C   0  0  0  0  0  0  0  0  0  0  0  0
   -2.9950   -9.5710   45.9740 C   0  0  0  0  0  0  0  0  0  0  0  0
   -3.2110   -8.2550   43.9660 C   0  0  0  0  0  0  0  0  0  0  0  0
   -3.7610   -9.1360   44.8950 C   0  0  0  0  0  0  0  0  0  0  0  0
  1  3  2  0
  1 11  1  0
  1  2  1  0
  2  6  2  0
  3  4  1  0
  4  7  2  0
  4  5  1  0
  5 10  2  0
  5  6  1  0
  7  8  1  0
  8 14  1  0
  8  9  2  0
  9 17  1  0
  9 10  1  0
 11 12  1  0
 11 13  1  1
 14 16  1  0
 14 15  2  0
 17 18  1  0
 18 19  2  0
 18 20  1  0
 19 21  1  0
 20 22  2  0
 21 24  1  0
 21 23  2  0
 22 23  1  0
 24 26  1  0
 24 25  2  0
 25 27  1  0
 26 28  2  0
 27 29  2  0
 28 29  1  0
M  END
>  <vina_dock>  (865) 
-9.523

$$$$
O14757_PocketFlow_idx-in-all-generaetd-542
     RDKit          3D

 26 29  0  0  0  0  0  0  0  0999 V2000
    6.1980   -2.0800   44.8280 C   0  0  0  0  0  0  0  0  0  0  0  0
    5.1570   -3.0030   45.0050 C   0  0  0  0  0  0  0  0  0  0  0  0
    3.9640   -2.8970   44.2760 C   0  0  0  0  0  0  0  0  0  0  0  0
    3.8740   -1.8440   43.3690 C   0  0  0  0  0  0  0  0  0  0  0  0
    5.9780   -1.0720   43.8900 C   0  0  0  0  0  0  0  0  0  0  0  0
    4.8500   -0.9330   43.1530 N   0  0  0  0  0  0  0  0  0  0  0  0
    7.4500   -2.1720   45.5940 C   0  0  0  0  0  0  0  0  0  0  0  0
    9.0370   -3.4710   46.9230 C   0  0  0  0  0  0  0  0  0  0  0  0
    9.8420   -2.3460   47.0560 C   0  0  0  0  0  0  0  0  0  0  0  0
    7.8470   -3.3810   46.1930 C   0  0  0  0  0  0  0  0  0  0  0  0
    9.4770   -1.1400   46.4750 C   0  0  0  0  0  0  0  0  0  0  0  0
    8.2870   -1.0530   45.7480 C   0  0  0  0  0  0  0  0  0  0  0  0
   11.0110   -2.3860   47.7580 O   0  0  0  0  0  0  0  0  0  0  0  0
    2.8680   -3.8600   44.4450 C   0  0  0  0  0  0  0  0  0  0  0  0
    3.0010   -4.8870   45.3940 C   0  0  0  0  0  0  0  0  0  0  0  0
    1.6770   -3.8070   43.7000 C   0  0  0  0  0  0  0  0  0  0  0  0
    1.9820   -5.8240   45.5930 C   0  0  0  0  0  0  0  0  0  0  0  0
    1.4130   -2.6000   42.4870 Cl  0  0  0  0  0  0  0  0  0  0  0  0
    0.6580   -4.7470   43.9020 C   0  0  0  0  0  0  0  0  0  0  0  0
    0.7930   -5.7700   44.8520 C   0  0  0  0  0  0  0  0  0  0  0  0
   -0.2800   -6.7560   45.0630 C   0  0  0  0  0  0  0  0  0  0  0  0
   -1.1290   -7.1400   44.0110 C   0  0  0  0  0  0  0  0  0  0  0  0
   -0.4860   -7.3430   46.3230 C   0  0  0  0  0  0  0  0  0  0  0  0
   -2.1480   -8.0760   44.2100 C   0  0  0  0  0  0  0  0  0  0  0  0
   -1.5050   -8.2800   46.5240 C   0  0  0  0  0  0  0  0  0  0  0  0
   -2.3340   -8.6460   45.4680 C   0  0  0  0  0  0  0  0  0  0  0  0
  1  5  1  0
  1  2  2  0
  1  7  1  0
  2  3  1  0
  3  4  2  0
  3 14  1  0
  4  6  1  0
  5  6  2  0
  7 12  2  0
  7 10  1  0
  8 10  2  0
  8  9  1  0
  9 11  2  0
  9 13  1  0
 11 12  1  0
 14 16  1  0
 14 15  2  0
 15 17  1  0
 16 18  1  0
 16 19  2  0
 17 20  2  0
 19 20  1  0
 20 21  1  0
 21 22  2  0
 21 23  1  0
 22 24  1  0
 23 25  2  0
 24 26  2  0
 25 26  1  0
M  END
>  <vina_dock>  (866) 
-9.859

$$$$
O14757_PocketFlow_idx-in-all-generaetd-546
     RDKit          3D

 18 20  0  0  0  0  0  0  0  0999 V2000
    7.6980   -1.4920   45.3790 C   0  0  0  0  0  0  0  0  0  0  0  0
    8.4650   -2.0900   46.3790 C   0  0  0  0  0  0  0  0  0  0  0  0
    6.4390   -2.0100   45.0320 C   0  0  0  0  0  0  0  0  0  0  0  0
    5.9510   -3.1490   45.7080 C   0  0  0  0  0  0  0  0  0  0  0  0
    6.7360   -3.7400   46.7110 C   0  0  0  0  0  0  0  0  0  0  0  0
    7.9850   -3.2140   47.0450 C   0  0  0  0  0  0  0  0  0  0  0  0
    4.6930   -3.6670   45.3610 C   0  0  0  0  0  0  0  0  0  0  0  0
    3.9100   -3.0750   44.3560 C   0  0  0  0  0  0  0  0  0  0  0  0
    2.6510   -3.5920   44.0120 C   0  0  0  0  0  0  0  0  0  0  0  0
    1.8820   -2.9950   43.0100 C   0  0  0  0  0  0  0  0  0  0  0  0
    2.3570   -1.8700   42.3260 C   0  0  0  0  0  0  0  0  0  0  0  0
    3.6130   -1.3460   42.6750 C   0  0  0  0  0  0  0  0  0  0  0  0
    4.3970   -1.9370   43.6800 C   0  0  0  0  0  0  0  0  0  0  0  0
    5.6550   -1.4180   44.0260 C   0  0  0  0  0  0  0  0  0  0  0  0
    1.5210   -1.2070   41.2590 C   0  0  0  0  0  0  0  0  0  0  0  0
    1.8670    0.0910   41.0360 F   0  0  0  0  0  0  0  0  0  0  0  0
    1.6270   -1.8340   40.0550 F   0  0  0  0  0  0  0  0  0  0  0  0
    0.1910   -1.1890   41.5570 F   0  0  0  0  0  0  0  0  0  0  0  0
  1  3  2  0
  1  2  1  0
  2  6  2  0
  3 14  1  0
  3  4  1  0
  4  7  1  0
  4  5  2  0
  5  6  1  0
  7  8  2  0
  8 13  1  0
  8  9  1  0
  9 10  2  0
 10 11  1  0
 11 15  1  0
 11 12  2  0
 12 13  1  0
 13 14  2  0
 15 17  1  0
 15 16  1  0
 15 18  1  0
M  END
>  <vina_dock>  (867) 
-9.621

$$$$
O14757_PocketFlow_idx-in-all-generaetd-592
     RDKit          3D

 24 27  0  0  0  0  0  0  0  0999 V2000
    3.8640   -4.0580   44.8890 C   0  0  0  0  0  0  0  0  0  0  0  0
    2.7580   -3.4380   44.3000 C   0  0  0  0  0  0  0  0  0  0  0  0
    1.5310   -4.1030   44.2170 C   0  0  0  0  0  0  0  0  0  0  0  0
    1.3860   -5.4070   44.7140 C   0  0  0  0  0  0  0  0  0  0  0  0
    0.1580   -6.0900   44.6390 C   0  0  0  0  0  0  0  0  0  0  0  0
    0.0080   -7.3970   45.1300 C   0  0  0  0  0  0  0  0  0  0  0  0
    1.1270   -8.0180   45.7030 C   0  0  0  0  0  0  0  0  0  0  0  0
    2.3560   -7.3540   45.7860 C   0  0  0  0  0  0  0  0  0  0  0  0
    2.4990   -6.0490   45.2950 C   0  0  0  0  0  0  0  0  0  0  0  0
    3.7280   -5.3670   45.3710 C   0  0  0  0  0  0  0  0  0  0  0  0
    5.1780   -3.4060   44.9670 C   0  0  0  0  0  0  0  0  0  0  0  0
    6.0250   -3.5550   46.0000 C   0  0  0  0  0  0  0  0  0  0  0  0
    7.3400   -2.9030   46.0800 C   0  0  0  0  0  0  0  0  0  0  0  0
    7.4460   -1.5500   45.7350 C   0  0  0  0  0  0  0  0  0  0  0  0
    8.4800   -3.5730   46.5440 C   0  0  0  0  0  0  0  0  0  0  0  0
    8.6730   -0.8860   45.8250 C   0  0  0  0  0  0  0  0  0  0  0  0
    9.7070   -2.9090   46.6340 C   0  0  0  0  0  0  0  0  0  0  0  0
    9.8020   -1.5670   46.2720 C   0  0  0  0  0  0  0  0  0  0  0  0
   -1.2850   -8.0960   45.0440 C   0  0  0  0  0  0  0  0  0  0  0  0
   -2.1740   -7.8450   43.9860 C   0  0  0  0  0  0  0  0  0  0  0  0
   -1.6660   -9.0340   46.0180 C   0  0  0  0  0  0  0  0  0  0  0  0
   -3.4020   -8.5070   43.9050 C   0  0  0  0  0  0  0  0  0  0  0  0
   -2.8940   -9.6980   45.9370 C   0  0  0  0  0  0  0  0  0  0  0  0
   -3.7610   -9.4340   44.8800 C   0  0  0  0  0  0  0  0  0  0  0  0
  1  2  2  0
  1 11  1  0
  1 10  1  0
  2  3  1  0
  3  4  2  0
  4  5  1  0
  4  9  1  0
  5  6  2  0
  6 19  1  0
  6  7  1  0
  7  8  2  0
  8  9  1  0
  9 10  2  0
 11 12  2  3
 12 13  1  0
 13 14  2  0
 13 15  1  0
 14 16  1  0
 15 17  2  0
 16 18  2  0
 17 18  1  0
 19 20  2  0
 19 21  1  0
 20 22  1  0
 21 23  2  0
 22 24  2  0
 23 24  1  0
M  END
>  <vina_dock>  (868) 
-4.054

$$$$
O14757_PocketFlow_idx-in-all-generaetd-945
     RDKit          3D

 26 26  0  0  0  0  0  0  0  0999 V2000
    5.6950   -3.0120   45.4340 C   0  0  0  0  0  0  0  0  0  0  0  0
    4.6300   -3.7070   46.0360 C   0  0  0  0  0  0  0  0  0  0  0  0
    4.8590   -4.3740   47.2570 C   0  0  0  0  0  0  0  0  0  0  0  0
    6.1060   -4.3430   47.8890 C   0  0  0  0  0  0  0  0  0  0  0  0
    7.1480   -3.6380   47.2940 C   0  0  0  0  0  0  0  0  0  0  0  0
    6.9440   -2.9790   46.0780 C   0  0  0  0  0  0  0  0  0  0  0  0
    5.5380   -2.2950   44.1620 C   0  0  0  0  0  0  0  0  0  0  0  0
    5.1390   -1.0160   44.1000 C   0  0  0  0  0  0  0  0  0  0  0  0
    4.9770   -0.2570   42.8130 C   0  0  0  0  0  0  0  0  0  0  0  0
    3.5190    0.1180   42.5190 C   0  0  0  0  0  0  0  0  0  0  0  0
    2.6860   -1.0540   41.9850 C   0  0  0  0  0  0  0  0  0  0  0  0
    1.2880   -0.6040   41.6550 C   0  0  0  0  0  0  0  0  0  0  0  0
    0.1690   -1.3390   41.5390 C   0  0  0  0  0  0  0  0  0  0  0  0
    0.0660   -2.8150   41.6770 C   0  0  0  0  0  0  0  0  0  0  0  0
    0.0140   -3.2340   42.9710 N   0  0  0  0  0  0  0  0  0  0  0  0
    0.0180   -3.6080   40.7500 O   0  0  0  0  0  0  0  0  0  0  0  0
    3.2600   -3.8230   45.4030 C   0  0  0  0  0  0  0  0  0  0  0  0
    2.8250   -5.2530   45.2510 C   0  0  0  0  0  0  0  0  0  0  0  0
    1.5490   -5.6650   45.3460 C   0  0  0  0  0  0  0  0  0  0  0  0
    1.1010   -7.0850   45.1950 C   0  0  0  0  0  0  0  0  0  0  0  0
    0.0910   -7.1240   44.1390 N   0  0  0  0  0  0  0  0  0  0  0  0
   -1.0620   -7.5250   44.5340 C   0  0  0  0  0  0  0  0  0  0  0  0
   -2.1760   -7.6510   43.7510 N   0  0  0  0  0  0  0  0  0  0  0  0
   -3.4340   -8.1000   44.3040 C   0  0  0  0  0  0  0  0  0  0  0  0
    6.1680   -5.0350   49.0660 O   0  0  0  0  0  0  0  0  0  0  0  0
    6.1550   -6.4540   48.9770 C   0  0  0  0  0  0  0  0  0  0  0  0
  1  7  1  0
  1  2  2  0
  1  6  1  0
  2 17  1  0
  2  3  1  0
  3  4  2  0
  4  5  1  0
  4 25  1  0
  5  6  2  0
  7  8  2  3
  8  9  1  0
  9 10  1  0
 10 11  1  0
 11 12  1  0
 12 13  2  3
 13 14  1  0
 14 16  2  0
 14 15  1  0
 17 18  1  0
 18 19  2  3
 19 20  1  0
 20 21  1  0
 21 22  1  0
 22 23  1  0
 23 24  1  0
 25 26  1  0
M  END
>  <vina_dock>  (869) 
-7.561

$$$$
O14757_PocketFlow_idx-in-all-generaetd-219
     RDKit          3D

 11 11  0  0  0  0  0  0  0  0999 V2000
    4.3410   -1.2670   42.8800 C   0  0  0  0  0  0  0  0  0  0  0  0
    3.0620   -1.4910   42.3740 C   0  0  0  0  0  0  0  0  0  0  0  0
    2.3010   -2.5720   42.8440 C   0  0  0  0  0  0  0  0  0  0  0  0
    4.8740   -2.1110   43.8460 C   0  0  0  0  0  0  0  0  0  0  0  0
    2.8520   -3.4230   43.8180 C   0  0  0  0  0  0  0  0  0  0  0  0
    4.1360   -3.1900   44.3200 C   0  0  0  0  0  0  0  0  0  0  0  0
    5.0540   -0.2300   42.4210 F   0  0  0  0  0  0  0  0  0  0  0  0
    6.1040   -1.8930   44.3290 F   0  0  0  0  0  0  0  0  0  0  0  0
    0.9270   -2.8380   42.2820 C   0  0  0  0  0  0  0  0  0  0  0  0
    0.3740   -3.9870   42.7590 F   0  0  0  0  0  0  0  0  0  0  0  0
    0.9230   -2.9600   40.9260 F   0  0  0  0  0  0  0  0  0  0  0  0
  1  2  2  0
  1  7  1  0
  1  4  1  0
  2  3  1  0
  3  9  1  0
  3  5  2  0
  4  6  2  0
  4  8  1  0
  5  6  1  0
  9 11  1  0
  9 10  1  0
M  END
>  <vina_dock>  (870) 
-5.853

$$$$
O14757_PocketFlow_idx-in-all-generaetd-891
     RDKit          3D

  9  9  0  0  0  0  0  0  0  0999 V2000
    5.2020   -0.7700   43.2910 C   0  0  0  0  0  0  0  0  0  0  0  0
    5.9610   -1.4090   44.2700 C   0  0  0  0  0  0  0  0  0  0  0  0
    3.9590   -1.2900   42.9190 C   0  0  0  0  0  0  0  0  0  0  0  0
    3.4670   -2.4590   43.5130 C   0  0  0  0  0  0  0  0  0  0  0  0
    4.2320   -3.0830   44.5070 C   0  0  0  0  0  0  0  0  0  0  0  0
    5.4750   -2.5640   44.8790 C   0  0  0  0  0  0  0  0  0  0  0  0
    2.1420   -2.9530   43.1150 C   0  0  0  0  0  0  0  0  0  0  0  0
    1.4070   -2.4300   42.1210 C   0  0  0  0  0  0  0  0  0  0  0  0
    0.0550   -2.9380   41.7340 C   0  0  0  0  0  0  0  0  0  0  0  0
  1  3  2  0
  1  2  1  0
  2  6  2  0
  3  4  1  0
  4  7  1  0
  4  5  2  0
  5  6  1  0
  7  8  2  3
  8  9  1  0
M  END
>  <vina_dock>  (871) 
-5.574

$$$$
O14757_PocketFlow_idx-in-all-generaetd-133
     RDKit          3D

 30 32  0  0  0  0  0  0  0  0999 V2000
    4.1500   -2.2680   43.5250 C   0  0  0  0  0  0  0  0  0  0  0  0
    3.4370   -3.5510   43.9190 C   0  0  0  0  0  0  0  0  0  0  0  0
    2.0320   -3.7450   43.8230 C   0  0  0  0  0  0  0  0  0  0  0  0
    1.4770   -4.9790   44.2510 C   0  0  0  0  0  0  0  0  0  0  0  0
    2.3100   -5.9560   44.8110 C   0  0  0  0  0  0  0  0  0  0  0  0
    4.2430   -4.5840   44.4360 C   0  0  0  0  0  0  0  0  0  0  0  0
    3.6850   -5.7750   44.8820 C   0  0  0  0  0  0  0  0  0  0  0  0
    1.1170   -2.6690   43.2630 C   0  0  0  0  0  0  0  0  0  0  0  0
    1.1420   -2.6180   41.7340 C   0  0  0  0  0  0  0  0  0  0  0  0
    1.0720   -1.1890   41.2410 C   0  0  0  0  0  0  0  0  0  0  0  0
    1.9670   -0.4280   41.9200 F   0  0  0  0  0  0  0  0  0  0  0  0
   -0.1550   -0.6800   41.5150 F   0  0  0  0  0  0  0  0  0  0  0  0
    0.0890   -5.1800   44.3480 N   0  0  0  0  0  0  0  0  0  0  0  0
    4.8510   -1.5400   44.6780 C   0  0  0  0  0  0  0  0  0  0  0  0
    6.3500   -1.6520   44.6370 C   0  0  0  0  0  0  0  0  0  0  0  0
    7.2370   -2.2200   45.4730 C   0  0  0  0  0  0  0  0  0  0  0  0
    7.0930   -2.9820   46.7190 C   0  0  0  0  0  0  0  0  0  0  0  0
    8.2310   -3.2490   47.4020 C   0  0  0  0  0  0  0  0  0  0  0  0
    5.7110   -3.4510   47.1450 C   0  0  0  0  0  0  0  0  0  0  0  0
    8.3500   -3.9850   48.7020 C   0  0  0  0  0  0  0  0  0  0  0  0
    5.5830   -4.4050   48.2460 N   0  0  0  0  0  0  0  0  0  0  0  0
    7.8200   -5.4330   48.7150 C   0  0  1  0  0  0  0  0  0  0  0  0
    6.4200   -5.5930   48.0550 C   0  0  1  0  0  0  0  0  0  0  0  0
    8.8350   -6.3800   48.0550 C   0  0  0  0  0  0  0  0  0  0  0  0
    5.6950   -6.8230   48.6010 C   0  0  0  0  0  0  0  0  0  0  0  0
    5.5920   -7.0660   49.9810 C   0  0  0  0  0  0  0  0  0  0  0  0
    5.1150   -7.7470   47.7150 C   0  0  0  0  0  0  0  0  0  0  0  0
    4.9330   -8.2010   50.4600 C   0  0  0  0  0  0  0  0  0  0  0  0
    4.4590   -8.8830   48.1960 C   0  0  0  0  0  0  0  0  0  0  0  0
    4.3690   -9.1090   49.5680 C   0  0  0  0  0  0  0  0  0  0  0  0
  1  2  1  0
  1 14  1  0
  2  3  2  0
  2  6  1  0
  3  8  1  0
  3  4  1  0
  4 13  1  0
  4  5  2  0
  5  7  1  0
  6  7  2  0
  8  9  1  0
  9 10  1  0
 10 12  1  0
 10 11  1  0
 14 15  1  0
 15 16  2  3
 16 17  1  0
 17 19  1  0
 17 18  2  0
 18 20  1  0
 19 21  1  0
 20 22  1  0
 21 23  1  0
 22 23  1  0
 22 24  1  6
 23 25  1  1
 25 27  1  0
 25 26  2  0
 26 28  1  0
 27 29  2  0
 28 30  2  0
 29 30  1  0
M  END
>  <vina_dock>  (872) 
-8.348

$$$$
O14757_PocketFlow_idx-in-all-generaetd-118
     RDKit          3D

 14 15  0  0  0  0  0  0  0  0999 V2000
    4.4260   -4.0570   45.4290 C   0  0  0  0  0  0  0  0  0  0  0  0
    5.4060   -4.4440   46.1890 N   0  0  0  0  0  0  0  0  0  0  0  0
    4.5850   -2.8590   44.5690 C   0  0  0  0  0  0  0  0  0  0  0  0
    3.8660   -1.5010   42.7080 C   0  0  0  0  0  0  0  0  0  0  0  0
    3.6940   -2.6230   43.5190 C   0  0  0  0  0  0  0  0  0  0  0  0
    4.9290   -0.6270   42.9440 C   0  0  0  0  0  0  0  0  0  0  0  0
    5.8250   -0.8720   43.9860 C   0  0  0  0  0  0  0  0  0  0  0  0
    5.6580   -1.9930   44.8000 C   0  0  0  0  0  0  0  0  0  0  0  0
    3.1450   -4.8230   45.4190 C   0  0  0  0  0  0  0  0  0  0  0  0
    3.1440   -6.1310   44.9190 C   0  0  0  0  0  0  0  0  0  0  0  0
    1.9530   -4.2770   45.9150 C   0  0  0  0  0  0  0  0  0  0  0  0
    1.9640   -6.8780   44.8960 C   0  0  0  0  0  0  0  0  0  0  0  0
    0.7750   -5.0270   45.8900 C   0  0  0  0  0  0  0  0  0  0  0  0
    0.7800   -6.3240   45.3780 C   0  0  0  0  0  0  0  0  0  0  0  0
  1  3  1  0
  1  9  1  0
  1  2  2  3
  3  5  2  0
  3  8  1  0
  4  6  2  0
  4  5  1  0
  6  7  1  0
  7  8  2  0
  9 10  2  0
  9 11  1  0
 10 12  1  0
 11 13  2  0
 12 14  2  0
 13 14  1  0
M  END
>  <vina_dock>  (873) 
-6.688

$$$$
O14757_PocketFlow_idx-in-all-generaetd-71
     RDKit          3D

 15 14  0  0  0  0  0  0  0  0999 V2000
    4.2250   -3.7740   44.2460 C   0  0  0  0  0  0  0  0  0  0  0  0
    2.6930   -3.7620   44.2610 C   0  0  0  0  0  0  0  0  0  0  0  0
    2.1030   -5.0030   44.9110 C   0  0  0  0  0  0  0  0  0  0  0  0
    3.0890   -6.1040   45.1990 C   0  0  0  0  0  0  0  0  0  0  0  0
    0.7790   -5.0710   45.1580 C   0  0  0  0  0  0  0  0  0  0  0  0
    0.0060   -6.1810   45.7980 C   0  0  0  0  0  0  0  0  0  0  0  0
   -1.1040   -5.6180   46.5520 N   0  0  0  0  0  0  0  0  0  0  0  0
    4.7930   -2.6950   45.1260 C   0  0  0  0  0  0  0  0  0  0  0  0
    5.2410   -1.4880   44.7400 C   0  0  0  0  0  0  0  0  0  0  0  0
    5.2260   -0.9090   43.3530 C   0  0  0  0  0  0  0  0  0  0  0  0
    3.8870   -0.4080   42.8800 C   0  0  0  0  0  0  0  0  0  0  0  0
    3.0530   -0.9970   42.0060 C   0  0  0  0  0  0  0  0  0  0  0  0
    1.7830   -0.4160   41.6300 C   0  0  0  0  0  0  0  0  0  0  0  0
    0.6140   -1.0640   41.5060 C   0  0  0  0  0  0  0  0  0  0  0  0
    0.3240   -2.5160   41.7180 C   0  0  0  0  0  0  0  0  0  0  0  0
  1  2  1  0
  1  8  1  0
  2  3  1  0
  3  5  2  3
  3  4  1  0
  5  6  1  0
  6  7  1  0
  8  9  2  3
  9 10  1  0
 10 11  1  0
 11 12  2  3
 12 13  1  0
 13 14  2  3
 14 15  1  0
M  END
>  <vina_dock>  (874) 
-6.207

$$$$
O14757_PocketFlow_idx-in-all-generaetd-430
     RDKit          3D

 35 37  0  0  0  0  0  0  0  0999 V2000
    3.9370   -4.3880   44.7520 C   0  0  0  0  0  0  0  0  0  0  0  0
    5.1460   -4.0690   45.3950 C   0  0  0  0  0  0  0  0  0  0  0  0
    5.7930   -2.8360   45.1940 C   0  0  0  0  0  0  0  0  0  0  0  0
    3.3730   -3.4490   43.8760 C   0  0  0  0  0  0  0  0  0  0  0  0
    4.0110   -2.2230   43.6440 C   0  0  0  0  0  0  0  0  0  0  0  0
    5.2020   -1.9180   44.3130 C   0  0  0  0  0  0  0  0  0  0  0  0
    3.2310   -5.7160   44.9970 C   0  0  1  0  0  0  0  0  0  0  0  0
    3.8640   -6.4560   46.1830 C   0  0  0  0  0  0  0  0  0  0  0  0
    1.7110   -5.5070   45.1800 C   0  0  0  0  0  0  0  0  0  0  0  0
    0.9170   -6.7740   44.9990 C   0  0  0  0  0  0  0  0  0  0  0  0
   -0.4030   -6.8690   45.2280 C   0  0  0  0  0  0  0  0  0  0  0  0
   -1.1970   -8.1310   45.0360 C   0  0  2  0  0  0  0  0  0  0  0  0
   -2.4440   -7.9470   44.1670 C   0  0  0  0  0  0  0  0  0  0  0  0
   -1.7790   -8.6640   46.3320 C   0  0  0  0  0  0  0  0  0  0  0  0
   -3.4150   -8.9660   44.6230 N   0  0  0  0  0  0  0  0  0  0  0  0
   -3.0110   -9.3150   45.8030 C   0  0  0  0  0  0  0  0  0  0  0  0
    7.0510   -2.5180   45.8930 C   0  0  0  0  0  0  0  0  0  0  0  0
    7.8380   -1.4210   45.5060 C   0  0  0  0  0  0  0  0  0  0  0  0
    7.5050   -3.3050   46.9640 C   0  0  0  0  0  0  0  0  0  0  0  0
    9.0320   -1.1180   46.1670 C   0  0  0  0  0  0  0  0  0  0  0  0
    8.7000   -3.0060   47.6260 C   0  0  0  0  0  0  0  0  0  0  0  0
    9.4730   -1.9050   47.2370 C   0  0  0  0  0  0  0  0  0  0  0  0
   10.7720   -1.5850   47.9390 C   0  0  0  0  0  0  0  0  0  0  0  0
   11.9550   -1.6930   47.0180 C   0  0  0  0  0  0  0  0  0  0  0  0
   12.5520   -2.7990   46.5480 C   0  0  0  0  0  0  0  0  0  0  0  0
   12.1850   -4.1650   46.8380 C   0  0  0  0  0  0  0  0  0  0  0  0
   11.4000   -4.8890   46.0310 C   0  0  0  0  0  0  0  0  0  0  0  0
    3.4420   -1.2060   42.7180 C   0  0  0  0  0  0  0  0  0  0  0  0
    2.1560   -1.4350   42.2730 N   0  0  0  0  0  0  0  0  0  0  0  0
    4.1190   -0.2510   42.3540 O   0  0  0  0  0  0  0  0  0  0  0  0
    1.5190   -0.5440   41.3180 C   0  0  0  0  0  0  0  0  0  0  0  0
    0.0150   -0.7710   41.2350 C   0  0  0  0  0  0  0  0  0  0  0  0
   -0.3000   -2.2330   41.3350 C   0  0  0  0  0  0  0  0  0  0  0  0
    0.3940   -3.1680   40.9760 O   0  0  0  0  0  0  0  0  0  0  0  0
   -1.5190   -2.4530   41.8690 O   0  0  0  0  0  0  0  0  0  0  0  0
  1  4  1  0
  1  7  1  0
  1  2  2  0
  2  3  1  0
  3  6  2  0
  3 17  1  0
  4  5  2  0
  5 28  1  0
  5  6  1  0
  7  9  1  0
  7  8  1  1
  9 10  1  0
 10 11  2  3
 11 12  1  0
 12 13  1  6
 12 14  1  0
 13 15  1  0
 14 16  1  0
 15 16  1  0
 17 18  2  0
 17 19  1  0
 18 20  1  0
 19 21  2  0
 20 22  2  0
 21 22  1  0
 22 23  1  0
 23 24  1  0
 24 25  2  3
 25 26  1  0
 26 27  2  0
 28 29  1  0
 28 30  2  0
 29 31  1  0
 31 32  1  0
 32 33  1  0
 33 34  2  0
 33 35  1  0
M  END
>  <vina_dock>  (875) 
-8.253

$$$$
O14757_PocketFlow_idx-in-all-generaetd-17
     RDKit          3D

 21 22  0  0  0  0  0  0  0  0999 V2000
    1.5440   -2.5950   42.8580 C   0  0  0  0  0  0  0  0  0  0  0  0
    0.6160   -1.9970   41.9940 C   0  0  0  0  0  0  0  0  0  0  0  0
    0.9320   -0.8160   41.3200 C   0  0  0  0  0  0  0  0  0  0  0  0
    2.1850   -0.2290   41.4900 C   0  0  0  0  0  0  0  0  0  0  0  0
    3.1400   -0.8240   42.3260 C   0  0  0  0  0  0  0  0  0  0  0  0
    2.8060   -2.0050   43.0090 C   0  0  0  0  0  0  0  0  0  0  0  0
    1.1810   -3.8500   43.5320 C   0  0  0  0  0  0  0  0  0  0  0  0
    1.7480   -4.2710   44.6760 C   0  0  0  0  0  0  0  0  0  0  0  0
    1.4290   -5.5030   45.3970 C   0  0  0  0  0  0  0  0  0  0  0  0
    0.2890   -5.5610   46.1130 C   0  0  0  0  0  0  0  0  0  0  0  0
    2.3900   -6.6600   45.2930 C   0  0  0  0  0  0  0  0  0  0  0  0
   -0.2120   -6.5880   46.8740 N   0  0  0  0  0  0  0  0  0  0  0  0
    4.4960   -0.1860   42.5140 C   0  0  0  0  0  0  0  0  0  0  0  0
    4.9020   -0.2580   43.9150 N   0  0  0  0  0  0  0  0  0  0  0  0
    6.1150   -1.0520   44.1100 C   0  0  0  0  0  0  0  0  0  0  0  0
    6.0100   -2.0500   45.2400 C   0  0  0  0  0  0  0  0  0  0  0  0
    7.1570   -2.6890   45.7350 C   0  0  0  0  0  0  0  0  0  0  0  0
    4.7670   -2.3430   45.8210 C   0  0  0  0  0  0  0  0  0  0  0  0
    7.0630   -3.5970   46.7910 C   0  0  0  0  0  0  0  0  0  0  0  0
    4.6760   -3.2490   46.8790 C   0  0  0  0  0  0  0  0  0  0  0  0
    5.8230   -3.8750   47.3640 C   0  0  0  0  0  0  0  0  0  0  0  0
  1  2  2  0
  1  6  1  0
  1  7  1  0
  2  3  1  0
  3  4  2  0
  4  5  1  0
  5 13  1  0
  5  6  2  0
  7  8  2  3
  8  9  1  0
  9 11  1  0
  9 10  2  3
 10 12  1  0
 13 14  1  0
 14 15  1  0
 15 16  1  0
 16 17  2  0
 16 18  1  0
 17 19  1  0
 18 20  2  0
 19 21  2  0
 20 21  1  0
M  END
>  <vina_dock>  (876) 
-7.803

$$$$
O14757_PocketFlow_idx-in-all-generaetd-990
     RDKit          3D

  8  8  0  0  0  0  0  0  0  0999 V2000
    2.3120   -1.8430   42.2900 C   0  0  0  0  0  0  0  0  0  0  0  0
    3.5960   -1.4270   42.6360 C   0  0  0  0  0  0  0  0  0  0  0  0
    4.2850   -2.1080   43.6370 C   0  0  0  0  0  0  0  0  0  0  0  0
    1.7180   -2.9280   42.9370 C   0  0  0  0  0  0  0  0  0  0  0  0
    3.7000   -3.1950   44.2890 C   0  0  0  0  0  0  0  0  0  0  0  0
    2.4150   -3.6070   43.9380 C   0  0  0  0  0  0  0  0  0  0  0  0
    5.8720   -1.6050   44.0740 Cl  0  0  0  0  0  0  0  0  0  0  0  0
    1.4490   -1.0110   41.0560 Cl  0  0  0  0  0  0  0  0  0  0  0  0
  1  8  1  0
  1  2  2  0
  1  4  1  0
  2  3  1  0
  3  7  1  0
  3  5  2  0
  4  6  2  0
  5  6  1  0
M  END
>  <vina_dock>  (877) 
-4.834

$$$$
O14757_PocketFlow_idx-in-all-generaetd-244
     RDKit          3D

 29 32  0  0  0  0  0  0  0  0999 V2000
    4.8680   -0.9010   43.8500 C   0  0  0  0  0  0  0  0  0  0  0  0
    6.2780   -1.3370   44.2640 C   0  0  0  0  0  0  0  0  0  0  0  0
    6.3030   -2.2790   45.4430 C   0  0  0  0  0  0  0  0  0  0  0  0
    7.5280   -3.7720   46.9310 C   0  0  0  0  0  0  0  0  0  0  0  0
    6.3450   -4.0580   47.6210 C   0  0  0  0  0  0  0  0  0  0  0  0
    7.5010   -2.8920   45.8400 C   0  0  0  0  0  0  0  0  0  0  0  0
    5.1500   -3.4490   47.2340 C   0  0  0  0  0  0  0  0  0  0  0  0
    5.1300   -2.5630   46.1560 C   0  0  0  0  0  0  0  0  0  0  0  0
    8.8270   -4.3950   47.2980 C   0  0  0  0  0  0  0  0  0  0  0  0
    8.9080   -5.7600   47.2530 N   0  0  0  0  0  0  0  0  0  0  0  0
    9.7840   -3.7250   47.6650 O   0  0  0  0  0  0  0  0  0  0  0  0
    4.2120   -1.7490   42.7510 C   0  0  0  0  0  0  0  0  0  0  0  0
    2.6880   -1.8920   42.8500 C   0  0  0  0  0  0  0  0  0  0  0  0
    2.2340   -3.2010   43.4500 C   0  0  0  0  0  0  0  0  0  0  0  0
    0.8910   -3.5760   43.4030 C   0  0  0  0  0  0  0  0  0  0  0  0
    3.1520   -4.0650   44.0610 C   0  0  0  0  0  0  0  0  0  0  0  0
    0.4750   -4.7860   43.9670 C   0  0  0  0  0  0  0  0  0  0  0  0
    2.7490   -5.2850   44.6330 C   0  0  0  0  0  0  0  0  0  0  0  0
    1.3850   -5.6680   44.5940 C   0  0  0  0  0  0  0  0  0  0  0  0
    3.6940   -6.1250   45.2410 C   0  0  0  0  0  0  0  0  0  0  0  0
    1.0000   -6.9090   45.1820 C   0  0  0  0  0  0  0  0  0  0  0  0
    3.3130   -7.3340   45.8130 C   0  0  0  0  0  0  0  0  0  0  0  0
    1.9780   -7.7220   45.7830 C   0  0  0  0  0  0  0  0  0  0  0  0
   -0.3940   -7.3810   45.1850 C   0  0  0  0  0  0  0  0  0  0  0  0
   -1.1240   -7.4660   43.9900 C   0  0  0  0  0  0  0  0  0  0  0  0
   -1.0180   -7.7620   46.3830 C   0  0  0  0  0  0  0  0  0  0  0  0
   -2.4460   -7.9160   43.9930 C   0  0  0  0  0  0  0  0  0  0  0  0
   -2.3400   -8.2120   46.3860 C   0  0  0  0  0  0  0  0  0  0  0  0
   -3.0530   -8.2890   45.1920 C   0  0  0  0  0  0  0  0  0  0  0  0
  1 12  1  0
  1  2  1  0
  2  3  1  0
  3  6  1  0
  3  8  2  0
  4  6  2  0
  4  9  1  0
  4  5  1  0
  5  7  2  0
  7  8  1  0
  9 10  1  0
  9 11  2  0
 12 13  1  0
 13 14  1  0
 14 15  2  0
 14 16  1  0
 15 17  1  0
 16 18  2  0
 17 19  2  0
 18 19  1  0
 18 20  1  0
 19 21  1  0
 20 22  2  0
 21 24  1  0
 21 23  2  0
 22 23  1  0
 24 25  2  0
 24 26  1  0
 25 27  1  0
 26 28  2  0
 27 29  2  0
 28 29  1  0
M  END
>  <vina_dock>  (878) 
-9.465

$$$$
O14757_PocketFlow_idx-in-all-generaetd-132
     RDKit          3D

 20 21  0  0  0  0  0  0  0  0999 V2000
    3.7260   -2.7780   44.0520 C   0  0  0  0  0  0  0  0  0  0  0  0
    3.3750   -2.0000   42.9480 C   0  0  0  0  0  0  0  0  0  0  0  0
    2.7670   -3.7020   44.4950 C   0  0  0  0  0  0  0  0  0  0  0  0
    1.5250   -3.8130   43.8570 C   0  0  0  0  0  0  0  0  0  0  0  0
    2.1940   -2.0820   42.2890 N   0  0  0  0  0  0  0  0  0  0  0  0
    1.3060   -2.9880   42.7570 C   0  0  0  0  0  0  0  0  0  0  0  0
    5.0320   -2.6410   44.7120 C   0  0  0  0  0  0  0  0  0  0  0  0
    7.1530   -1.4630   44.9980 C   0  0  0  0  0  0  0  0  0  0  0  0
    7.5270   -2.3770   45.9750 C   0  0  0  0  0  0  0  0  0  0  0  0
    5.9110   -1.5980   44.3710 C   0  0  0  0  0  0  0  0  0  0  0  0
    6.6820   -3.4180   46.3330 C   0  0  0  0  0  0  0  0  0  0  0  0
    5.4400   -3.5490   45.7050 C   0  0  0  0  0  0  0  0  0  0  0  0
    8.7280   -2.2860   46.6130 O   0  0  0  0  0  0  0  0  0  0  0  0
    0.5000   -4.7830   44.2600 C   0  0  0  0  0  0  0  0  0  0  0  0
    0.6710   -6.1130   44.2410 C   0  0  0  0  0  0  0  0  0  0  0  0
   -0.3670   -6.9910   44.6540 C   0  0  0  0  0  0  0  0  0  0  0  0
   -1.2430   -7.7350   45.0050 C   0  0  0  0  0  0  0  0  0  0  0  0
   -2.2840   -8.6060   45.4210 C   0  0  0  0  0  0  0  0  0  0  0  0
   -3.3980   -8.8310   44.7090 C   0  0  0  0  0  0  0  0  0  0  0  0
   -3.7610   -8.2370   43.3840 C   0  0  0  0  0  0  0  0  0  0  0  0
  1  2  2  0
  1  3  1  0
  1  7  1  0
  2  5  1  0
  3  4  2  0
  4  6  1  0
  4 14  1  0
  5  6  2  0
  7 10  1  0
  7 12  2  0
  8 10  2  0
  8  9  1  0
  9 11  2  0
  9 13  1  0
 11 12  1  0
 14 15  2  3
 15 16  1  0
 16 17  3  0
 17 18  1  0
 18 19  2  3
 19 20  1  0
M  END
>  <vina_dock>  (879) 
-8.252

$$$$
O14757_PocketFlow_idx-in-all-generaetd-428
     RDKit          3D

 16 16  0  0  0  0  0  0  0  0999 V2000
    1.0660   -6.7460   45.0750 C   0  0  0  0  0  0  0  0  0  0  0  0
    1.9360   -5.5880   44.6470 C   0  0  0  0  0  0  0  0  0  0  0  0
    3.5620   -3.4180   43.8950 C   0  0  0  0  0  0  0  0  0  0  0  0
    4.1390   -4.6340   44.2740 C   0  0  0  0  0  0  0  0  0  0  0  0
    2.1700   -3.2910   43.8900 C   0  0  0  0  0  0  0  0  0  0  0  0
    3.3310   -5.7090   44.6520 C   0  0  0  0  0  0  0  0  0  0  0  0
    1.3620   -4.3660   44.2680 C   0  0  0  0  0  0  0  0  0  0  0  0
    4.3950   -2.2850   43.4890 C   0  0  0  0  0  0  0  0  0  0  0  0
    5.2860   -1.6560   44.2720 C   0  0  0  0  0  0  0  0  0  0  0  0
    5.5940   -1.9420   45.7150 C   0  0  0  0  0  0  0  0  0  0  0  0
    6.9310   -2.6520   45.8660 C   0  0  0  0  0  0  0  0  0  0  0  0
   -0.1930   -6.8420   44.2610 C   0  0  0  0  0  0  0  0  0  0  0  0
   -1.3140   -7.5270   44.5420 C   0  0  0  0  0  0  0  0  0  0  0  0
   -1.6090   -8.3560   45.7630 C   0  0  0  0  0  0  0  0  0  0  0  0
   -2.9110   -9.1330   45.6120 C   0  0  0  0  0  0  0  0  0  0  0  0
   -3.3080   -9.1030   44.3110 F   0  0  0  0  0  0  0  0  0  0  0  0
  1 12  1  0
  1  2  1  0
  2  7  2  0
  2  6  1  0
  3  8  1  0
  3  5  2  0
  3  4  1  0
  4  6  2  0
  5  7  1  0
  8  9  2  3
  9 10  1  0
 10 11  1  0
 12 13  2  3
 13 14  1  0
 14 15  1  0
 15 16  1  0
M  END
>  <vina_dock>  (880) 
-6.692

$$$$
O14757_PocketFlow_idx-in-all-generaetd-303
     RDKit          3D

 19 22  0  0  0  0  0  0  0  0999 V2000
    0.6870   -3.7700   43.3270 C   0  0  0  0  0  0  0  0  0  0  0  0
    1.5220   -2.7660   42.8740 C   0  0  0  0  0  0  0  0  0  0  0  0
    2.8280   -2.6680   43.3350 C   0  0  0  0  0  0  0  0  0  0  0  0
    3.3890   -3.5660   44.2190 C   0  0  2  0  0  0  0  0  0  0  0  0
    4.8430   -3.5670   44.6050 C   0  0  0  0  0  0  0  0  0  0  0  0
    1.2020   -4.6870   44.2450 C   0  0  0  0  0  0  0  0  0  0  0  0
    2.5390   -4.5920   44.6750 C   0  0  0  0  0  0  0  0  0  0  0  0
    5.6580   -2.2940   44.5180 C   0  0  0  0  0  0  0  0  0  0  0  0
    5.4900   -1.1950   43.7590 C   0  0  0  0  0  0  0  0  0  0  0  0
    4.4610   -0.8890   42.7920 C   0  0  0  0  0  0  0  0  0  0  0  0
    3.2900   -1.5090   42.6220 C   0  0  0  0  0  0  0  0  0  0  0  0
    2.2810   -1.0800   41.7770 N   0  0  0  0  0  0  0  0  0  0  0  0
    1.2250   -1.7750   41.9220 N   0  0  0  0  0  0  0  0  0  0  0  0
    6.8480   -2.2950   45.4030 C   0  0  0  0  0  0  0  0  0  0  0  0
    7.1080   -3.3870   46.2450 C   0  0  0  0  0  0  0  0  0  0  0  0
    7.7280   -1.2050   45.4070 C   0  0  0  0  0  0  0  0  0  0  0  0
    8.2310   -3.3870   47.0730 C   0  0  0  0  0  0  0  0  0  0  0  0
    8.8510   -1.2080   46.2360 C   0  0  0  0  0  0  0  0  0  0  0  0
    9.1020   -2.2980   47.0680 C   0  0  0  0  0  0  0  0  0  0  0  0
  1  2  2  0
  1  6  1  0
  2 13  1  0
  2  3  1  0
  3 11  2  0
  3  4  1  0
  4  5  1  6
  4  7  1  0
  5  8  2  0
  6  7  2  0
  8  9  1  0
  8 14  1  0
  9 10  2  0
 10 11  1  0
 11 12  1  0
 12 13  2  0
 14 16  1  0
 14 15  2  0
 15 17  1  0
 16 18  2  0
 17 19  2  0
 18 19  1  0
M  END
>  <vina_dock>  (881) 
-9.297

$$$$
O14757_PocketFlow_idx-in-all-generaetd-774
     RDKit          3D

 14 15  0  0  0  0  0  0  0  0999 V2000
    6.3710   -1.8350   44.8120 C   0  0  0  0  0  0  0  0  0  0  0  0
    5.0450   -2.0020   44.1150 C   0  0  0  0  0  0  0  0  0  0  0  0
    4.6760   -1.1540   43.0700 C   0  0  0  0  0  0  0  0  0  0  0  0
    5.5100   -0.1840   42.6680 F   0  0  0  0  0  0  0  0  0  0  0  0
    3.4490   -1.2890   42.4240 C   0  0  0  0  0  0  0  0  0  0  0  0
    4.1430   -2.9970   44.5190 C   0  0  0  0  0  0  0  0  0  0  0  0
    2.5480   -2.2860   42.8200 C   0  0  0  0  0  0  0  0  0  0  0  0
    2.8980   -3.1520   43.8830 C   0  0  0  0  0  0  0  0  0  0  0  0
    1.3050   -2.4420   42.1860 C   0  0  0  0  0  0  0  0  0  0  0  0
    1.9920   -4.1480   44.2810 C   0  0  0  0  0  0  0  0  0  0  0  0
    0.4170   -3.4380   42.5940 C   0  0  0  0  0  0  0  0  0  0  0  0
    0.7600   -4.2900   43.6400 C   0  0  0  0  0  0  0  0  0  0  0  0
    6.6630   -2.9640   45.7610 C   0  0  0  0  0  0  0  0  0  0  0  0
    7.8930   -3.3510   46.1230 C   0  0  0  0  0  0  0  0  0  0  0  0
  1  2  1  0
  1 13  1  0
  2  3  2  0
  2  6  1  0
  3  5  1  0
  3  4  1  0
  5  7  2  0
  6  8  2  0
  7  9  1  0
  7  8  1  0
  8 10  1  0
  9 11  2  0
 10 12  2  0
 11 12  1  0
 13 14  2  0
M  END
>  <vina_dock>  (882) 
-7.37

$$$$
O14757_PocketFlow_idx-in-all-generaetd-245
     RDKit          3D

 35 37  0  0  0  0  0  0  0  0999 V2000
    1.6990   -4.6780   44.2270 C   0  0  0  0  0  0  0  0  0  0  0  0
    0.6900   -4.1010   43.4320 C   0  0  0  0  0  0  0  0  0  0  0  0
    0.9330   -2.9420   42.6790 C   0  0  0  0  0  0  0  0  0  0  0  0
    2.1920   -2.3350   42.7200 C   0  0  0  0  0  0  0  0  0  0  0  0
    3.1930   -2.8860   43.5220 C   0  0  0  0  0  0  0  0  0  0  0  0
    2.9580   -4.0570   44.2520 C   0  0  0  0  0  0  0  0  0  0  0  0
    1.4430   -5.8960   45.0130 C   0  0  0  0  0  0  0  0  0  0  0  0
    0.0090   -7.1940   46.5130 C   0  0  0  0  0  0  0  0  0  0  0  0
    0.9570   -8.2210   46.5330 C   0  0  0  0  0  0  0  0  0  0  0  0
    0.2600   -6.0390   45.7600 C   0  0  0  0  0  0  0  0  0  0  0  0
    2.1360   -8.0980   45.7970 C   0  0  0  0  0  0  0  0  0  0  0  0
    2.3750   -6.9460   45.0450 C   0  0  0  0  0  0  0  0  0  0  0  0
   -1.2180   -7.2770   47.3090 C   0  0  0  0  0  0  0  0  0  0  0  0
   -2.3130   -8.0050   47.0460 C   0  0  0  0  0  0  0  0  0  0  0  0
   -2.5330   -8.8870   45.8550 C   0  0  0  0  0  0  0  0  0  0  0  0
   -2.4850  -10.1130   45.9490 O   0  0  0  0  0  0  0  0  0  0  0  0
   -2.8430   -8.1860   44.5430 C   0  0  0  0  0  0  0  0  0  0  0  0
   -1.7230   -7.9160   43.8070 F   0  0  0  0  0  0  0  0  0  0  0  0
   -3.6510   -8.9240   43.7310 F   0  0  0  0  0  0  0  0  0  0  0  0
   -0.1110   -2.3270   41.8250 C   0  0  0  0  0  0  0  0  0  0  0  0
   -0.2590   -1.1340   41.6370 O   0  0  0  0  0  0  0  0  0  0  0  0
   -0.9180   -3.2330   41.2510 O   0  0  0  0  0  0  0  0  0  0  0  0
    4.5420   -2.2800   43.5670 C   0  0  0  0  0  0  0  0  0  0  0  0
    4.8900   -1.6050   42.6010 O   0  0  0  0  0  0  0  0  0  0  0  0
    5.3400   -2.4850   44.7010 N   0  0  0  0  0  0  0  0  0  0  0  0
    6.6440   -1.8280   44.6930 C   0  0  0  0  0  0  0  0  0  0  0  0
    5.2750   -3.7340   45.4670 C   0  0  0  0  0  0  0  0  0  0  0  0
    7.1960   -1.6360   46.0990 C   0  0  0  0  0  0  0  0  0  0  0  0
    5.7970   -3.5670   46.9020 C   0  0  2  0  0  0  0  0  0  0  0  0
    7.2030   -2.9470   46.8810 C   0  0  0  0  0  0  0  0  0  0  0  0
    5.7600   -4.9260   47.6230 C   0  0  0  0  0  0  0  0  0  0  0  0
    6.3000   -4.8790   49.0250 C   0  0  0  0  0  0  0  0  0  0  0  0
    7.4080   -5.4730   49.4990 C   0  0  0  0  0  0  0  0  0  0  0  0
    8.2900   -6.3400   48.7560 C   0  0  0  0  0  0  0  0  0  0  0  0
    9.3010   -5.8750   48.0110 C   0  0  0  0  0  0  0  0  0  0  0  0
  1  2  2  0
  1  6  1  0
  1  7  1  0
  2  3  1  0
  3 20  1  0
  3  4  2  0
  4  5  1  0
  5 23  1  0
  5  6  2  0
  7 12  2  0
  7 10  1  0
  8 10  2  0
  8  9  1  0
  8 13  1  0
  9 11  2  0
 11 12  1  0
 13 14  2  3
 14 15  1  0
 15 17  1  0
 15 16  2  0
 17 19  1  0
 17 18  1  0
 20 22  1  0
 20 21  2  0
 23 24  2  0
 23 25  1  0
 25 26  1  0
 25 27  1  0
 26 28  1  0
 27 29  1  0
 28 30  1  0
 29 30  1  0
 29 31  1  6
 31 32  1  0
 32 33  2  3
 33 34  1  0
 34 35  2  0
M  END
>  <vina_dock>  (883) 
-9.054

$$$$
O14757_PocketFlow_idx-in-all-generaetd-305
     RDKit          3D

 28 31  0  0  0  0  0  0  0  0999 V2000
    9.6170   -3.0770   46.8760 C   0  0  0  0  0  0  0  0  0  0  0  0
    8.4810   -2.6500   46.3100 C   0  0  0  0  0  0  0  0  0  0  0  0
    8.2370   -1.3590   45.5740 C   0  0  0  0  0  0  0  0  0  0  0  0
    7.2490   -3.4010   46.2920 C   0  0  0  0  0  0  0  0  0  0  0  0
    6.2950   -2.7740   45.5880 C   0  0  0  0  0  0  0  0  0  0  0  0
    6.8210   -1.4920   45.0030 C   0  0  0  0  0  0  0  0  0  0  0  0
   10.8640   -2.3110   46.8770 C   0  0  0  0  0  0  0  0  0  0  0  0
   12.3640   -0.7590   47.9880 C   0  0  0  0  0  0  0  0  0  0  0  0
   13.2250   -0.8090   46.8850 C   0  0  0  0  0  0  0  0  0  0  0  0
   11.1750   -1.5010   47.9750 C   0  0  0  0  0  0  0  0  0  0  0  0
   12.9150   -1.6110   45.7870 C   0  0  0  0  0  0  0  0  0  0  0  0
   11.7380   -2.3610   45.7840 C   0  0  0  0  0  0  0  0  0  0  0  0
   12.7400    0.1090   49.1350 C   0  0  0  0  0  0  0  0  0  0  0  0
   12.7520    1.4620   48.9270 N   0  0  0  0  0  0  0  0  0  0  0  0
   12.9950   -0.3560   50.2380 O   0  0  0  0  0  0  0  0  0  0  0  0
    4.9160   -3.2400   45.3570 C   0  0  0  0  0  0  0  0  0  0  0  0
    4.2640   -4.0540   46.2950 C   0  0  0  0  0  0  0  0  0  0  0  0
    4.2140   -2.9080   44.1880 C   0  0  0  0  0  0  0  0  0  0  0  0
    2.9580   -4.5110   46.0790 C   0  0  0  0  0  0  0  0  0  0  0  0
    2.9070   -3.3660   43.9670 C   0  0  0  0  0  0  0  0  0  0  0  0
    2.2680   -4.1780   44.9090 C   0  0  0  0  0  0  0  0  0  0  0  0
    0.8480   -4.6530   44.6820 C   0  0  0  0  0  0  0  0  0  0  0  0
    0.5800   -5.9910   45.2330 N   0  0  0  0  0  0  0  0  0  0  0  0
   -0.4000   -5.9120   46.3250 C   0  0  0  0  0  0  0  0  0  0  0  0
    0.2410   -6.9830   44.2000 C   0  0  0  0  0  0  0  0  0  0  0  0
   -0.9290   -7.2910   46.7110 C   0  0  0  0  0  0  0  0  0  0  0  0
   -1.2300   -7.3960   44.1940 C   0  0  0  0  0  0  0  0  0  0  0  0
   -1.6610   -7.9560   45.5470 C   0  0  0  0  0  0  0  0  0  0  0  0
  1  2  1  0
  1  7  1  0
  2  3  2  0
  2  4  1  0
  3  6  1  0
  4  5  1  0
  5  6  2  0
  5 16  1  0
  7 12  1  0
  7 10  2  0
  8  9  2  0
  8 10  1  0
  8 13  1  0
  9 11  1  0
 11 12  2  0
 13 14  1  0
 13 15  2  0
 16 18  1  0
 16 17  2  0
 17 19  1  0
 18 20  2  0
 19 21  2  0
 20 21  1  0
 21 22  1  0
 22 23  1  0
 23 25  1  0
 23 24  1  0
 24 26  1  0
 25 27  1  0
 26 28  1  0
 27 28  1  0
M  END
>  <vina_dock>  (884) 
-8.365

$$$$
O14757_PocketFlow_idx-in-all-generaetd-844
     RDKit          3D

 21 23  0  0  0  0  0  0  0  0999 V2000
    4.4610   -3.7690   45.5490 C   0  0  1  0  0  0  0  0  0  0  0  0
    5.6220   -4.4670   45.3330 F   0  0  0  0  0  0  0  0  0  0  0  0
    4.3510   -2.5910   44.5980 C   0  0  0  0  0  0  0  0  0  0  0  0
    3.3260   -1.5500   42.6510 C   0  0  0  0  0  0  0  0  0  0  0  0
    4.1120   -0.4200   42.8510 C   0  0  0  0  0  0  0  0  0  0  0  0
    3.4470   -2.6320   43.5250 C   0  0  0  0  0  0  0  0  0  0  0  0
    5.0130   -0.3560   43.9070 C   0  0  0  0  0  0  0  0  0  0  0  0
    5.1340   -1.4380   44.7810 C   0  0  0  0  0  0  0  0  0  0  0  0
    4.0280    0.6600   42.0230 O   0  0  0  0  0  0  0  0  0  0  0  0
    3.2460   -4.6800   45.4880 C   0  0  0  0  0  0  0  0  0  0  0  0
    3.3540   -6.0000   45.0280 C   0  0  0  0  0  0  0  0  0  0  0  0
    1.9920   -4.2170   45.9050 C   0  0  0  0  0  0  0  0  0  0  0  0
    2.2310   -6.8330   44.9840 C   0  0  0  0  0  0  0  0  0  0  0  0
    0.8710   -5.0530   45.8610 C   0  0  0  0  0  0  0  0  0  0  0  0
    0.9710   -6.3750   45.4010 C   0  0  0  0  0  0  0  0  0  0  0  0
   -0.2080   -7.2550   45.3570 C   0  0  0  0  0  0  0  0  0  0  0  0
   -0.4880   -8.1440   46.4080 C   0  0  0  0  0  0  0  0  0  0  0  0
   -1.0900   -7.2300   44.2620 C   0  0  0  0  0  0  0  0  0  0  0  0
   -1.6070   -8.9800   46.3670 C   0  0  0  0  0  0  0  0  0  0  0  0
   -2.2100   -8.0640   44.2200 C   0  0  0  0  0  0  0  0  0  0  0  0
   -2.4680   -8.9390   45.2730 C   0  0  0  0  0  0  0  0  0  0  0  0
  1  3  1  0
  1  2  1  6
  1 10  1  0
  3  6  2  0
  3  8  1  0
  4  5  2  0
  4  6  1  0
  5  9  1  0
  5  7  1  0
  7  8  2  0
 10 11  2  0
 10 12  1  0
 11 13  1  0
 12 14  2  0
 13 15  2  0
 14 15  1  0
 15 16  1  0
 16 18  1  0
 16 17  2  0
 17 19  1  0
 18 20  2  0
 19 21  2  0
 20 21  1  0
M  END
>  <vina_dock>  (885) 
-8.334

$$$$
O14757_PocketFlow_idx-in-all-generaetd-362
     RDKit          3D

 35 38  0  0  0  0  0  0  0  0999 V2000
    0.5000   -4.5180   44.3160 N   0  0  0  0  0  0  0  0  0  0  0  0
    0.7920   -3.8880   43.0420 C   0  0  2  0  0  0  0  0  0  0  0  0
    2.0040   -2.9800   43.0600 C   0  0  0  0  0  0  0  0  0  0  0  0
    4.2180   -2.3880   43.9430 C   0  0  0  0  0  0  0  0  0  0  0  0
    4.2580   -1.3080   43.0480 C   0  0  0  0  0  0  0  0  0  0  0  0
    3.0820   -3.2150   43.9330 C   0  0  0  0  0  0  0  0  0  0  0  0
    3.1970   -1.0590   42.1760 C   0  0  0  0  0  0  0  0  0  0  0  0
    2.0780   -1.8890   42.1830 C   0  0  0  0  0  0  0  0  0  0  0  0
    5.3270   -2.6390   44.8750 C   0  0  0  0  0  0  0  0  0  0  0  0
    7.5030   -2.0020   45.8080 C   0  0  0  0  0  0  0  0  0  0  0  0
    7.4430   -3.0990   46.6770 C   0  0  0  0  0  0  0  0  0  0  0  0
    6.4440   -1.7860   44.9120 C   0  0  0  0  0  0  0  0  0  0  0  0
    6.3450   -3.9580   46.6510 C   0  0  0  0  0  0  0  0  0  0  0  0
    5.2970   -3.7280   45.7590 C   0  0  0  0  0  0  0  0  0  0  0  0
    8.6770   -1.0510   45.8520 C   0  0  0  0  0  0  0  0  0  0  0  0
    9.8520   -1.5590   46.6490 C   0  0  0  0  0  0  0  0  0  0  0  0
   12.0150   -2.6050   46.8160 C   0  0  0  0  0  0  0  0  0  0  0  0
   10.9660   -2.1430   46.0320 C   0  0  0  0  0  0  0  0  0  0  0  0
   11.9210   -2.4850   48.1930 C   0  0  0  0  0  0  0  0  0  0  0  0
   10.8580   -1.9380   48.8260 N   0  0  0  0  0  0  0  0  0  0  0  0
    9.8530   -1.4910   48.0410 C   0  0  0  0  0  0  0  0  0  0  0  0
   13.1280   -3.1640   46.2670 O   0  0  0  0  0  0  0  0  0  0  0  0
   -0.3470   -3.1070   42.7350 O   0  0  0  0  0  0  0  0  0  0  0  0
    0.1760   -5.9420   44.2120 C   0  0  0  0  0  0  0  0  0  0  0  0
    1.1200   -6.8430   44.9720 C   0  0  0  0  0  0  0  0  0  0  0  0
    0.6400   -7.9690   45.6510 C   0  0  0  0  0  0  0  0  0  0  0  0
    2.4970   -6.5800   44.9910 C   0  0  0  0  0  0  0  0  0  0  0  0
    1.5130   -8.8050   46.3520 C   0  0  0  0  0  0  0  0  0  0  0  0
    3.3700   -7.4150   45.6890 C   0  0  0  0  0  0  0  0  0  0  0  0
    2.8860   -8.5330   46.3810 C   0  0  0  0  0  0  0  0  0  0  0  0
    3.8340   -9.4320   47.1350 C   0  0  0  0  0  0  0  0  0  0  0  0
    4.9930   -8.7240   47.5790 O   0  0  0  0  0  0  0  0  0  0  0  0
    5.0150   -8.4560   48.9860 C   0  0  0  0  0  0  0  0  0  0  0  0
    5.7530   -7.1670   49.3230 C   0  0  0  0  0  0  0  0  0  0  0  0
    5.2910   -6.1590   48.5300 F   0  0  0  0  0  0  0  0  0  0  0  0
  1  2  1  0
  1 24  1  0
  2 23  1  1
  2  3  1  0
  3  8  1  0
  3  6  2  0
  4  5  2  0
  4  6  1  0
  4  9  1  0
  5  7  1  0
  7  8  2  0
  9 12  2  0
  9 14  1  0
 10 12  1  0
 10 15  1  0
 10 11  2  0
 11 13  1  0
 13 14  2  0
 15 16  1  0
 16 18  1  0
 16 21  2  0
 17 18  2  0
 17 22  1  0
 17 19  1  0
 19 20  2  0
 20 21  1  0
 24 25  1  0
 25 27  1  0
 25 26  2  0
 26 28  1  0
 27 29  2  0
 28 30  2  0
 29 30  1  0
 30 31  1  0
 31 32  1  0
 32 33  1  0
 33 34  1  0
 34 35  1  0
M  END
>  <vina_dock>  (886) 
-8.582

$$$$
O14757_PocketFlow_idx-in-all-generaetd-204
     RDKit          3D

 35 39  0  0  0  0  0  0  0  0999 V2000
    3.8370   -2.8000   43.7740 C   0  0  2  0  0  0  0  0  0  0  0  0
    2.5530   -2.3590   43.1230 C   0  0  0  0  0  0  0  0  0  0  0  0
    2.2550   -1.1380   42.5420 C   0  0  0  0  0  0  0  0  0  0  0  0
    0.9990   -0.9620   41.9490 C   0  0  0  0  0  0  0  0  0  0  0  0
    0.0400   -2.0030   41.8950 C   0  0  0  0  0  0  0  0  0  0  0  0
    0.3900   -3.2390   42.4760 C   0  0  0  0  0  0  0  0  0  0  0  0
    1.6230   -3.4010   43.1020 C   0  0  0  0  0  0  0  0  0  0  0  0
    2.1850   -4.6440   43.7460 C   0  0  1  0  0  0  0  0  0  0  0  0
    3.3750   -4.0570   44.5390 C   0  0  0  0  0  0  0  0  0  0  0  0
    4.5610   -1.7560   44.6320 C   0  0  0  0  0  0  0  0  0  0  0  0
    5.9830   -1.3960   44.1770 C   0  0  0  0  0  0  0  0  0  0  0  0
    7.0120   -1.8500   45.1870 C   0  0  0  0  0  0  0  0  0  0  0  0
    9.1280   -1.5340   46.3150 C   0  0  0  0  0  0  0  0  0  0  0  0
    8.1770   -1.1010   45.3960 C   0  0  0  0  0  0  0  0  0  0  0  0
    8.9430   -2.7100   47.0350 C   0  0  0  0  0  0  0  0  0  0  0  0
    7.7870   -3.4630   46.8300 C   0  0  0  0  0  0  0  0  0  0  0  0
    6.8270   -3.0380   45.9080 C   0  0  0  0  0  0  0  0  0  0  0  0
   10.2430   -0.7670   46.4830 O   0  0  0  0  0  0  0  0  0  0  0  0
    1.2860   -5.4530   44.6480 C   0  0  0  0  0  0  0  0  0  0  0  0
    0.5790   -6.5410   44.2980 C   0  0  0  0  0  0  0  0  0  0  0  0
   -0.2920   -7.3140   45.1970 C   0  0  0  0  0  0  0  0  0  0  0  0
   -1.6230   -7.5290   44.8130 C   0  0  0  0  0  0  0  0  0  0  0  0
    0.1330   -7.7850   46.4470 C   0  0  0  0  0  0  0  0  0  0  0  0
   -2.5050   -8.2130   45.6510 C   0  0  0  0  0  0  0  0  0  0  0  0
   -0.7430   -8.4840   47.2940 C   0  0  0  0  0  0  0  0  0  0  0  0
   -2.0670   -8.6870   46.8860 C   0  0  0  0  0  0  0  0  0  0  0  0
   -0.2710   -8.9810   48.6370 C   0  0  0  0  0  0  0  0  0  0  0  0
   -1.3220   -9.8380   49.3270 C   0  0  0  0  0  0  0  0  0  0  0  0
   -1.2890   -1.8220   41.2680 C   0  0  0  0  0  0  0  0  0  0  0  0
   -1.8660   -0.6050   41.4580 N   0  0  0  0  0  0  0  0  0  0  0  0
   -1.9290   -2.8170   40.5280 C   0  0  0  0  0  0  0  0  0  0  0  0
   -3.0800   -0.3630   40.9090 C   0  0  0  0  0  0  0  0  0  0  0  0
   -3.1750   -2.5550   39.9640 C   0  0  0  0  0  0  0  0  0  0  0  0
   -3.6750    0.9940   41.1330 C   0  0  0  0  0  0  0  0  0  0  0  0
   -3.7610   -1.3090   40.1540 C   0  0  0  0  0  0  0  0  0  0  0  0
  1  2  1  0
  1  9  1  0
  1 10  1  1
  2  3  2  0
  2  7  1  0
  3  4  1  0
  4  5  2  0
  5 29  1  0
  5  6  1  0
  6  7  2  0
  7  8  1  0
  8  9  1  1
  8 19  1  0
 10 11  1  0
 11 12  1  0
 12 14  1  0
 12 17  2  0
 13 14  2  0
 13 18  1  0
 13 15  1  0
 15 16  2  0
 16 17  1  0
 19 20  2  3
 20 21  1  0
 21 22  2  0
 21 23  1  0
 22 24  1  0
 23 25  2  0
 24 26  2  0
 25 26  1  0
 25 27  1  0
 27 28  1  0
 29 31  1  0
 29 30  2  0
 30 32  1  0
 31 33  2  0
 32 35  2  0
 32 34  1  0
 33 35  1  0
M  END
>  <vina_dock>  (887) 
-10.82

$$$$
O14757_PocketFlow_idx-in-all-generaetd-543
     RDKit          3D

 35 36  0  0  0  0  0  0  0  0999 V2000
    2.9570   -3.3920   43.8740 C   0  0  0  0  0  0  0  0  0  0  0  0
    1.7940   -4.1950   43.8100 C   0  0  0  0  0  0  0  0  0  0  0  0
    0.7370   -3.7810   42.9790 C   0  0  0  0  0  0  0  0  0  0  0  0
    0.8120   -2.6020   42.2350 C   0  0  0  0  0  0  0  0  0  0  0  0
    1.9580   -1.8150   42.2770 C   0  0  0  0  0  0  0  0  0  0  0  0
    2.9920   -2.1890   43.1380 C   0  0  0  0  0  0  0  0  0  0  0  0
    4.1740   -3.7630   44.7040 C   0  0  0  0  0  0  0  0  0  0  0  0
    4.4230   -2.9170   45.9860 C   0  0  2  0  0  0  0  0  0  0  0  0
    5.0190   -1.5100   45.7100 C   0  0  0  0  0  0  0  0  0  0  0  0
    6.1620   -1.5310   44.7280 C   0  0  0  0  0  0  0  0  0  0  0  0
    7.4810   -1.5700   44.9730 C   0  0  0  0  0  0  0  0  0  0  0  0
    8.1140   -1.5470   46.2710 C   0  0  0  0  0  0  0  0  0  0  0  0
    8.6740   -2.5940   46.9000 C   0  0  0  0  0  0  0  0  0  0  0  0
    8.7550   -4.0190   46.4510 C   0  0  0  0  0  0  0  0  0  0  0  0
    5.1590   -3.7110   47.0520 C   0  0  0  0  0  0  0  0  0  0  0  0
    5.1510   -5.0440   47.2260 C   0  0  0  0  0  0  0  0  0  0  0  0
    5.8940   -5.7810   48.3170 C   0  0  1  0  0  0  0  0  0  0  0  0
    5.6280   -5.2270   49.5400 F   0  0  0  0  0  0  0  0  0  0  0  0
    5.5930   -7.2850   48.3620 C   0  0  0  0  0  0  0  0  0  0  0  0
    4.9560   -7.6210   49.5100 F   0  0  0  0  0  0  0  0  0  0  0  0
    4.8160   -7.6920   47.3340 F   0  0  0  0  0  0  0  0  0  0  0  0
    6.7360   -8.0140   48.3240 F   0  0  0  0  0  0  0  0  0  0  0  0
    1.6050   -5.4150   44.6120 C   0  0  0  0  0  0  0  0  0  0  0  0
    0.4040   -5.6270   45.3120 C   0  0  0  0  0  0  0  0  0  0  0  0
    2.5940   -6.4090   44.6650 C   0  0  0  0  0  0  0  0  0  0  0  0
    0.1920   -6.7940   46.0660 C   0  0  0  0  0  0  0  0  0  0  0  0
    2.3990   -7.5690   45.4150 C   0  0  0  0  0  0  0  0  0  0  0  0
    1.2060   -7.7530   46.1050 C   0  0  0  0  0  0  0  0  0  0  0  0
    1.0380   -8.8790   46.8160 F   0  0  0  0  0  0  0  0  0  0  0  0
   -1.0860   -6.9960   46.8360 C   0  0  0  0  0  0  0  0  0  0  0  0
   -1.6690   -8.3670   46.6270 C   0  0  0  0  0  0  0  0  0  0  0  0
   -2.3230   -8.8410   45.5550 C   0  0  0  0  0  0  0  0  0  0  0  0
   -2.5770   -8.1300   44.3250 C   0  0  0  0  0  0  0  0  0  0  0  0
   -3.7580   -8.1680   43.6970 C   0  0  0  0  0  0  0  0  0  0  0  0
    1.9800   -0.5650   41.6470 N   0  0  0  0  0  0  0  0  0  0  0  0
  1  6  2  0
  1  2  1  0
  1  7  1  0
  2  3  2  0
  2 23  1  0
  3  4  1  0
  4  5  2  0
  5 35  1  0
  5  6  1  0
  8  7  1  6
  8  9  1  0
  8 15  1  0
  9 10  1  0
 10 11  2  3
 11 12  1  0
 12 13  2  3
 13 14  1  0
 15 16  2  3
 16 17  1  0
 17 19  1  0
 17 18  1  1
 19 21  1  0
 19 22  1  0
 19 20  1  0
 23 25  1  0
 23 24  2  0
 24 26  1  0
 25 27  2  0
 26 28  2  0
 26 30  1  0
 27 28  1  0
 28 29  1  0
 30 31  1  0
 31 32  2  3
 32 33  1  0
 33 34  2  0
M  END
>  <vina_dock>  (888) 
-8.681

$$$$
O14757_PocketFlow_idx-in-all-generaetd-211
     RDKit          3D

 26 31  0  0  0  0  0  0  0  0999 V2000
    7.8370   -1.5810   45.5290 C   0  0  0  0  0  0  0  0  0  0  0  0
    7.3510   -2.6230   46.3540 N   0  0  0  0  0  0  0  0  0  0  0  0
    8.2300   -3.0340   47.4420 C   0  0  0  0  0  0  0  0  0  0  0  0
    6.9700   -1.0460   44.5870 N   0  0  0  0  0  0  0  0  0  0  0  0
    5.6800   -1.5140   44.3690 C   0  0  0  0  0  0  0  0  0  0  0  0
    4.8770   -1.2570   43.2610 C   0  0  0  0  0  0  0  0  0  0  0  0
    5.2220   -2.3720   45.3190 C   0  0  0  0  0  0  0  0  0  0  0  0
    4.1010   -3.1100   45.1430 C   0  0  0  0  0  0  0  0  0  0  0  0
    3.2520   -2.9420   44.0590 C   0  0  0  0  0  0  0  0  0  0  0  0
    3.6490   -1.9550   43.1120 C   0  0  0  0  0  0  0  0  0  0  0  0
    5.9220   -2.6500   46.5880 C   0  0  1  0  0  0  0  0  0  0  0  0
    8.1120   -4.4960   47.8600 C   0  0  0  0  0  0  0  0  0  0  0  0
    4.0200   -4.0580   46.1320 C   0  0  0  0  0  0  0  0  0  0  0  0
    2.9320   -4.9130   46.1020 C   0  0  0  0  0  0  0  0  0  0  0  0
    1.9650   -4.7890   45.0670 C   0  0  0  0  0  0  0  0  0  0  0  0
    2.1380   -3.8050   44.0510 C   0  0  0  0  0  0  0  0  0  0  0  0
    8.9900   -1.1530   45.5780 O   0  0  0  0  0  0  0  0  0  0  0  0
    6.8710   -4.8150   48.6910 C   0  0  0  0  0  0  0  0  0  0  0  0
    5.6040   -4.8710   47.8990 C   0  0  0  0  0  0  0  0  0  0  0  0
    5.2300   -3.9530   46.9990 C   0  0  0  0  0  0  0  0  0  0  0  0
    0.7990   -5.6890   45.0310 C   0  0  0  0  0  0  0  0  0  0  0  0
    0.3680   -6.2660   43.8260 C   0  0  0  0  0  0  0  0  0  0  0  0
    0.0860   -5.9940   46.2020 C   0  0  0  0  0  0  0  0  0  0  0  0
   -0.7380   -7.1190   43.7910 C   0  0  0  0  0  0  0  0  0  0  0  0
   -1.0200   -6.8480   46.1700 C   0  0  0  0  0  0  0  0  0  0  0  0
   -1.4310   -7.4100   44.9640 C   0  0  0  0  0  0  0  0  0  0  0  0
  1  4  1  0
  1 17  2  0
  1  2  1  0
 11  2  1  6
  2  3  1  0
  3 12  1  0
  4  5  1  0
  5  6  1  0
  5  7  2  0
  6 10  2  0
  7  8  1  0
  7 11  1  0
  8  9  2  0
  8 13  1  0
  9 10  1  0
  9 16  1  0
 11 20  1  0
 12 18  1  0
 13 14  2  0
 13 20  1  0
 14 15  1  0
 15 16  2  0
 15 21  1  0
 18 19  1  0
 19 20  2  0
 21 22  2  0
 21 23  1  0
 22 24  1  0
 23 25  2  0
 24 26  2  0
 25 26  1  0
M  END
>  <vina_dock>  (889) 
-10.844

$$$$
O14757_PocketFlow_idx-in-all-generaetd-261
     RDKit          3D

 35 38  0  0  0  0  0  0  0  0999 V2000
    0.8470   -3.0860   42.7340 C   0  0  0  0  0  0  0  0  0  0  0  0
    1.5080   -3.8560   43.7120 C   0  0  0  0  0  0  0  0  0  0  0  0
    2.8570   -3.5600   44.0110 C   0  0  0  0  0  0  0  0  0  0  0  0
    3.4960   -2.5040   43.3340 C   0  0  0  0  0  0  0  0  0  0  0  0
    1.4930   -2.0430   42.0550 C   0  0  0  0  0  0  0  0  0  0  0  0
    2.8220   -1.7550   42.3680 C   0  0  0  0  0  0  0  0  0  0  0  0
    0.7600   -4.9310   44.3770 C   0  0  0  0  0  0  0  0  0  0  0  0
    0.4880   -4.8740   45.7520 C   0  0  0  0  0  0  0  0  0  0  0  0
    0.3260   -6.0540   43.6560 C   0  0  0  0  0  0  0  0  0  0  0  0
   -0.2140   -5.9030   46.3850 C   0  0  0  0  0  0  0  0  0  0  0  0
   -0.3760   -7.0850   44.2880 C   0  0  0  0  0  0  0  0  0  0  0  0
   -0.6600   -7.0140   45.6580 C   0  0  0  0  0  0  0  0  0  0  0  0
   -1.4090   -8.1290   46.3480 C   0  0  0  0  0  0  0  0  0  0  0  0
   -2.4150   -8.7860   45.4450 C   0  0  0  0  0  0  0  0  0  0  0  0
   -3.6400   -8.3040   45.1990 C   0  0  0  0  0  0  0  0  0  0  0  0
    0.7510   -1.2260   41.0260 C   0  0  0  0  0  0  0  0  0  0  0  0
   -0.4750   -0.5280   41.6330 C   0  0  0  0  0  0  0  0  0  0  0  0
   -1.8390   -1.0390   41.2080 C   0  0  0  0  0  0  0  0  0  0  0  0
   -2.1310   -2.3160   40.9090 C   0  0  0  0  0  0  0  0  0  0  0  0
   -2.9050    0.0250   41.1370 C   0  0  0  0  0  0  0  0  0  0  0  0
    3.6470   -4.3080   45.0670 C   0  0  0  0  0  0  0  0  0  0  0  0
    4.0170   -3.4080   46.2500 C   0  0  0  0  0  0  0  0  0  0  0  0
    5.5150   -3.2360   46.3820 C   0  0  0  0  0  0  0  0  0  0  0  0
    6.1520   -2.2830   45.5720 C   0  0  0  0  0  0  0  0  0  0  0  0
    6.2940   -4.0120   47.2610 C   0  0  0  0  0  0  0  0  0  0  0  0
    7.5350   -2.0910   45.6360 C   0  0  0  0  0  0  0  0  0  0  0  0
    5.6830   -5.0560   48.1560 C   0  0  0  0  0  0  0  0  0  0  0  0
    7.6860   -3.8070   47.3110 C   0  0  0  0  0  0  0  0  0  0  0  0
    8.3260   -2.8500   46.5060 C   0  0  0  0  0  0  0  0  0  0  0  0
    9.7830   -2.6530   46.5740 C   0  0  0  0  0  0  0  0  0  0  0  0
   10.3350   -1.3650   46.6780 C   0  0  0  0  0  0  0  0  0  0  0  0
   10.6640   -3.7460   46.5360 C   0  0  0  0  0  0  0  0  0  0  0  0
   11.7200   -1.1770   46.7420 C   0  0  0  0  0  0  0  0  0  0  0  0
   12.0480   -3.5600   46.5990 C   0  0  0  0  0  0  0  0  0  0  0  0
   12.5750   -2.2750   46.7020 C   0  0  0  0  0  0  0  0  0  0  0  0
  1  5  2  0
  1  2  1  0
  2  3  2  0
  2  7  1  0
  3  4  1  0
  3 21  1  0
  4  6  2  0
  5 16  1  0
  5  6  1  0
  7  9  1  0
  7  8  2  0
  8 10  1  0
  9 11  2  0
 10 12  2  0
 11 12  1  0
 12 13  1  0
 13 14  1  0
 14 15  2  0
 16 17  1  0
 17 18  1  0
 18 19  2  0
 18 20  1  0
 21 22  1  0
 22 23  1  0
 23 24  2  0
 23 25  1  0
 24 26  1  0
 25 28  2  0
 25 27  1  0
 26 29  2  0
 28 29  1  0
 29 30  1  0
 30 32  1  0
 30 31  2  0
 31 33  1  0
 32 34  2  0
 33 35  2  0
 34 35  1  0
M  END
>  <vina_dock>  (890) 
-9.696

$$$$
O14757_PocketFlow_idx-in-all-generaetd-291
     RDKit          3D

 35 38  0  0  0  0  0  0  0  0999 V2000
    2.6490   -0.0520   42.3320 C   0  0  0  0  0  0  0  0  0  0  0  0
    3.5840   -1.1240   42.6860 N   0  0  0  0  0  0  0  0  0  0  0  0
    4.8730   -0.6190   43.1640 C   0  0  0  0  0  0  0  0  0  0  0  0
    5.4040   -1.4670   44.2980 C   0  0  0  0  0  0  0  0  0  0  0  0
    6.4000   -3.1060   46.3910 C   0  0  0  0  0  0  0  0  0  0  0  0
    7.2550   -2.2750   45.6480 C   0  0  0  0  0  0  0  0  0  0  0  0
    5.0340   -3.0980   46.0660 C   0  0  0  0  0  0  0  0  0  0  0  0
    6.7660   -1.4660   44.6160 C   0  0  0  0  0  0  0  0  0  0  0  0
    4.5430   -2.2930   45.0320 C   0  0  0  0  0  0  0  0  0  0  0  0
    6.9220   -3.9620   47.4670 C   0  0  0  0  0  0  0  0  0  0  0  0
    6.6100   -5.5940   49.2350 C   0  0  0  0  0  0  0  0  0  0  0  0
    7.9310   -5.5550   49.5000 N   0  0  0  0  0  0  0  0  0  0  0  0
    6.0880   -4.8070   48.2110 C   0  0  0  0  0  0  0  0  0  0  0  0
    8.7720   -4.7430   48.7870 N   0  0  0  0  0  0  0  0  0  0  0  0
    8.2680   -3.9740   47.8040 C   0  0  0  0  0  0  0  0  0  0  0  0
    5.7150   -6.4360   49.9420 N   0  0  0  0  0  0  0  0  0  0  0  0
    5.2870   -7.7420   49.6100 C   0  0  0  0  0  0  0  0  0  0  0  0
    4.9180   -9.5600   48.0510 C   0  0  0  0  0  0  0  0  0  0  0  0
    5.0600  -10.0670   46.8190 F   0  0  0  0  0  0  0  0  0  0  0  0
    4.2720  -10.3100   49.0240 C   0  0  0  0  0  0  0  0  0  0  0  0
    5.4140   -8.2870   48.3290 C   0  0  0  0  0  0  0  0  0  0  0  0
    4.1060   -9.7730   50.2970 C   0  0  0  0  0  0  0  0  0  0  0  0
    4.5990   -8.4950   50.5800 C   0  0  0  0  0  0  0  0  0  0  0  0
    1.4030   -0.5620   41.6000 C   0  0  0  0  0  0  0  0  0  0  0  0
    1.5690   -1.9890   41.0640 C   0  0  0  0  0  0  0  0  0  0  0  0
    0.4600   -2.9090   41.4910 C   0  0  0  0  0  0  0  0  0  0  0  0
    0.3670   -3.5980   42.6410 C   0  0  0  0  0  0  0  0  0  0  0  0
    1.3280   -3.6050   43.7980 C   0  0  0  0  0  0  0  0  0  0  0  0
    1.4850   -4.9840   44.3960 C   0  0  0  0  0  0  0  0  0  0  0  0
    2.7470   -5.4660   44.7680 C   0  0  0  0  0  0  0  0  0  0  0  0
    0.3610   -5.7940   44.6110 C   0  0  0  0  0  0  0  0  0  0  0  0
    2.8800   -6.7350   45.3380 C   0  0  0  0  0  0  0  0  0  0  0  0
    0.4960   -7.0600   45.1860 C   0  0  0  0  0  0  0  0  0  0  0  0
    1.7570   -7.5450   45.5450 C   0  0  0  0  0  0  0  0  0  0  0  0
    1.9020   -8.8860   46.2010 C   0  0  0  0  0  0  0  0  0  0  0  0
  1 24  1  0
  1  2  1  0
  2  3  1  0
  3  4  1  0
  4  8  2  0
  4  9  1  0
  5  6  2  0
  5  7  1  0
  5 10  1  0
  6  8  1  0
  7  9  2  0
 10 15  1  0
 10 13  2  0
 11 13  1  0
 11 12  2  0
 11 16  1  0
 12 14  1  0
 14 15  2  0
 16 17  1  0
 17 21  1  0
 17 23  2  0
 18 19  1  0
 18 21  2  0
 18 20  1  0
 20 22  2  0
 22 23  1  0
 24 25  1  0
 25 26  1  0
 26 27  2  3
 27 28  1  0
 28 29  1  0
 29 31  1  0
 29 30  2  0
 30 32  1  0
 31 33  2  0
 32 34  2  0
 33 34  1  0
 34 35  1  0
M  END
>  <vina_dock>  (891) 
-8.726

$$$$
O14757_PocketFlow_idx-in-all-generaetd-52
     RDKit          3D

 14 15  0  0  0  0  0  0  0  0999 V2000
    4.5670   -4.1090   45.2040 C   0  0  0  0  0  0  0  0  0  0  0  0
    4.5950   -2.8390   44.3730 C   0  0  0  0  0  0  0  0  0  0  0  0
    5.5920   -0.7450   43.6490 C   0  0  0  0  0  0  0  0  0  0  0  0
    4.5340   -0.5320   42.7660 C   0  0  0  0  0  0  0  0  0  0  0  0
    5.6380   -1.8910   44.4610 C   0  0  0  0  0  0  0  0  0  0  0  0
    3.5060   -1.4630   42.6780 C   0  0  0  0  0  0  0  0  0  0  0  0
    6.8060   -2.0710   45.3910 C   0  0  0  0  0  0  0  0  0  0  0  0
    3.5370   -2.6070   43.4730 C   0  0  0  0  0  0  0  0  0  0  0  0
    3.2260   -4.8110   45.2330 C   0  0  0  0  0  0  0  0  0  0  0  0
    3.0810   -6.0900   44.6790 C   0  0  0  0  0  0  0  0  0  0  0  0
    2.1130   -4.2080   45.8380 C   0  0  0  0  0  0  0  0  0  0  0  0
    1.8500   -6.7470   44.7180 C   0  0  0  0  0  0  0  0  0  0  0  0
    0.8820   -4.8650   45.8760 C   0  0  0  0  0  0  0  0  0  0  0  0
    0.7510   -6.1340   45.3170 C   0  0  0  0  0  0  0  0  0  0  0  0
  1  2  1  0
  1  9  1  0
  2  8  1  0
  2  5  2  0
  3  4  2  0
  3  5  1  0
  4  6  1  0
  5  7  1  0
  6  8  2  0
  9 10  2  0
  9 11  1  0
 10 12  1  0
 11 13  2  0
 12 14  2  0
 13 14  1  0
M  END
>  <vina_dock>  (892) 
-7.026

$$$$
O14757_PocketFlow_idx-in-all-generaetd-412
     RDKit          3D

 16 16  0  0  0  0  0  0  0  0999 V2000
    1.6690   -3.7680   43.8000 C   0  0  0  0  0  0  0  0  0  0  0  0
    0.6510   -3.3550   42.9310 C   0  0  0  0  0  0  0  0  0  0  0  0
    0.8790   -2.3340   42.0080 C   0  0  0  0  0  0  0  0  0  0  0  0
    2.1270   -1.7150   41.9440 C   0  0  0  0  0  0  0  0  0  0  0  0
    3.1610   -2.1110   42.8030 C   0  0  0  0  0  0  0  0  0  0  0  0
    2.9240   -3.1440   43.7240 C   0  0  0  0  0  0  0  0  0  0  0  0
    1.4260   -4.8860   44.7850 C   0  0  0  0  0  0  0  0  0  0  0  0
    0.6470   -6.0170   44.1750 C   0  0  0  0  0  0  0  0  0  0  0  0
   -0.2080   -6.8640   44.7670 C   0  0  0  0  0  0  0  0  0  0  0  0
   -0.5790   -6.8330   46.1930 C   0  0  0  0  0  0  0  0  0  0  0  0
   -1.4390   -5.9870   46.6460 N   0  0  0  0  0  0  0  0  0  0  0  0
    4.5160   -1.4480   42.7180 C   0  0  0  0  0  0  0  0  0  0  0  0
    4.8880   -0.7530   43.9990 C   0  0  0  0  0  0  0  0  0  0  0  0
    5.7020   -1.1800   44.9780 C   0  0  0  0  0  0  0  0  0  0  0  0
    6.4090   -2.4380   45.0210 C   0  0  0  0  0  0  0  0  0  0  0  0
    6.0940   -3.4150   45.8800 C   0  0  0  0  0  0  0  0  0  0  0  0
  1  2  2  0
  1  6  1  0
  1  7  1  0
  2  3  1  0
  3  4  2  0
  4  5  1  0
  5 12  1  0
  5  6  2  0
  7  8  1  0
  8  9  2  3
  9 10  1  0
 10 11  2  3
 12 13  1  0
 13 14  2  3
 14 15  1  0
 15 16  2  0
M  END
>  <vina_dock>  (893) 
-7.046

$$$$
O14757_PocketFlow_idx-in-all-generaetd-311
     RDKit          3D

 35 38  0  0  0  0  0  0  0  0999 V2000
    3.6030   -2.3420   43.1890 C   0  0  0  0  0  0  0  0  0  0  0  0
    3.9970   -3.4440   43.9520 C   0  0  0  0  0  0  0  0  0  0  0  0
    5.1480   -3.3780   44.7460 C   0  0  0  0  0  0  0  0  0  0  0  0
    5.9280   -2.2110   44.7940 C   0  0  0  0  0  0  0  0  0  0  0  0
    5.5220   -1.1120   44.0180 C   0  0  0  0  0  0  0  0  0  0  0  0
    4.3740   -1.1760   43.2190 C   0  0  0  0  0  0  0  0  0  0  0  0
    2.3910   -2.4230   42.3680 C   0  0  0  0  0  0  0  0  0  0  0  0
    1.1810   -2.8380   42.7770 C   0  0  0  0  0  0  0  0  0  0  0  0
    0.8360   -3.2920   44.1080 C   0  0  0  0  0  0  0  0  0  0  0  0
    0.6550   -7.3810   45.5960 C   0  0  1  0  0  0  0  0  0  0  0  0
    1.1010   -6.1390   46.3810 C   0  0  0  0  0  0  0  0  0  0  0  0
    0.2240   -7.0830   44.1330 C   0  0  2  0  0  0  0  0  0  0  0  0
    0.3470   -4.8930   45.9390 C   0  0  0  0  0  0  0  0  0  0  0  0
    0.8630   -5.7850   43.5930 C   0  0  0  0  0  0  0  0  0  0  0  0
    0.6790   -4.5750   44.4960 C   0  0  0  0  0  0  0  0  0  0  0  0
    1.7290   -8.3340   45.6050 O   0  0  0  0  0  0  0  0  0  0  0  0
   -1.2330   -6.9970   44.0240 N   0  0  0  0  0  0  0  0  0  0  0  0
   -2.1450   -7.8510   44.5830 C   0  0  0  0  0  0  0  0  0  0  0  0
   -3.2910   -8.2420   44.0200 C   0  0  0  0  0  0  0  0  0  0  0  0
   -3.6910   -7.8080   42.7820 O   0  0  0  0  0  0  0  0  0  0  0  0
    7.1240   -2.1350   45.6430 C   0  0  0  0  0  0  0  0  0  0  0  0
    8.1410   -1.2020   45.3740 C   0  0  0  0  0  0  0  0  0  0  0  0
    7.2780   -2.9830   46.7510 C   0  0  0  0  0  0  0  0  0  0  0  0
    9.2720   -1.1070   46.1900 C   0  0  0  0  0  0  0  0  0  0  0  0
    8.4240   -2.9030   47.5510 C   0  0  0  0  0  0  0  0  0  0  0  0
    9.4090   -1.9530   47.2860 C   0  0  0  0  0  0  0  0  0  0  0  0
    8.6020   -3.7040   48.6560 O   0  0  0  0  0  0  0  0  0  0  0  0
    8.0290   -4.9570   48.6150 C   0  0  0  0  0  0  0  0  0  0  0  0
    6.8080   -5.1300   49.2720 C   0  0  0  0  0  0  0  0  0  0  0  0
    8.6500   -6.0510   48.0050 C   0  0  0  0  0  0  0  0  0  0  0  0
    6.1820   -6.3720   49.2990 C   0  0  0  0  0  0  0  0  0  0  0  0
    8.0140   -7.2890   48.0290 C   0  0  0  0  0  0  0  0  0  0  0  0
    6.7870   -7.4570   48.6640 C   0  0  0  0  0  0  0  0  0  0  0  0
    6.1870   -4.0890   49.9040 O   0  0  0  0  0  0  0  0  0  0  0  0
    8.5760   -8.3830   47.4330 O   0  0  0  0  0  0  0  0  0  0  0  0
  1  7  1  0
  1  6  1  0
  1  2  2  0
  2  3  1  0
  3  4  2  0
  4  5  1  0
  4 21  1  0
  5  6  2  0
  7  8  2  3
  8  9  1  0
  9 15  2  3
 10 12  1  0
 10 16  1  6
 10 11  1  0
 11 13  1  0
 12 14  1  0
 12 17  1  1
 13 15  1  0
 14 15  1  0
 17 18  1  0
 18 19  2  3
 19 20  1  0
 21 22  2  0
 21 23  1  0
 22 24  1  0
 23 25  2  0
 24 26  2  0
 25 26  1  0
 25 27  1  0
 27 28  1  0
 28 30  1  0
 28 29  2  0
 29 31  1  0
 29 34  1  0
 30 32  2  0
 31 33  2  0
 32 35  1  0
 32 33  1  0
M  END
>  <vina_dock>  (894) 
-9.033

$$$$
O14757_PocketFlow_idx-in-all-generaetd-967
     RDKit          3D

 35 36  0  0  0  0  0  0  0  0999 V2000
    9.4700   -2.5720   46.9870 C   0  0  0  0  0  0  0  0  0  0  0  0
    8.5540   -1.7560   46.0640 C   0  0  1  0  0  0  0  0  0  0  0  0
    7.0930   -2.2400   46.0960 C   0  0  0  0  0  0  0  0  0  0  0  0
    6.3110   -1.7670   44.8940 C   0  0  0  0  0  0  0  0  0  0  0  0
    5.2900   -2.4510   44.3530 C   0  0  0  0  0  0  0  0  0  0  0  0
    4.5150   -2.0120   43.1290 C   0  0  2  0  0  0  0  0  0  0  0  0
    4.5270   -0.4770   43.0440 C   0  0  0  0  0  0  0  0  0  0  0  0
    3.1170   -2.6430   43.1240 C   0  0  0  0  0  0  0  0  0  0  0  0
    2.2180   -6.3540   45.0590 C   0  0  0  0  0  0  0  0  0  0  0  0
    3.5150   -5.8510   45.1090 C   0  0  0  0  0  0  0  0  0  0  0  0
    1.2320   -5.6330   44.3820 C   0  0  0  0  0  0  0  0  0  0  0  0
    3.8210   -4.6360   44.4870 C   0  0  0  0  0  0  0  0  0  0  0  0
    1.5280   -4.4120   43.7520 C   0  0  0  0  0  0  0  0  0  0  0  0
    2.8490   -3.8850   43.7840 C   0  0  0  0  0  0  0  0  0  0  0  0
    0.5060   -3.7150   43.0960 C   0  0  0  0  0  0  0  0  0  0  0  0
    0.7590   -2.4940   42.4750 C   0  0  0  0  0  0  0  0  0  0  0  0
    2.0520   -1.9640   42.4940 C   0  0  0  0  0  0  0  0  0  0  0  0
    1.9330   -7.6400   45.7390 C   0  0  0  0  0  0  0  0  0  0  0  0
    2.5970   -8.6560   45.6470 O   0  0  0  0  0  0  0  0  0  0  0  0
    0.8350   -7.5910   46.5150 O   0  0  0  0  0  0  0  0  0  0  0  0
   -0.3040   -1.7270   41.7800 C   0  0  0  0  0  0  0  0  0  0  0  0
   -0.2890   -0.5280   41.5620 O   0  0  0  0  0  0  0  0  0  0  0  0
   -1.3350   -2.4950   41.3870 O   0  0  0  0  0  0  0  0  0  0  0  0
    8.6190   -0.4010   46.5240 O   0  0  0  0  0  0  0  0  0  0  0  0
    9.6850   -1.9920   48.3880 C   0  0  0  0  0  0  0  0  0  0  0  0
    8.9010   -2.6810   49.5070 C   0  0  0  0  0  0  0  0  0  0  0  0
    8.2310   -4.0190   49.1330 C   0  0  1  0  0  0  0  0  0  0  0  0
    8.8030   -5.1880   49.9530 C   0  0  0  0  0  0  0  0  0  0  0  0
    9.6680   -6.1600   49.1370 C   0  0  0  0  0  0  0  0  0  0  0  0
    9.3170   -6.1770   47.6570 C   0  0  0  0  0  0  0  0  0  0  0  0
    6.8350   -3.9130   49.4480 O   0  0  0  0  0  0  0  0  0  0  0  0
    5.9670   -4.2200   48.3520 C   0  0  0  0  0  0  0  0  0  0  0  0
    5.7000   -5.6620   48.2860 C   0  0  0  0  0  0  0  0  0  0  0  0
    5.4850   -6.8450   48.2360 C   0  0  0  0  0  0  0  0  0  0  0  0
    5.2360   -8.2850   48.1840 C   0  0  0  0  0  0  0  0  0  0  0  0
  1  2  1  0
  1 25  1  0
  2  3  1  0
  2 24  1  1
  3  4  1  0
  4  5  2  3
  5  6  1  0
  6  7  1  1
  6  8  1  0
  8 17  2  0
  8 14  1  0
  9 11  1  0
  9 10  2  0
  9 18  1  0
 10 12  1  0
 11 13  2  0
 12 14  2  0
 13 15  1  0
 13 14  1  0
 15 16  2  0
 16 21  1  0
 16 17  1  0
 18 19  2  0
 18 20  1  0
 21 23  1  0
 21 22  2  0
 25 26  2  3
 26 27  1  0
 27 31  1  0
 27 28  1  1
 28 29  1  0
 29 30  1  0
 31 32  1  0
 32 33  1  0
 33 34  3  0
 34 35  1  0
M  END
>  <vina_dock>  (895) 
-7.614

$$$$
O14757_PocketFlow_idx-in-all-generaetd-202
     RDKit          3D

 21 22  0  0  0  0  0  0  0  0999 V2000
    1.0660   -5.9010   44.2480 C   0  0  0  0  0  0  0  0  0  0  0  0
    2.2700   -6.5080   44.6270 C   0  0  0  0  0  0  0  0  0  0  0  0
    3.4020   -5.7320   44.8980 C   0  0  0  0  0  0  0  0  0  0  0  0
    3.3500   -4.3370   44.8060 C   0  0  0  0  0  0  0  0  0  0  0  0
    2.1520   -3.7320   44.4100 C   0  0  0  0  0  0  0  0  0  0  0  0
    1.0190   -4.5060   44.1390 C   0  0  0  0  0  0  0  0  0  0  0  0
   -0.1600   -6.7370   43.9570 C   0  0  0  0  0  0  0  0  0  0  0  0
   -0.8330   -7.2860   45.1870 C   0  0  0  0  0  0  0  0  0  0  0  0
   -2.4420   -8.7210   46.2560 C   0  0  0  0  0  0  0  0  0  0  0  0
   -1.8530   -8.2370   45.0960 C   0  0  0  0  0  0  0  0  0  0  0  0
   -1.9940   -8.2450   47.4780 C   0  0  0  0  0  0  0  0  0  0  0  0
   -1.0100   -7.3290   47.6090 N   0  0  0  0  0  0  0  0  0  0  0  0
   -0.4570   -6.8680   46.4630 C   0  0  0  0  0  0  0  0  0  0  0  0
   -3.4350   -9.6460   46.1370 O   0  0  0  0  0  0  0  0  0  0  0  0
    4.5260   -3.4910   45.0550 C   0  0  0  0  0  0  0  0  0  0  0  0
    4.9060   -2.4850   44.2520 C   0  0  0  0  0  0  0  0  0  0  0  0
    6.0730   -1.6710   44.5150 C   0  0  0  0  0  0  0  0  0  0  0  0
    7.0550   -2.0520   45.3460 C   0  0  0  0  0  0  0  0  0  0  0  0
    8.2200   -1.2340   45.6040 C   0  0  0  0  0  0  0  0  0  0  0  0
    9.1010   -1.3910   46.6060 C   0  0  0  0  0  0  0  0  0  0  0  0
    9.1110   -2.4220   47.6880 C   0  0  0  0  0  0  0  0  0  0  0  0
  1  7  1  0
  1  6  1  0
  1  2  2  0
  2  3  1  0
  3  4  2  0
  4  5  1  0
  4 15  1  0
  5  6  2  0
  7  8  1  0
  8 10  1  0
  8 13  2  0
  9 10  2  0
  9 14  1  0
  9 11  1  0
 11 12  2  0
 12 13  1  0
 15 16  2  3
 16 17  1  0
 17 18  2  3
 18 19  1  0
 19 20  2  3
 20 21  1  0
M  END
>  <vina_dock>  (896) 
-7.726

$$$$
O14757_PocketFlow_idx-in-all-generaetd-898
     RDKit          3D

 26 29  0  0  0  0  0  0  0  0999 V2000
    1.6130   -5.5130   44.6930 C   0  0  0  0  0  0  0  0  0  0  0  0
    0.4110   -5.6960   45.3900 C   0  0  0  0  0  0  0  0  0  0  0  0
    0.1530   -6.8920   46.0720 C   0  0  0  0  0  0  0  0  0  0  0  0
    1.1310   -7.8800   46.0220 C   0  0  0  0  0  0  0  0  0  0  0  0
    2.3060   -7.7500   45.3710 N   0  0  0  0  0  0  0  0  0  0  0  0
    2.5150   -6.5770   44.7250 C   0  0  0  0  0  0  0  0  0  0  0  0
    1.9080   -4.2690   43.9710 C   0  0  0  0  0  0  0  0  0  0  0  0
    3.4140   -2.4070   43.4690 C   0  0  0  0  0  0  0  0  0  0  0  0
    3.1280   -3.5960   44.1550 C   0  0  0  0  0  0  0  0  0  0  0  0
    2.4680   -1.8770   42.5870 C   0  0  0  0  0  0  0  0  0  0  0  0
    1.2530   -2.5300   42.3900 C   0  0  0  0  0  0  0  0  0  0  0  0
    0.9760   -3.7140   43.0770 C   0  0  0  0  0  0  0  0  0  0  0  0
    4.6940   -1.7120   43.6890 C   0  0  0  0  0  0  0  0  0  0  0  0
    6.9070   -1.5680   44.8870 C   0  0  0  0  0  0  0  0  0  0  0  0
    5.5900   -2.1930   44.5750 C   0  0  0  0  0  0  0  0  0  0  0  0
    7.3550   -2.4850   45.9740 C   0  0  0  0  0  0  0  0  0  0  0  0
    5.4240   -3.4180   45.4300 C   0  0  0  0  0  0  0  0  0  0  0  0
    6.6080   -3.4850   46.3060 N   0  0  0  0  0  0  0  0  0  0  0  0
    4.8800   -0.4700   42.8620 C   0  0  0  0  0  0  0  0  0  0  0  0
   -1.1290   -7.1040   46.8330 C   0  0  0  0  0  0  0  0  0  0  0  0
   -2.0470   -8.1300   46.2090 C   0  0  0  0  0  0  0  0  0  0  0  0
   -2.2030   -9.3960   46.7940 C   0  0  0  0  0  0  0  0  0  0  0  0
   -2.7630   -7.8300   45.0410 C   0  0  0  0  0  0  0  0  0  0  0  0
   -3.0550  -10.3400   46.2210 C   0  0  0  0  0  0  0  0  0  0  0  0
   -3.6150   -8.7770   44.4700 C   0  0  0  0  0  0  0  0  0  0  0  0
   -3.7600  -10.0310   45.0600 C   0  0  0  0  0  0  0  0  0  0  0  0
  1  7  1  0
  1  6  1  0
  1  2  2  0
  2  3  1  0
  3  4  2  0
  3 20  1  0
  4  5  1  0
  5  6  2  0
  7 12  1  0
  7  9  2  0
  8 10  2  0
  8 13  1  0
  8  9  1  0
 10 11  1  0
 11 12  2  0
 13 19  1  0
 13 15  1  0
 14 15  2  0
 14 16  1  0
 15 17  1  0
 16 18  1  0
 17 18  2  0
 20 21  1  0
 21 23  1  0
 21 22  2  0
 22 24  1  0
 23 25  2  0
 24 26  2  0
 25 26  1  0
M  END
>  <vina_dock>  (897) 
-10.345

$$$$
O14757_PocketFlow_idx-in-all-generaetd-929
     RDKit          3D

 35 37  0  0  0  0  0  0  0  0999 V2000
    3.6020   -6.2720   45.5140 C   0  0  0  0  0  0  0  0  0  0  0  0
    3.8520   -5.5320   44.3120 O   0  0  0  0  0  0  0  0  0  0  0  0
    4.4000   -4.2940   44.4930 C   0  0  0  0  0  0  0  0  0  0  0  0
    5.7760   -2.8940   45.8970 C   0  0  0  0  0  0  0  0  0  0  0  0
    5.2120   -4.1370   45.6130 C   0  0  0  0  0  0  0  0  0  0  0  0
    5.5440   -1.8060   45.0510 C   0  0  0  0  0  0  0  0  0  0  0  0
    4.6960   -1.9450   43.9410 C   0  0  0  0  0  0  0  0  0  0  0  0
    4.1240   -3.2010   43.6690 C   0  0  0  0  0  0  0  0  0  0  0  0
    6.6140   -2.8260   46.9880 O   0  0  0  0  0  0  0  0  0  0  0  0
    7.6000   -3.7840   47.0860 C   0  0  0  0  0  0  0  0  0  0  0  0
    9.6370   -5.6730   47.3360 C   0  0  0  0  0  0  0  0  0  0  0  0
   10.8870   -6.8470   47.4830 Cl  0  0  0  0  0  0  0  0  0  0  0  0
    9.7100   -4.7090   46.3320 C   0  0  0  0  0  0  0  0  0  0  0  0
    8.5650   -5.6910   48.2270 C   0  0  0  0  0  0  0  0  0  0  0  0
    8.6950   -3.7590   46.2110 C   0  0  0  0  0  0  0  0  0  0  0  0
    7.5440   -4.7370   48.1130 C   0  0  0  0  0  0  0  0  0  0  0  0
    6.4450   -4.8070   49.1000 C   0  0  0  0  0  0  0  0  0  0  0  0
    6.1910   -3.9580   50.0370 N   0  0  0  0  0  0  0  0  0  0  0  0
    5.6190   -5.8600   49.0190 F   0  0  0  0  0  0  0  0  0  0  0  0
    4.4300   -0.7680   43.0370 C   0  0  0  0  0  0  0  0  0  0  0  0
    4.1330    0.3610   43.7340 F   0  0  0  0  0  0  0  0  0  0  0  0
    5.4890   -0.4500   42.2430 F   0  0  0  0  0  0  0  0  0  0  0  0
    3.3810   -0.9770   42.1920 F   0  0  0  0  0  0  0  0  0  0  0  0
    2.3430   -7.1310   45.3620 C   0  0  0  0  0  0  0  0  0  0  0  0
    1.5320   -6.7230   44.2580 O   0  0  0  0  0  0  0  0  0  0  0  0
    0.3790   -5.9450   44.5960 C   0  0  1  0  0  0  0  0  0  0  0  0
   -0.2450   -6.4880   45.9020 C   0  0  0  0  0  0  0  0  0  0  0  0
   -1.3930   -7.4600   45.7710 C   0  0  0  0  0  0  0  0  0  0  0  0
   -1.9780   -7.7120   44.5230 C   0  0  0  0  0  0  0  0  0  0  0  0
   -1.9090   -8.1110   46.9010 C   0  0  0  0  0  0  0  0  0  0  0  0
   -3.0470   -8.6020   44.4050 C   0  0  0  0  0  0  0  0  0  0  0  0
   -2.9780   -9.0010   46.7810 C   0  0  0  0  0  0  0  0  0  0  0  0
   -3.5460   -9.2470   45.5330 C   0  0  0  0  0  0  0  0  0  0  0  0
    0.6630   -4.4300   44.6150 C   0  0  0  0  0  0  0  0  0  0  0  0
    0.6820   -3.7370   43.2600 C   0  0  0  0  0  0  0  0  0  0  0  0
  1  2  1  0
  1 24  1  0
  2  3  1  0
  3  8  1  0
  3  5  2  0
  4  6  2  0
  4  5  1  0
  4  9  1  0
  6  7  1  0
  7 20  1  0
  7  8  2  0
  9 10  1  0
 10 15  2  0
 10 16  1  0
 11 13  2  0
 11 12  1  0
 11 14  1  0
 13 15  1  0
 14 16  2  0
 16 17  1  0
 17 19  1  0
 17 18  2  3
 20 23  1  0
 20 22  1  0
 20 21  1  0
 24 25  1  0
 25 26  1  0
 26 34  1  1
 26 27  1  0
 27 28  1  0
 28 29  2  0
 28 30  1  0
 29 31  1  0
 30 32  2  0
 31 33  2  0
 32 33  1  0
 34 35  1  0
M  END
>  <vina_dock>  (898) 
-8.369

$$$$
O14757_PocketFlow_idx-in-all-generaetd-243
     RDKit          3D

 35 37  0  0  0  0  0  0  0  0999 V2000
    2.2040   -0.8910   41.2910 C   0  0  0  0  0  0  0  0  0  0  0  0
    3.3070   -1.1540   42.2850 C   0  0  0  0  0  0  0  0  0  0  0  0
    5.3950   -1.6610   44.1300 C   0  0  0  0  0  0  0  0  0  0  0  0
    5.1560   -0.3670   43.6460 C   0  0  0  0  0  0  0  0  0  0  0  0
    4.5760   -2.6960   43.6710 C   0  0  0  0  0  0  0  0  0  0  0  0
    4.1260   -0.1130   42.7360 C   0  0  0  0  0  0  0  0  0  0  0  0
    3.5450   -2.4480   42.7570 C   0  0  0  0  0  0  0  0  0  0  0  0
    6.4420   -1.8460   45.0530 N   0  0  0  0  0  0  0  0  0  0  0  0
    6.5880   -2.7780   46.0860 C   0  0  0  0  0  0  0  0  0  0  0  0
    7.0180   -4.5900   48.1340 C   0  0  0  0  0  0  0  0  0  0  0  0
    8.0340   -4.0840   47.3350 C   0  0  0  0  0  0  0  0  0  0  0  0
    5.7280   -4.1230   47.8860 C   0  0  0  0  0  0  0  0  0  0  0  0
    7.8480   -3.1960   46.3300 N   0  0  0  0  0  0  0  0  0  0  0  0
    5.5140   -3.2080   46.8570 C   0  0  0  0  0  0  0  0  0  0  0  0
    7.3080   -5.5650   49.2440 C   0  0  0  0  0  0  0  0  0  0  0  0
    6.9750   -6.9940   48.8880 C   0  0  0  0  0  0  0  0  0  0  0  0
    5.3780   -8.8490   48.8550 C   0  0  0  0  0  0  0  0  0  0  0  0
    6.3690   -9.6680   48.2950 C   0  0  0  0  0  0  0  0  0  0  0  0
    5.6940   -7.5090   49.1380 C   0  0  0  0  0  0  0  0  0  0  0  0
    7.6440   -9.1660   48.0390 C   0  0  0  0  0  0  0  0  0  0  0  0
    7.9480   -7.8370   48.3370 C   0  0  0  0  0  0  0  0  0  0  0  0
    3.9910   -9.3930   49.1050 C   0  0  1  0  0  0  0  0  0  0  0  0
    3.4540   -8.9730   50.2830 F   0  0  0  0  0  0  0  0  0  0  0  0
    3.0400   -8.9830   48.0870 N   0  0  0  0  0  0  0  0  0  0  0  0
    0.8960   -0.4960   41.9850 C   0  0  0  0  0  0  0  0  0  0  0  0
   -0.2850   -1.3950   41.6080 C   0  0  0  0  0  0  0  0  0  0  0  0
    0.0730   -2.8510   41.5000 C   0  0  0  0  0  0  0  0  0  0  0  0
    0.3920   -3.7040   42.4870 C   0  0  0  0  0  0  0  0  0  0  0  0
    0.5290   -3.3740   43.8890 C   0  0  0  0  0  0  0  0  0  0  0  0
    0.7830   -4.2160   44.9050 C   0  0  0  0  0  0  0  0  0  0  0  0
    0.9150   -5.6550   44.8360 C   0  0  0  0  0  0  0  0  0  0  0  0
    2.0380   -6.3610   45.0420 C   0  0  0  0  0  0  0  0  0  0  0  0
    3.4150   -5.8750   45.3250 C   0  0  2  0  0  0  0  0  0  0  0  0
    4.1620   -5.8980   44.1900 F   0  0  0  0  0  0  0  0  0  0  0  0
    4.0480   -6.7870   46.1940 O   0  0  0  0  0  0  0  0  0  0  0  0
  1 25  1  0
  1  2  1  0
  2  6  2  0
  2  7  1  0
  3  4  2  0
  3  5  1  0
  3  8  1  0
  4  6  1  0
  5  7  2  0
  8  9  1  0
  9 13  2  0
  9 14  1  0
 10 11  2  0
 10 12  1  0
 10 15  1  0
 11 13  1  0
 12 14  2  0
 15 16  1  0
 16 21  1  0
 16 19  2  0
 17 18  2  0
 17 22  1  0
 17 19  1  0
 18 20  1  0
 20 21  2  0
 22 24  1  6
 22 23  1  0
 25 26  1  0
 26 27  1  0
 27 28  2  3
 28 29  1  0
 29 30  2  3
 30 31  1  0
 31 32  2  3
 32 33  1  0
 33 34  1  0
 33 35  1  1
M  END
>  <vina_dock>  (899) 
-7.633

$$$$
O14757_PocketFlow_idx-in-all-generaetd-208
     RDKit          3D

 35 36  0  0  0  0  0  0  0  0999 V2000
    5.2630   -4.1840   45.8810 C   0  0  0  0  0  0  0  0  0  0  0  0
    5.0250   -4.8460   47.0380 C   0  0  0  0  0  0  0  0  0  0  0  0
    4.4890   -4.5800   44.6310 C   0  0  0  0  0  0  0  0  0  0  0  0
    3.0780   -5.0510   44.9140 C   0  0  0  0  0  0  0  0  0  0  0  0
    1.4060   -6.8250   44.9010 C   0  0  0  0  0  0  0  0  0  0  0  0
    2.7090   -6.3810   44.6570 C   0  0  0  0  0  0  0  0  0  0  0  0
    0.4500   -5.9550   45.4250 C   0  0  0  0  0  0  0  0  0  0  0  0
    0.8220   -4.6240   45.6730 C   0  0  0  0  0  0  0  0  0  0  0  0
    2.1190   -4.1710   45.4340 C   0  0  0  0  0  0  0  0  0  0  0  0
   -0.8860   -6.3600   45.6480 N   0  0  0  0  0  0  0  0  0  0  0  0
   -1.1610   -7.7300   45.2200 C   0  0  1  0  0  0  0  0  0  0  0  0
   -0.8590   -8.5660   46.2530 F   0  0  0  0  0  0  0  0  0  0  0  0
   -2.6740   -7.8220   44.8770 C   0  0  0  0  0  0  0  0  0  0  0  0
   -3.5920   -7.8300   45.7970 N   0  0  0  0  0  0  0  0  0  0  0  0
   -3.0670   -7.8710   43.5640 N   0  0  0  0  0  0  0  0  0  0  0  0
   -0.1390   -3.7810   46.1720 O   0  0  0  0  0  0  0  0  0  0  0  0
    6.2540   -3.0450   45.6760 C   0  0  2  0  0  0  0  0  0  0  0  0
    7.6440   -3.2060   46.7980 Cl  0  0  0  0  0  0  0  0  0  0  0  0
    5.6180   -1.6410   45.7280 C   0  0  0  0  0  0  0  0  0  0  0  0
    4.4860   -1.4980   44.8190 N   0  0  0  0  0  0  0  0  0  0  0  0
    4.5910   -0.8080   43.6290 C   0  0  0  0  0  0  0  0  0  0  0  0
    5.6070   -0.2180   43.2800 O   0  0  0  0  0  0  0  0  0  0  0  0
    3.3730   -0.7730   42.7700 C   0  0  0  0  0  0  0  0  0  0  0  0
    2.9450    0.3980   42.1300 C   0  0  0  0  0  0  0  0  0  0  0  0
    2.6250   -1.9500   42.6330 C   0  0  0  0  0  0  0  0  0  0  0  0
    1.8010    0.3780   41.3300 C   0  0  0  0  0  0  0  0  0  0  0  0
    1.4670   -1.9700   41.8470 C   0  0  0  0  0  0  0  0  0  0  0  0
    1.0730   -0.8030   41.1810 C   0  0  0  0  0  0  0  0  0  0  0  0
    0.7130   -3.2200   41.7080 C   0  0  0  0  0  0  0  0  0  0  0  0
   -0.5630   -3.3520   41.3070 C   0  0  0  0  0  0  0  0  0  0  0  0
   -1.4760   -2.2870   40.9540 C   0  0  0  0  0  0  0  0  0  0  0  0
   -2.7340   -2.5120   40.5430 C   0  0  0  0  0  0  0  0  0  0  0  0
   -3.6970   -1.4260   40.1870 C   0  0  0  0  0  0  0  0  0  0  0  0
    5.6490   -4.6550   48.3870 C   0  0  0  0  0  0  0  0  0  0  0  0
    5.7780   -5.9370   49.0590 N   0  0  0  0  0  0  0  0  0  0  0  0
  1  3  1  0
  1 17  1  0
  1  2  2  3
  2 34  1  0
  3  4  1  0
  4  6  1  0
  4  9  2  0
  5  6  2  0
  5  7  1  0
  7 10  1  0
  7  8  2  0
  8  9  1  0
  8 16  1  0
 10 11  1  0
 11 13  1  0
 11 12  1  1
 13 15  1  0
 13 14  2  3
 17 19  1  0
 17 18  1  1
 19 20  1  0
 20 21  1  0
 21 23  1  0
 21 22  2  0
 23 24  2  0
 23 25  1  0
 24 26  1  0
 25 27  2  0
 26 28  2  0
 27 28  1  0
 27 29  1  0
 29 30  2  3
 30 31  1  0
 31 32  2  3
 32 33  1  0
 34 35  1  0
M  END
>  <vina_dock>  (900) 
-8.485

$$$$
O14757_PocketFlow_idx-in-all-generaetd-364
     RDKit          3D

 34 35  0  0  0  0  0  0  0  0999 V2000
    4.4420   -3.8320   46.7050 C   0  0  0  0  0  0  0  0  0  0  0  0
    3.2090   -4.4580   46.0490 C   0  0  0  0  0  0  0  0  0  0  0  0
    3.5380   -5.6070   45.0940 C   0  0  0  0  0  0  0  0  0  0  0  0
    2.4970   -6.7300   45.0100 C   0  0  0  0  0  0  0  0  0  0  0  0
    1.0870   -6.3460   45.4550 C   0  0  0  0  0  0  0  0  0  0  0  0
   -0.0030   -6.8940   44.5530 C   0  0  0  0  0  0  0  0  0  0  0  0
   -0.0520   -6.5640   43.3680 O   0  0  0  0  0  0  0  0  0  0  0  0
   -1.0190   -7.8490   45.0930 C   0  0  0  0  0  0  0  0  0  0  0  0
   -1.5760   -9.5340   46.7630 C   0  0  0  0  0  0  0  0  0  0  0  0
   -0.6700   -8.6280   46.2040 C   0  0  0  0  0  0  0  0  0  0  0  0
   -2.8440   -9.6680   46.1980 C   0  0  0  0  0  0  0  0  0  0  0  0
   -3.1980   -8.9020   45.0850 C   0  0  0  0  0  0  0  0  0  0  0  0
   -2.2920   -7.9950   44.5320 C   0  0  0  0  0  0  0  0  0  0  0  0
   -1.1030  -10.2210   47.8470 O   0  0  0  0  0  0  0  0  0  0  0  0
   -0.3800   -9.4780   48.8190 C   0  0  0  0  0  0  0  0  0  0  0  0
    5.6640   -3.9520   45.7870 C   0  0  0  0  0  0  0  0  0  0  0  0
    6.7180   -2.8490   46.0200 C   0  0  2  0  0  0  0  0  0  0  0  0
    6.8070   -1.7900   44.8970 C   0  0  0  0  0  0  0  0  0  0  0  0
    5.5160   -1.1260   44.4000 C   0  0  0  0  0  0  0  0  0  0  0  0
    4.9340   -1.7200   43.1170 C   0  0  0  0  0  0  0  0  0  0  0  0
    3.7980   -0.8480   42.5710 C   0  0  0  0  0  0  0  0  0  0  0  0
    2.5120   -1.6300   42.4230 C   0  0  0  0  0  0  0  0  0  0  0  0
    2.3740   -2.8350   43.1330 C   0  0  0  0  0  0  0  0  0  0  0  0
    1.4630   -1.2240   41.5830 C   0  0  0  0  0  0  0  0  0  0  0  0
    1.2160   -3.6060   43.0180 C   0  0  0  0  0  0  0  0  0  0  0  0
    1.5420    0.2330   40.6570 Cl  0  0  0  0  0  0  0  0  0  0  0  0
    0.3040   -2.0000   41.4700 C   0  0  0  0  0  0  0  0  0  0  0  0
    0.1800   -3.1890   42.1860 C   0  0  0  0  0  0  0  0  0  0  0  0
    8.0650   -3.4810   46.3100 C   0  0  0  0  0  0  0  0  0  0  0  0
    8.5090   -3.9930   47.4710 C   0  0  0  0  0  0  0  0  0  0  0  0
    7.8010   -3.9980   48.7300 C   0  0  0  0  0  0  0  0  0  0  0  0
    7.1970   -5.0540   49.2990 C   0  0  0  0  0  0  0  0  0  0  0  0
    7.0640   -6.4540   48.7700 C   0  0  0  0  0  0  0  0  0  0  0  0
    5.6210   -6.7760   48.4170 C   0  0  0  0  0  0  0  0  0  0  0  0
  1 16  1  0
  1  2  1  0
  2  3  1  0
  3  4  1  0
  4  5  1  0
  5  6  1  0
  6  7  2  0
  6  8  1  0
  8 13  1  0
  8 10  2  0
  9 11  2  0
  9 10  1  0
  9 14  1  0
 11 12  1  0
 12 13  2  0
 14 15  1  0
 17 16  1  6
 17 18  1  0
 17 29  1  0
 18 19  1  0
 19 20  1  0
 20 21  1  0
 21 22  1  0
 22 24  1  0
 22 23  2  0
 23 25  1  0
 24 26  1  0
 24 27  2  0
 25 28  2  0
 27 28  1  0
 29 30  2  3
 30 31  1  0
 31 32  2  3
 32 33  1  0
 33 34  1  0
M  END
>  <vina_dock>  (901) 
-7.374

$$$$
O14757_PocketFlow_idx-in-all-generaetd-134
     RDKit          3D

 35 37  0  0  0  0  0  0  0  0999 V2000
    6.1040   -2.1000   45.4150 C   0  0  0  0  0  0  0  0  0  0  0  0
    7.2380   -2.8560   45.7470 C   0  0  0  0  0  0  0  0  0  0  0  0
    7.1880   -3.8070   46.7710 C   0  0  0  0  0  0  0  0  0  0  0  0
    6.0000   -4.0160   47.4800 C   0  0  0  0  0  0  0  0  0  0  0  0
    4.8660   -3.2600   47.1550 C   0  0  0  0  0  0  0  0  0  0  0  0
    4.9170   -2.3080   46.1320 C   0  0  0  0  0  0  0  0  0  0  0  0
    6.1640   -1.0840   44.2970 C   0  0  0  0  0  0  0  0  0  0  0  0
    4.8170   -0.6700   43.8980 N   0  0  0  0  0  0  0  0  0  0  0  0
    4.3470   -1.3860   42.7160 C   0  0  0  0  0  0  0  0  0  0  0  0
    3.0840   -2.1740   42.9640 C   0  0  0  0  0  0  0  0  0  0  0  0
    0.8100   -2.7680   42.3600 C   0  0  0  0  0  0  0  0  0  0  0  0
   -0.5430   -2.5790   41.3100 Cl  0  0  0  0  0  0  0  0  0  0  0  0
    1.9740   -2.0350   42.1200 C   0  0  0  0  0  0  0  0  0  0  0  0
    0.7310   -3.6500   43.4350 C   0  0  0  0  0  0  0  0  0  0  0  0
    1.8310   -3.7970   44.2870 C   0  0  0  0  0  0  0  0  0  0  0  0
    3.0000   -3.0600   44.0500 C   0  0  0  0  0  0  0  0  0  0  0  0
    1.8050   -4.7210   45.4470 C   0  0  0  0  0  0  0  0  0  0  0  0
    2.6430   -5.5630   45.7080 O   0  0  0  0  0  0  0  0  0  0  0  0
    0.7270   -4.5440   46.2300 O   0  0  0  0  0  0  0  0  0  0  0  0
    5.9010   -5.0250   48.5650 C   0  0  0  0  0  0  0  0  0  0  0  0
    5.6750   -6.2680   48.3510 N   0  0  0  0  0  0  0  0  0  0  0  0
    6.0640   -4.4740   49.7810 O   0  0  0  0  0  0  0  0  0  0  0  0
    5.6230   -7.2450   49.4370 C   0  0  0  0  0  0  0  0  0  0  0  0
    5.3800   -8.6540   48.8960 C   0  0  1  0  0  0  0  0  0  0  0  0
    4.3340   -9.4830   49.6440 C   0  0  2  0  0  0  0  0  0  0  0  0
    4.9510   -8.5830   47.5190 O   0  0  0  0  0  0  0  0  0  0  0  0
    3.9050  -10.4560   48.5680 C   0  0  0  0  0  0  0  0  0  0  0  0
    3.9850   -9.6230   47.2900 C   0  0  1  0  0  0  0  0  0  0  0  0
    3.2050   -8.7200   50.0610 O   0  0  0  0  0  0  0  0  0  0  0  0
    2.6890   -8.9610   46.9210 C   0  0  0  0  0  0  0  0  0  0  0  0
    1.5030   -9.5880   46.8830 C   0  0  0  0  0  0  0  0  0  0  0  0
    0.2760   -8.9140   46.5190 C   0  0  0  0  0  0  0  0  0  0  0  0
    0.1960   -8.0410   45.5050 C   0  0  0  0  0  0  0  0  0  0  0  0
   -1.0340   -7.3760   45.1400 C   0  0  0  0  0  0  0  0  0  0  0  0
   -1.8740   -7.8490   44.2130 C   0  0  0  0  0  0  0  0  0  0  0  0
  1  7  1  0
  1  2  2  0
  1  6  1  0
  2  3  1  0
  3  4  2  0
  4  5  1  0
  4 20  1  0
  5  6  2  0
  7  8  1  0
  8  9  1  0
  9 10  1  0
 10 13  1  0
 10 16  2  0
 11 12  1  0
 11 13  2  0
 11 14  1  0
 14 15  2  0
 15 16  1  0
 15 17  1  0
 17 18  2  0
 17 19  1  0
 20 21  2  3
 20 22  1  0
 21 23  1  0
 24 23  1  1
 24 26  1  0
 24 25  1  0
 25 27  1  0
 25 29  1  6
 26 28  1  0
 28 27  1  1
 28 30  1  0
 30 31  2  3
 31 32  1  0
 32 33  2  3
 33 34  1  0
 34 35  2  0
M  END
>  <vina_dock>  (902) 
-8.78

$$$$
O14757_PocketFlow_idx-in-all-generaetd-678
     RDKit          3D

 35 38  0  0  0  0  0  0  0  0999 V2000
    2.3780   -4.9370   44.7450 C   0  0  0  0  0  0  0  0  0  0  0  0
    1.0700   -4.8700   45.2430 C   0  0  0  0  0  0  0  0  0  0  0  0
    3.0390   -6.1720   44.7800 C   0  0  0  0  0  0  0  0  0  0  0  0
    2.4080   -7.3110   45.2900 C   0  0  0  0  0  0  0  0  0  0  0  0
    0.4360   -6.0090   45.7480 C   0  0  0  0  0  0  0  0  0  0  0  0
    1.0910   -7.2490   45.7620 C   0  0  0  0  0  0  0  0  0  0  0  0
    3.0420   -3.7450   44.2050 C   0  0  0  0  0  0  0  0  0  0  0  0
    4.9600   -2.2440   44.1330 C   0  0  0  0  0  0  0  0  0  0  0  0
    4.3080   -1.4540   43.1810 C   0  0  0  0  0  0  0  0  0  0  0  0
    4.3240   -3.3800   44.6430 C   0  0  0  0  0  0  0  0  0  0  0  0
    3.0270   -1.7950   42.7240 C   0  0  0  0  0  0  0  0  0  0  0  0
    2.4070   -2.9450   43.2420 C   0  0  0  0  0  0  0  0  0  0  0  0
    6.3010   -1.8920   44.5970 C   0  0  0  0  0  0  0  0  0  0  0  0
    6.8860   -2.3970   45.6960 C   0  0  0  0  0  0  0  0  0  0  0  0
    6.2990   -3.3780   46.6610 C   0  0  0  0  0  0  0  0  0  0  0  0
    7.2180   -4.4490   46.8340 O   0  0  0  0  0  0  0  0  0  0  0  0
    2.3200   -0.9180   41.7050 C   0  0  2  0  0  0  0  0  0  0  0  0
    2.3980    0.4090   42.0470 F   0  0  0  0  0  0  0  0  0  0  0  0
    0.8780   -1.3390   41.4810 C   0  0  0  0  0  0  0  0  0  0  0  0
    0.5690   -2.6780   41.2000 C   0  0  0  0  0  0  0  0  0  0  0  0
   -0.1660   -0.4010   41.5320 C   0  0  0  0  0  0  0  0  0  0  0  0
   -0.7520   -3.0710   40.9750 C   0  0  0  0  0  0  0  0  0  0  0  0
   -1.4850   -0.7960   41.3060 C   0  0  0  0  0  0  0  0  0  0  0  0
   -1.7780   -2.1300   41.0280 C   0  0  0  0  0  0  0  0  0  0  0  0
    0.3770   -8.4560   46.3360 C   0  0  0  0  0  0  0  0  0  0  0  0
   -1.0870   -8.6140   45.9520 C   0  0  0  0  0  0  0  0  0  0  0  0
   -1.5180   -7.9900   44.7620 C   0  0  0  0  0  0  0  0  0  0  0  0
   -2.0200   -9.3450   46.7290 C   0  0  0  0  0  0  0  0  0  0  0  0
   -2.8380   -8.0910   44.3310 C   0  0  0  0  0  0  0  0  0  0  0  0
   -3.3470   -9.4430   46.2620 C   0  0  0  0  0  0  0  0  0  0  0  0
   -3.7510   -8.8210   45.0790 C   0  0  0  0  0  0  0  0  0  0  0  0
   -1.6030  -10.0610   48.0120 C   0  0  1  0  0  0  0  0  0  0  0  0
   -0.6180   -9.2890   48.8990 C   0  0  0  0  0  0  0  0  0  0  0  0
   -2.7710  -10.4950   48.8790 C   0  0  0  0  0  0  0  0  0  0  0  0
   -2.9770  -10.1480   50.1090 N   0  0  0  0  0  0  0  0  0  0  0  0
  1  7  1  0
  1  3  1  0
  1  2  2  0
  2  5  1  0
  3  4  2  0
  4  6  1  0
  5  6  2  0
  6 25  1  0
  7 12  1  0
  7 10  2  0
  8  9  2  0
  8 13  1  0
  8 10  1  0
  9 11  1  0
 11 17  1  0
 11 12  2  0
 13 14  2  3
 14 15  1  0
 15 16  1  0
 17 19  1  0
 17 18  1  1
 19 20  2  0
 19 21  1  0
 20 22  1  0
 21 23  2  0
 22 24  2  0
 23 24  1  0
 25 26  1  0
 26 27  2  0
 26 28  1  0
 27 29  1  0
 28 30  2  0
 28 32  1  0
 29 31  2  0
 30 31  1  0
 32 34  1  0
 32 33  1  1
 34 35  2  3
M  END
>  <vina_dock>  (903) 
-10.618

$$$$
O14757_PocketFlow_idx-in-all-generaetd-494
     RDKit          3D

  9  9  0  0  0  0  0  0  0  0999 V2000
    1.4840   -1.9980   41.8060 C   0  0  0  0  0  0  0  0  0  0  0  0
    0.6730   -2.9850   42.3660 C   0  0  0  0  0  0  0  0  0  0  0  0
    2.7540   -1.7540   42.3340 C   0  0  0  0  0  0  0  0  0  0  0  0
    3.2120   -2.4980   43.4250 C   0  0  0  0  0  0  0  0  0  0  0  0
    2.3980   -3.4850   43.9840 C   0  0  0  0  0  0  0  0  0  0  0  0
    1.1300   -3.7280   43.4550 C   0  0  0  0  0  0  0  0  0  0  0  0
    4.5120   -2.2470   43.9670 C   0  0  0  0  0  0  0  0  0  0  0  0
    5.6030   -2.0360   44.4220 C   0  0  0  0  0  0  0  0  0  0  0  0
    6.9320   -1.7800   44.9760 C   0  0  0  0  0  0  0  0  0  0  0  0
  1  3  2  0
  1  2  1  0
  2  6  2  0
  3  4  1  0
  4  7  1  0
  4  5  2  0
  5  6  1  0
  7  8  3  0
  8  9  1  0
M  END
>  <vina_dock>  (904) 
-5.551

$$$$
O14757_PocketFlow_idx-in-all-generaetd-175
     RDKit          3D

 35 38  0  0  0  0  0  0  0  0999 V2000
   -0.6230   -7.2880   45.5180 C   0  0  0  0  0  0  0  0  0  0  0  0
   -0.4350   -5.9230   45.2840 C   0  0  0  0  0  0  0  0  0  0  0  0
    0.8500   -5.3560   45.3170 C   0  0  0  0  0  0  0  0  0  0  0  0
    1.9840   -6.1550   45.5900 C   0  0  0  0  0  0  0  0  0  0  0  0
    1.7870   -7.5370   45.8130 C   0  0  0  0  0  0  0  0  0  0  0  0
    0.4950   -8.0890   45.7770 C   0  0  0  0  0  0  0  0  0  0  0  0
   -1.9810   -7.9210   45.4930 C   0  0  0  0  0  0  0  0  0  0  0  0
   -2.8170   -8.1390   43.9700 Cl  0  0  0  0  0  0  0  0  0  0  0  0
   -2.4600   -8.2630   46.5730 O   0  0  0  0  0  0  0  0  0  0  0  0
    0.9490   -3.9120   45.0660 C   0  0  0  0  0  0  0  0  0  0  0  0
    0.8140   -3.3380   43.8600 C   0  0  0  0  0  0  0  0  0  0  0  0
    0.5090   -4.0130   42.5530 C   0  0  0  0  0  0  0  0  0  0  0  0
    0.5670   -3.0360   41.4150 C   0  0  0  0  0  0  0  0  0  0  0  0
    1.2750   -1.8990   41.4290 C   0  0  0  0  0  0  0  0  0  0  0  0
    2.9250   -8.4610   46.0590 C   0  0  0  0  0  0  0  0  0  0  0  0
    3.9870   -8.1930   46.5850 O   0  0  0  0  0  0  0  0  0  0  0  0
    2.6440   -9.7080   45.6390 O   0  0  0  0  0  0  0  0  0  0  0  0
    3.3680   -5.5320   45.6480 C   0  0  0  0  0  0  0  0  0  0  0  0
    3.8830   -5.1280   44.2620 C   0  0  0  0  0  0  0  0  0  0  0  0
    4.6150   -3.8090   44.3110 C   0  0  0  0  0  0  0  0  0  0  0  0
    5.7270   -3.6530   45.1510 C   0  0  0  0  0  0  0  0  0  0  0  0
    4.1760   -2.7200   43.5500 C   0  0  0  0  0  0  0  0  0  0  0  0
    6.4060   -2.4270   45.2350 C   0  0  0  0  0  0  0  0  0  0  0  0
    4.8450   -1.4980   43.6200 C   0  0  0  0  0  0  0  0  0  0  0  0
    5.9530   -1.3530   44.4560 C   0  0  0  0  0  0  0  0  0  0  0  0
    7.5700   -2.2730   46.1220 C   0  0  0  0  0  0  0  0  0  0  0  0
    7.7130   -3.0120   47.3320 C   0  0  0  0  0  0  0  0  0  0  0  0
    8.5730   -1.3590   45.7470 C   0  0  0  0  0  0  0  0  0  0  0  0
    6.7580   -3.9500   47.7920 C   0  0  0  0  0  0  0  0  0  0  0  0
    8.8680   -2.8060   48.1300 C   0  0  0  0  0  0  0  0  0  0  0  0
    9.7000   -1.1660   46.5400 C   0  0  0  0  0  0  0  0  0  0  0  0
    6.9350   -4.6540   48.9850 C   0  0  0  0  0  0  0  0  0  0  0  0
    9.8440   -1.8850   47.7220 C   0  0  0  0  0  0  0  0  0  0  0  0
    9.0310   -3.5230   49.3280 C   0  0  0  0  0  0  0  0  0  0  0  0
    8.0720   -4.4400   49.7530 C   0  0  0  0  0  0  0  0  0  0  0  0
  1  2  2  0
  1  7  1  0
  1  6  1  0
  2  3  1  0
  3 10  1  0
  3  4  2  0
  4 18  1  0
  4  5  1  0
  5  6  2  0
  5 15  1  0
  7  8  1  0
  7  9  2  0
 10 11  2  3
 11 12  1  0
 12 13  1  0
 13 14  2  0
 15 17  1  0
 15 16  2  0
 18 19  1  0
 19 20  1  0
 20 22  1  0
 20 21  2  0
 21 23  1  0
 22 24  2  0
 23 25  2  0
 23 26  1  0
 24 25  1  0
 26 28  2  0
 26 27  1  0
 27 29  2  0
 27 30  1  0
 28 31  1  0
 29 32  1  0
 30 33  1  0
 30 34  2  0
 31 33  2  0
 32 35  2  0
 34 35  1  0
M  END
>  <vina_dock>  (905) 
-9.442

$$$$
O14757_PocketFlow_idx-in-all-generaetd-796
     RDKit          3D

 10 10  0  0  0  0  0  0  0  0999 V2000
    1.0410   -2.9120   42.4410 C   0  0  0  0  0  0  0  0  0  0  0  0
   -0.0500   -3.1990   41.4150 C   0  0  0  0  0  0  0  0  0  0  0  0
   -1.2590   -2.5630   41.8120 O   0  0  0  0  0  0  0  0  0  0  0  0
    1.9880   -1.7890   42.0160 C   0  0  0  0  0  0  0  0  0  0  0  0
    3.2680   -1.7330   42.8120 C   0  0  0  0  0  0  0  0  0  0  0  0
    4.1200   -0.6240   42.7110 C   0  0  0  0  0  0  0  0  0  0  0  0
    3.6220   -2.7850   43.6670 C   0  0  0  0  0  0  0  0  0  0  0  0
    5.3010   -0.5700   43.4530 C   0  0  0  0  0  0  0  0  0  0  0  0
    4.8040   -2.7280   44.4080 C   0  0  0  0  0  0  0  0  0  0  0  0
    5.6430   -1.6200   44.3010 C   0  0  0  0  0  0  0  0  0  0  0  0
  1  2  1  0
  1  4  1  0
  2  3  1  0
  4  5  1  0
  5  6  2  0
  5  7  1  0
  6  8  1  0
  7  9  2  0
  8 10  2  0
  9 10  1  0
M  END
>  <vina_dock>  (906) 
-5.464

$$$$
O14757_PocketFlow_idx-in-all-generaetd-396
     RDKit          3D

 13 12  0  0  0  0  0  0  0  0999 V2000
    3.8770   -3.2580   45.1870 C   0  0  0  0  0  0  0  0  0  0  0  0
    4.8210   -2.5610   44.2010 C   0  0  0  0  0  0  0  0  0  0  0  0
    4.0760   -1.7980   43.0960 C   0  0  0  0  0  0  0  0  0  0  0  0
    4.7420   -0.4520   42.7910 C   0  0  1  0  0  0  0  0  0  0  0  0
    3.7860    0.5770   42.6890 O   0  0  0  0  0  0  0  0  0  0  0  0
    5.6580   -0.0780   43.8380 N   0  0  0  0  0  0  0  0  0  0  0  0
    3.3320   -4.5530   44.6580 C   0  0  0  0  0  0  0  0  0  0  0  0
    2.0440   -4.8780   44.4530 C   0  0  0  0  0  0  0  0  0  0  0  0
    0.8270   -4.0490   44.7240 C   0  0  0  0  0  0  0  0  0  0  0  0
    0.7190   -3.0070   43.7020 N   0  0  0  0  0  0  0  0  0  0  0  0
    0.5150   -3.4520   42.5110 C   0  0  0  0  0  0  0  0  0  0  0  0
    0.3740   -2.5330   41.3220 C   0  0  0  0  0  0  0  0  0  0  0  0
    0.7210   -1.0840   41.6070 C   0  0  0  0  0  0  0  0  0  0  0  0
  1  2  1  0
  1  7  1  0
  2  3  1  0
  3  4  1  0
  4  5  1  0
  4  6  1  1
  7  8  2  3
  8  9  1  0
  9 10  1  0
 10 11  1  0
 11 12  1  0
 12 13  1  0
M  END
>  <vina_dock>  (907) 
-5.401

$$$$
O14757_PocketFlow_idx-in-all-generaetd-262
     RDKit          3D

 35 38  0  0  0  0  0  0  0  0999 V2000
    2.7560   -4.9190   45.9160 C   0  0  1  0  0  0  0  0  0  0  0  0
    4.1480   -4.3450   46.0710 C   0  0  0  0  0  0  0  0  0  0  0  0
    4.5980   -3.3660   45.1910 C   0  0  0  0  0  0  0  0  0  0  0  0
    3.7030   -2.7710   44.1340 C   0  0  0  0  0  0  0  0  0  0  0  0
    1.8510   -3.8920   45.2050 C   0  0  0  0  0  0  0  0  0  0  0  0
    2.4260   -3.4900   43.9090 N   0  0  0  0  0  0  0  0  0  0  0  0
    4.9180   -4.8550   47.0630 N   0  0  0  0  0  0  0  0  0  0  0  0
    6.1770   -4.3660   47.1840 C   0  0  0  0  0  0  0  0  0  0  0  0
    6.7340   -3.3740   46.3800 C   0  0  0  0  0  0  0  0  0  0  0  0
    5.9050   -2.8850   45.3620 C   0  0  0  0  0  0  0  0  0  0  0  0
    2.8640   -6.2900   45.2030 C   0  0  0  0  0  0  0  0  0  0  0  0
    1.7760   -7.2820   45.6000 C   0  0  0  0  0  0  0  0  0  0  0  0
    0.4220   -6.8890   45.0840 C   0  0  0  0  0  0  0  0  0  0  0  0
   -0.5180   -6.5540   45.7940 O   0  0  0  0  0  0  0  0  0  0  0  0
    0.1940   -6.9760   43.7670 F   0  0  0  0  0  0  0  0  0  0  0  0
    1.4940   -2.6480   43.1340 C   0  0  1  0  0  0  0  0  0  0  0  0
    2.1450   -1.8800   41.9760 C   0  0  0  0  0  0  0  0  0  0  0  0
    0.3880   -3.4280   42.4040 C   0  0  0  0  0  0  0  0  0  0  0  0
    0.9390   -1.3810   41.1940 C   0  0  0  0  0  0  0  0  0  0  0  0
   -0.0370   -2.5600   41.2000 C   0  0  2  0  0  0  0  0  0  0  0  0
   -1.5180   -2.1550   41.2650 C   0  0  0  0  0  0  0  0  0  0  0  0
   -1.7450   -0.6410   41.2830 C   0  0  0  0  0  0  0  0  0  0  0  0
   -3.1540   -0.2430   40.9290 C   0  0  0  0  0  0  0  0  0  0  0  0
   -3.7550    0.7490   41.3050 O   0  0  0  0  0  0  0  0  0  0  0  0
   -3.7610   -1.1510   40.1420 O   0  0  0  0  0  0  0  0  0  0  0  0
    8.1010   -2.8640   46.5750 C   0  0  0  0  0  0  0  0  0  0  0  0
    9.0010   -3.7620   47.0470 N   0  0  0  0  0  0  0  0  0  0  0  0
    8.4730   -1.5520   46.2780 C   0  0  0  0  0  0  0  0  0  0  0  0
   10.2730   -3.3460   47.2440 C   0  0  0  0  0  0  0  0  0  0  0  0
    9.7930   -1.1500   46.4840 C   0  0  0  0  0  0  0  0  0  0  0  0
   10.7230   -2.0590   46.9830 C   0  0  0  0  0  0  0  0  0  0  0  0
   12.1590   -1.6700   47.2160 C   0  0  0  0  0  0  0  0  0  0  0  0
   13.0210   -1.6810   45.9470 C   0  0  0  0  0  0  0  0  0  0  0  0
   13.8230   -0.4210   45.7630 C   0  0  0  0  0  0  0  0  0  0  0  0
   13.7620    0.6330   46.5850 C   0  0  0  0  0  0  0  0  0  0  0  0
  1 11  1  6
  1  5  1  0
  1  2  1  0
  2  3  2  0
  2  7  1  0
  3  4  1  0
  3 10  1  0
  4  6  1  0
  5  6  1  0
 16  6  1  6
  7  8  2  0
  8  9  1  0
  9 10  2  0
  9 26  1  0
 11 12  1  0
 12 13  1  0
 13 15  1  0
 13 14  2  0
 16 17  1  0
 16 18  1  0
 17 19  1  0
 18 20  1  0
 19 20  1  0
 20 21  1  1
 21 22  1  0
 22 23  1  0
 23 25  1  0
 23 24  2  0
 26 28  1  0
 26 27  2  0
 27 29  1  0
 28 30  2  0
 29 31  2  0
 30 31  1  0
 31 32  1  0
 32 33  1  0
 33 34  1  0
 34 35  2  0
M  END
>  <vina_dock>  (908) 
-8.114

$$$$
O14757_PocketFlow_idx-in-all-generaetd-561
     RDKit          3D

 35 41  0  0  0  0  0  0  0  0999 V2000
    9.9790   -4.9680   48.5780 C   0  0  0  0  0  0  0  0  0  0  0  0
   10.3770   -5.8670   47.5780 C   0  0  0  0  0  0  0  0  0  0  0  0
   10.2430   -7.2520   47.7560 C   0  0  0  0  0  0  0  0  0  0  0  0
    9.6900   -7.7340   48.9480 C   0  0  0  0  0  0  0  0  0  0  0  0
    9.2870   -6.8480   49.9470 C   0  0  0  0  0  0  0  0  0  0  0  0
    9.4290   -5.4730   49.7630 C   0  0  0  0  0  0  0  0  0  0  0  0
   10.1140   -3.4770   48.3690 C   0  0  0  0  0  0  0  0  0  0  0  0
    9.1520   -2.9220   47.3450 C   0  0  0  0  0  0  0  0  0  0  0  0
    1.4920   -4.0770   43.4470 C   0  0  0  0  0  0  0  0  0  0  0  0
    1.2140   -5.3290   44.1900 C   0  0  0  0  0  0  0  0  0  0  0  0
    0.6080   -3.5500   42.4860 C   0  0  0  0  0  0  0  0  0  0  0  0
    2.7030   -3.3770   43.7000 C   0  0  0  0  0  0  0  0  0  0  0  0
    2.2170   -5.8410   45.0370 C   0  0  0  0  0  0  0  0  0  0  0  0
    0.0150   -6.0600   44.0880 C   0  0  0  0  0  0  0  0  0  0  0  0
    0.8930   -2.3670   41.8030 C   0  0  0  0  0  0  0  0  0  0  0  0
    3.6570   -3.8950   44.6420 N   0  0  0  0  0  0  0  0  0  0  0  0
    2.9750   -2.1720   43.0240 C   0  0  0  0  0  0  0  0  0  0  0  0
    3.4350   -5.1350   45.2210 N   0  0  0  0  0  0  0  0  0  0  0  0
    2.0220   -7.0390   45.7430 C   0  0  0  0  0  0  0  0  0  0  0  0
   -0.1750   -7.2540   44.7920 C   0  0  0  0  0  0  0  0  0  0  0  0
    2.0680   -1.6780   42.0740 C   0  0  0  0  0  0  0  0  0  0  0  0
    4.8760   -3.2060   44.9390 C   0  0  0  0  0  0  0  0  0  0  0  0
    4.2060   -1.3630   43.3390 C   0  0  0  0  0  0  0  0  0  0  0  0
    0.8290   -7.7450   45.6190 C   0  0  0  0  0  0  0  0  0  0  0  0
    5.7960   -3.7030   45.8830 C   0  0  0  0  0  0  0  0  0  0  0  0
    5.1880   -2.0090   44.2810 C   0  0  0  0  0  0  0  0  0  0  0  0
    4.8260   -0.9350   42.1930 F   0  0  0  0  0  0  0  0  0  0  0  0
    7.0180   -3.0570   46.1490 C   0  0  0  0  0  0  0  0  0  0  0  0
    6.4110   -1.3570   44.5370 C   0  0  0  0  0  0  0  0  0  0  0  0
    7.9310   -3.5670   47.0890 C   0  0  0  0  0  0  0  0  0  0  0  0
    7.3320   -1.8710   45.4600 C   0  0  0  0  0  0  0  0  0  0  0  0
    8.5490   -1.2240   45.7200 C   0  0  0  0  0  0  0  0  0  0  0  0
    9.4490   -1.7430   46.6540 C   0  0  0  0  0  0  0  0  0  0  0  0
   10.6540   -8.2050   46.6630 C   0  0  0  0  0  0  0  0  0  0  0  0
    9.4720   -9.0030   46.1360 C   0  0  0  0  0  0  0  0  0  0  0  0
  1  2  2  0
  1  7  1  0
  1  6  1  0
  2  3  1  0
  3 34  1  0
  3  4  2  0
  4  5  1  0
  5  6  2  0
  7  8  1  0
  8 33  1  0
  8 30  2  0
  9 11  1  0
  9 12  2  0
  9 10  1  0
 10 14  2  0
 10 13  1  0
 11 15  2  0
 12 17  1  0
 12 16  1  0
 13 18  1  0
 13 19  2  0
 14 20  1  0
 15 21  1  0
 16 22  1  0
 16 18  1  0
 17 21  1  0
 17 23  2  0
 19 24  1  0
 20 24  2  0
 22 26  2  0
 22 25  1  0
 23 27  1  0
 23 26  1  0
 25 28  2  0
 26 29  1  0
 28 31  1  0
 28 30  1  0
 29 31  2  0
 31 32  1  0
 32 33  2  0
 34 35  1  0
M  END
>  <vina_dock>  (909) 
-11.13

$$$$
O14757_PocketFlow_idx-in-all-generaetd-375
     RDKit          3D

 17 18  0  0  0  0  0  0  0  0999 V2000
   -0.0050   -6.0370   45.7590 C   0  0  0  0  0  0  0  0  0  0  0  0
    0.6440   -5.9650   44.5880 C   0  0  0  0  0  0  0  0  0  0  0  0
   -1.1580   -6.8990   45.9430 C   0  0  0  0  0  0  0  0  0  0  0  0
   -1.7170   -7.6830   45.0060 C   0  0  0  0  0  0  0  0  0  0  0  0
   -2.9170   -8.5390   45.2550 C   0  0  0  0  0  0  0  0  0  0  0  0
    0.3640   -5.2510   46.8300 O   0  0  0  0  0  0  0  0  0  0  0  0
    1.7970   -5.0860   44.3320 C   0  0  0  0  0  0  0  0  0  0  0  0
    3.0650   -5.5550   44.7030 C   0  0  0  0  0  0  0  0  0  0  0  0
    1.6640   -3.8030   43.7510 C   0  0  0  0  0  0  0  0  0  0  0  0
    4.1960   -4.7660   44.5070 C   0  0  0  0  0  0  0  0  0  0  0  0
    0.4040   -3.3180   43.2970 N   0  0  0  0  0  0  0  0  0  0  0  0
    2.8100   -3.0030   43.5600 C   0  0  0  0  0  0  0  0  0  0  0  0
    4.0680   -3.4960   43.9460 C   0  0  0  0  0  0  0  0  0  0  0  0
    0.3270   -3.3530   41.8360 C   0  0  0  0  0  0  0  0  0  0  0  0
    2.6930   -1.5930   43.0270 C   0  0  0  0  0  0  0  0  0  0  0  0
    1.0320   -2.1970   41.1900 C   0  0  0  0  0  0  0  0  0  0  0  0
    2.0190   -1.4370   41.6940 C   0  0  0  0  0  0  0  0  0  0  0  0
  1  2  2  3
  1  3  1  0
  1  6  1  0
  2  7  1  0
  3  4  2  3
  4  5  1  0
  7  9  2  0
  7  8  1  0
  8 10  2  0
  9 11  1  0
  9 12  1  0
 10 13  1  0
 11 14  1  0
 12 15  1  0
 12 13  2  0
 14 16  1  0
 15 17  1  0
 16 17  2  0
M  END
>  <vina_dock>  (910) 
-7.826

$$$$
O14757_PocketFlow_idx-in-all-generaetd-676
     RDKit          3D

 16 17  0  0  0  0  0  0  0  0999 V2000
    3.2300   -3.4820   44.3850 C   0  0  0  0  0  0  0  0  0  0  0  0
    2.3490   -2.9920   43.4070 C   0  0  0  0  0  0  0  0  0  0  0  0
    1.0860   -3.5720   43.2080 C   0  0  0  0  0  0  0  0  0  0  0  0
    0.7000   -4.6730   43.9800 C   0  0  0  0  0  0  0  0  0  0  0  0
    1.5630   -5.1730   44.9550 C   0  0  0  0  0  0  0  0  0  0  0  0
    2.8130   -4.5800   45.1570 C   0  0  0  0  0  0  0  0  0  0  0  0
    4.5520   -2.8670   44.5930 C   0  0  0  0  0  0  0  0  0  0  0  0
    7.8860   -3.6060   46.7020 Cl  0  0  0  0  0  0  0  0  0  0  0  0
    6.7480   -2.8670   45.6420 C   0  0  0  0  0  0  0  0  0  0  0  0
    7.0830   -1.6840   44.9890 C   0  0  0  0  0  0  0  0  0  0  0  0
    5.4970   -3.4570   45.4490 C   0  0  0  0  0  0  0  0  0  0  0  0
    6.1600   -1.0860   44.1350 C   0  0  0  0  0  0  0  0  0  0  0  0
    4.9070   -1.6730   43.9400 C   0  0  0  0  0  0  0  0  0  0  0  0
    0.2080   -3.0010   42.1540 C   0  0  0  0  0  0  0  0  0  0  0  0
    0.0590   -1.7930   42.0250 O   0  0  0  0  0  0  0  0  0  0  0  0
   -0.4660   -3.8780   41.3510 N   0  0  0  0  0  0  0  0  0  0  0  0
  1  2  2  0
  1  7  1  0
  1  6  1  0
  2  3  1  0
  3 14  1  0
  3  4  2  0
  4  5  1  0
  5  6  2  0
  7 13  1  0
  7 11  2  0
  8  9  1  0
  9 10  2  0
  9 11  1  0
 10 12  1  0
 12 13  2  0
 14 16  1  0
 14 15  2  0
M  END
>  <vina_dock>  (911) 
-7.904

$$$$
O14757_PocketFlow_idx-in-all-generaetd-411
     RDKit          3D

 35 37  0  0  0  0  0  0  0  0999 V2000
    0.8220   -5.4250   45.1930 C   0  0  0  0  0  0  0  0  0  0  0  0
   -0.0210   -5.8520   44.0730 N   0  0  0  0  0  0  0  0  0  0  0  0
   -0.7150   -7.1080   44.3530 C   0  0  0  0  0  0  0  0  0  0  0  0
   -1.3070   -7.0980   45.7300 C   0  0  0  0  0  0  0  0  0  0  0  0
   -1.2280   -8.0520   46.6730 C   0  0  0  0  0  0  0  0  0  0  0  0
   -0.5290   -9.3820   46.5850 C   0  0  0  0  0  0  0  0  0  0  0  0
    0.8930   -9.3240   47.0970 C   0  0  0  0  0  0  0  0  0  0  0  0
    3.5540   -9.2530   48.0520 C   0  0  0  0  0  0  0  0  0  0  0  0
    3.2520   -8.8690   46.7370 C   0  0  0  0  0  0  0  0  0  0  0  0
    2.5070   -9.6740   48.8820 C   0  0  0  0  0  0  0  0  0  0  0  0
    1.9380   -8.9040   46.2650 C   0  0  0  0  0  0  0  0  0  0  0  0
    1.1940   -9.7150   48.4090 C   0  0  0  0  0  0  0  0  0  0  0  0
    4.9840   -9.1880   48.5450 C   0  0  2  0  0  0  0  0  0  0  0  0
    6.5370   -7.6090   48.7180 C   0  0  0  0  0  0  0  0  0  0  0  0
    7.0690   -8.4760   47.7990 N   0  0  0  0  0  0  0  0  0  0  0  0
    5.3560   -7.8880   49.1830 N   0  0  0  0  0  0  0  0  0  0  0  0
    6.0040   -9.3850   47.4070 C   0  0  0  0  0  0  0  0  0  0  0  0
    7.3520   -6.5520   48.9750 N   0  0  0  0  0  0  0  0  0  0  0  0
    7.6530   -5.4500   48.1530 C   0  0  0  0  0  0  0  0  0  0  0  0
    9.2650   -4.3530   46.6760 C   0  0  0  0  0  0  0  0  0  0  0  0
    8.9200   -5.3930   47.5450 C   0  0  0  0  0  0  0  0  0  0  0  0
    8.3400   -3.3560   46.3830 C   0  0  0  0  0  0  0  0  0  0  0  0
    7.0720   -3.4060   46.9550 C   0  0  0  0  0  0  0  0  0  0  0  0
    6.7330   -4.4490   47.8250 C   0  0  0  0  0  0  0  0  0  0  0  0
    1.9620   -4.5140   44.7270 C   0  0  0  0  0  0  0  0  0  0  0  0
    3.3360   -5.1900   44.7400 C   0  0  0  0  0  0  0  0  0  0  0  0
    4.5000   -4.2050   44.5790 C   0  0  0  0  0  0  0  0  0  0  0  0
    4.1610   -2.7240   44.7880 C   0  0  0  0  0  0  0  0  0  0  0  0
    5.1960   -1.7680   44.1870 C   0  0  0  0  0  0  0  0  0  0  0  0
    4.6440   -0.9340   43.0250 C   0  0  0  0  0  0  0  0  0  0  0  0
    3.4470   -1.5520   42.3580 C   0  0  0  0  0  0  0  0  0  0  0  0
    2.3540   -0.8580   42.0060 C   0  0  0  0  0  0  0  0  0  0  0  0
    1.2030   -1.4690   41.3840 C   0  0  0  0  0  0  0  0  0  0  0  0
    0.7690   -2.6980   41.7060 C   0  0  0  0  0  0  0  0  0  0  0  0
   -0.4150   -3.3520   41.0730 C   0  0  0  0  0  0  0  0  0  0  0  0
  1  2  1  0
  1 25  1  0
  2  3  1  0
  3  4  1  0
  4  5  2  3
  5  6  1  0
  6  7  1  0
  7 11  2  0
  7 12  1  0
  8  9  2  0
 13  8  1  6
  8 10  1  0
  9 11  1  0
 10 12  2  0
 13 17  1  0
 13 16  1  0
 14 15  1  0
 14 18  1  0
 14 16  1  0
 15 17  1  0
 18 19  1  0
 19 21  2  0
 19 24  1  0
 20 22  2  0
 20 21  1  0
 22 23  1  0
 23 24  2  0
 25 26  1  0
 26 27  1  0
 27 28  1  0
 28 29  1  0
 29 30  1  0
 30 31  1  0
 31 32  2  3
 32 33  1  0
 33 34  2  3
 34 35  1  0
M  END
>  <vina_dock>  (912) 
-7.18

$$$$
O14757_PocketFlow_idx-in-all-generaetd-277
     RDKit          3D

 23 26  0  0  0  0  0  0  0  0999 V2000
    7.2180   -2.2580   45.8210 C   0  0  0  0  0  0  0  0  0  0  0  0
    6.6370   -3.2940   46.5600 C   0  0  0  0  0  0  0  0  0  0  0  0
    6.5240   -1.7080   44.7360 C   0  0  0  0  0  0  0  0  0  0  0  0
    5.2500   -2.1860   44.3920 C   0  0  0  0  0  0  0  0  0  0  0  0
    4.5190   -1.5990   43.2070 C   0  0  0  0  0  0  0  0  0  0  0  0
    3.1260   -2.1360   42.9600 C   0  0  0  0  0  0  0  0  0  0  0  0
    2.3540   -1.5950   41.9210 C   0  0  0  0  0  0  0  0  0  0  0  0
    5.3690   -3.7710   46.2170 C   0  0  0  0  0  0  0  0  0  0  0  0
    4.6620   -3.2100   45.1480 C   0  0  0  0  0  0  0  0  0  0  0  0
    1.0750   -2.0810   41.6680 C   0  0  0  0  0  0  0  0  0  0  0  0
    0.5600   -3.1190   42.4430 C   0  0  0  0  0  0  0  0  0  0  0  0
    1.3110   -3.6880   43.4880 C   0  0  0  0  0  0  0  0  0  0  0  0
    2.6020   -3.1720   43.7590 C   0  0  0  0  0  0  0  0  0  0  0  0
    3.4140   -3.7200   44.7720 N   0  0  0  0  0  0  0  0  0  0  0  0
    8.5610   -1.7180   46.1430 C   0  0  0  0  0  0  0  0  0  0  0  0
    9.5570   -2.3780   46.3820 O   0  0  0  0  0  0  0  0  0  0  0  0
    8.5980   -0.3740   46.1500 O   0  0  0  0  0  0  0  0  0  0  0  0
    0.7320   -4.7960   44.2640 C   0  0  0  0  0  0  0  0  0  0  0  0
    0.3330   -5.9830   43.6330 C   0  0  0  0  0  0  0  0  0  0  0  0
    0.5620   -4.6860   45.6540 C   0  0  0  0  0  0  0  0  0  0  0  0
   -0.2240   -7.0310   44.3700 C   0  0  0  0  0  0  0  0  0  0  0  0
    0.0060   -5.7340   46.3910 C   0  0  0  0  0  0  0  0  0  0  0  0
   -0.3880   -6.9060   45.7490 C   0  0  0  0  0  0  0  0  0  0  0  0
  1  3  2  0
  1 15  1  0
  1  2  1  0
  2  8  2  0
  3  4  1  0
  4  5  1  0
  4  9  2  0
  5  6  2  0
  6  7  1  0
  6 13  1  0
  7 10  1  0
  8  9  1  0
  9 14  1  0
 10 11  2  0
 11 12  1  0
 12 13  2  0
 12 18  1  0
 13 14  1  0
 15 17  1  0
 15 16  2  0
 18 19  2  0
 18 20  1  0
 19 21  1  0
 20 22  2  0
 21 23  2  0
 22 23  1  0
M  END
>  <vina_dock>  (913) 
-10.085

$$$$
O14757_PocketFlow_idx-in-all-generaetd-502
     RDKit          3D

  6  6  0  0  0  0  0  0  0  0999 V2000
    4.0620   -1.1090   42.8590 C   0  0  0  0  0  0  0  0  0  0  0  0
    3.5420   -2.3350   43.2740 C   0  0  0  0  0  0  0  0  0  0  0  0
    5.2690   -0.6480   43.3860 C   0  0  0  0  0  0  0  0  0  0  0  0
    4.2290   -3.1000   44.2170 C   0  0  0  0  0  0  0  0  0  0  0  0
    5.4360   -2.6390   44.7440 C   0  0  0  0  0  0  0  0  0  0  0  0
    5.9560   -1.4130   44.3290 C   0  0  0  0  0  0  0  0  0  0  0  0
  1  2  2  0
  1  3  1  0
  2  4  1  0
  3  6  2  0
  4  5  2  0
  5  6  1  0
M  END
>  <vina_dock>  (914) 
-4.006

$$$$
O14757_PocketFlow_idx-in-all-generaetd-874
     RDKit          3D

 24 27  0  0  0  0  0  0  0  0999 V2000
    6.9050   -3.2620   46.4310 C   0  0  0  0  0  0  0  0  0  0  0  0
    7.0480   -4.1210   47.5340 C   0  0  0  0  0  0  0  0  0  0  0  0
    8.0070   -2.4730   46.0570 C   0  0  0  0  0  0  0  0  0  0  0  0
    8.2500   -4.1930   48.2430 C   0  0  0  0  0  0  0  0  0  0  0  0
    9.2160   -2.5410   46.7660 C   0  0  0  0  0  0  0  0  0  0  0  0
    9.3320   -3.4030   47.8600 C   0  0  0  0  0  0  0  0  0  0  0  0
    5.6370   -3.1900   45.6870 C   0  0  0  0  0  0  0  0  0  0  0  0
    0.1130   -3.2890   41.3850 C   0  0  1  0  0  0  0  0  0  0  0  0
    0.6740   -1.8800   41.6400 C   0  0  0  0  0  0  0  0  0  0  0  0
    0.0670   -4.1980   42.5180 N   0  0  0  0  0  0  0  0  0  0  0  0
    1.9620   -2.0150   42.4110 C   0  0  0  0  0  0  0  0  0  0  0  0
    0.6970   -3.6640   43.7350 C   0  0  0  0  0  0  0  0  0  0  0  0
    1.9880   -2.9330   43.4700 C   0  0  0  0  0  0  0  0  0  0  0  0
    3.0090   -1.2430   42.0540 N   0  0  0  0  0  0  0  0  0  0  0  0
    3.1720   -3.0500   44.2350 C   0  0  0  0  0  0  0  0  0  0  0  0
    4.1340   -1.3860   42.7850 C   0  0  0  0  0  0  0  0  0  0  0  0
    3.3310   -3.9070   45.3460 C   0  0  0  0  0  0  0  0  0  0  0  0
    4.2790   -2.2530   43.8700 C   0  0  0  0  0  0  0  0  0  0  0  0
    4.5380   -3.9760   46.0530 C   0  0  0  0  0  0  0  0  0  0  0  0
    5.4870   -2.3320   44.5890 C   0  0  0  0  0  0  0  0  0  0  0  0
   -1.2630   -3.2540   40.9460 N   0  0  0  0  0  0  0  0  0  0  0  0
   10.3920   -1.7180   46.3930 C   0  0  0  0  0  0  0  0  0  0  0  0
   11.5450   -2.1070   46.3370 O   0  0  0  0  0  0  0  0  0  0  0  0
   10.0710   -0.4450   46.1040 O   0  0  0  0  0  0  0  0  0  0  0  0
  1  7  1  0
  1  3  1  0
  1  2  2  0
  2  4  1  0
  3  5  2  0
  4  6  2  0
  5 22  1  0
  5  6  1  0
  7 20  2  0
  7 19  1  0
  8 21  1  1
  8  9  1  0
  8 10  1  0
  9 11  1  0
 10 12  1  0
 11 14  1  0
 11 13  2  0
 12 13  1  0
 13 15  1  0
 14 16  2  0
 15 18  2  0
 15 17  1  0
 16 18  1  0
 17 19  2  0
 18 20  1  0
 22 24  1  0
 22 23  2  0
M  END
>  <vina_dock>  (915) 
-9.292

$$$$
O14757_PocketFlow_idx-in-all-generaetd-478
     RDKit          3D

 35 38  0  0  0  0  0  0  0  0999 V2000
    7.5040   -1.4830   45.0160 C   0  0  0  0  0  0  0  0  0  0  0  0
    8.1620   -1.3750   46.4020 C   0  0  0  0  0  0  0  0  0  0  0  0
    9.5040   -2.0660   46.5720 C   0  0  0  0  0  0  0  0  0  0  0  0
   10.6880   -1.5620   46.1850 C   0  0  0  0  0  0  0  0  0  0  0  0
    9.4720   -3.3950   47.2280 C   0  0  0  0  0  0  0  0  0  0  0  0
    9.3800   -5.9280   48.4750 C   0  0  0  0  0  0  0  0  0  0  0  0
    9.4930   -5.8240   47.0880 C   0  0  0  0  0  0  0  0  0  0  0  0
    9.3110   -4.7650   49.2400 C   0  0  0  0  0  0  0  0  0  0  0  0
    9.5330   -4.5710   46.4680 C   0  0  0  0  0  0  0  0  0  0  0  0
    9.3560   -3.5090   48.6200 C   0  0  0  0  0  0  0  0  0  0  0  0
    9.3560   -7.2090   48.9530 O   0  0  0  0  0  0  0  0  0  0  0  0
    9.3930   -8.2540   47.9870 C   0  0  0  0  0  0  0  0  0  0  0  0
    6.1900   -2.2320   45.0780 C   0  0  0  0  0  0  0  0  0  0  0  0
    6.0350   -3.2310   46.0550 C   0  0  0  0  0  0  0  0  0  0  0  0
    5.1340   -2.0080   44.1820 C   0  0  0  0  0  0  0  0  0  0  0  0
    4.8570   -3.9880   46.1560 C   0  0  0  0  0  0  0  0  0  0  0  0
    5.2790   -0.8030   42.9390 Cl  0  0  0  0  0  0  0  0  0  0  0  0
    3.9510   -2.7690   44.2700 C   0  0  0  0  0  0  0  0  0  0  0  0
    3.7900   -3.7580   45.2640 C   0  0  0  0  0  0  0  0  0  0  0  0
    4.7960   -5.0210   47.1980 C   0  0  0  0  0  0  0  0  0  0  0  0
    5.7940   -5.2030   48.0770 C   0  0  0  0  0  0  0  0  0  0  0  0
    5.7690   -6.2340   49.1580 C   0  0  0  0  0  0  0  0  0  0  0  0
    2.9620   -2.5140   43.3490 O   0  0  0  0  0  0  0  0  0  0  0  0
    2.5110   -4.5640   45.3620 C   0  0  0  0  0  0  0  0  0  0  0  0
    2.6100   -5.8660   44.5620 C   0  0  0  0  0  0  0  0  0  0  0  0
    1.6220   -6.8780   45.0730 C   0  0  0  0  0  0  0  0  0  0  0  0
    1.9960   -7.8330   46.0070 C   0  0  0  0  0  0  0  0  0  0  0  0
    0.3610   -6.7820   44.5830 N   0  0  0  0  0  0  0  0  0  0  0  0
    1.0350   -8.7320   46.4580 C   0  0  0  0  0  0  0  0  0  0  0  0
   -0.5670   -7.6510   45.0230 C   0  0  0  0  0  0  0  0  0  0  0  0
   -0.2740   -8.6540   45.9700 C   0  0  0  0  0  0  0  0  0  0  0  0
   -1.8660   -7.5700   44.5360 C   0  0  0  0  0  0  0  0  0  0  0  0
   -1.2800   -9.5370   46.4040 C   0  0  0  0  0  0  0  0  0  0  0  0
   -2.8680   -8.4470   44.9640 C   0  0  0  0  0  0  0  0  0  0  0  0
   -2.5740   -9.4300   45.9020 C   0  0  0  0  0  0  0  0  0  0  0  0
  1 13  1  0
  1  2  1  0
  2  3  1  0
  3  4  2  0
  3  5  1  0
  5  9  2  0
  5 10  1  0
  6  7  2  0
  6 11  1  0
  6  8  1  0
  7  9  1  0
  8 10  2  0
 11 12  1  0
 13 15  1  0
 13 14  2  0
 14 16  1  0
 15 17  1  0
 15 18  2  0
 16 19  2  0
 16 20  1  0
 18 23  1  0
 18 19  1  0
 19 24  1  0
 20 21  2  3
 21 22  1  0
 24 25  1  0
 25 26  1  0
 26 28  1  0
 26 27  2  0
 27 29  1  0
 28 30  2  0
 29 31  2  0
 30 32  1  0
 30 31  1  0
 31 33  1  0
 32 34  2  0
 33 35  2  0
 34 35  1  0
M  END
>  <vina_dock>  (916) 
-8.275

$$$$
O14757_PocketFlow_idx-in-all-generaetd-213
     RDKit          3D

 16 18  0  0  0  0  0  0  0  0999 V2000
    6.9910   -2.1260   45.5900 C   0  0  0  0  0  0  0  0  0  0  0  0
    6.4390   -3.1360   46.3710 C   0  0  0  0  0  0  0  0  0  0  0  0
    6.2530   -1.5310   44.5640 C   0  0  0  0  0  0  0  0  0  0  0  0
    4.9360   -1.9430   44.3090 C   0  0  0  0  0  0  0  0  0  0  0  0
    4.3980   -3.0110   45.0650 C   0  0  0  0  0  0  0  0  0  0  0  0
    5.1410   -3.5740   46.1110 C   0  0  0  0  0  0  0  0  0  0  0  0
    4.0530   -1.3410   43.2550 C   0  0  0  0  0  0  0  0  0  0  0  0
    4.3170   -0.1080   42.7790 C   0  0  0  0  0  0  0  0  0  0  0  0
    2.8010   -2.0530   42.8350 C   0  0  0  0  0  0  0  0  0  0  0  0
    2.0670   -1.7500   41.6770 C   0  0  0  0  0  0  0  0  0  0  0  0
    8.7600   -1.5490   45.9270 Br  0  0  0  0  0  0  0  0  0  0  0  0
    0.8900   -2.4410   41.3740 C   0  0  0  0  0  0  0  0  0  0  0  0
    0.4320   -3.4450   42.2200 C   0  0  0  0  0  0  0  0  0  0  0  0
    1.1610   -3.7780   43.3610 C   0  0  0  0  0  0  0  0  0  0  0  0
    2.3600   -3.1150   43.6570 C   0  0  0  0  0  0  0  0  0  0  0  0
    3.0830   -3.4660   44.8190 N   0  0  0  0  0  0  0  0  0  0  0  0
  1  3  2  0
  1 11  1  0
  1  2  1  0
  2  6  2  0
  3  4  1  0
  4  7  1  0
  4  5  2  0
  5 16  1  0
  5  6  1  0
  7  8  1  0
  7  9  2  0
  9 10  1  0
  9 15  1  0
 10 12  1  0
 12 13  2  0
 13 14  1  0
 14 15  2  0
 15 16  1  0
M  END
>  <vina_dock>  (917) 
-8.601

$$$$
O14757_PocketFlow_idx-in-all-generaetd-377
     RDKit          3D

 35 39  0  0  0  0  0  0  0  0999 V2000
    4.8120   -3.4840   45.1400 C   0  0  0  0  0  0  0  0  0  0  0  0
    4.2540   -4.7080   45.5150 C   0  0  0  0  0  0  0  0  0  0  0  0
    3.0180   -5.1230   45.0030 C   0  0  0  0  0  0  0  0  0  0  0  0
    2.2830   -4.3370   44.0870 C   0  0  0  0  0  0  0  0  0  0  0  0
    4.0960   -2.6910   44.2340 C   0  0  0  0  0  0  0  0  0  0  0  0
    2.8530   -3.0930   43.7100 C   0  0  0  0  0  0  0  0  0  0  0  0
    2.1750   -2.2460   42.8210 C   0  0  0  0  0  0  0  0  0  0  0  0
    0.9330   -2.5950   42.3100 C   0  0  0  0  0  0  0  0  0  0  0  0
    0.3550   -3.8060   42.6720 C   0  0  0  0  0  0  0  0  0  0  0  0
    1.0190   -4.7050   43.5340 C   0  0  0  0  0  0  0  0  0  0  0  0
    6.1010   -3.0370   45.6860 C   0  0  0  0  0  0  0  0  0  0  0  0
    8.5960   -2.1780   46.7460 C   0  0  0  0  0  0  0  0  0  0  0  0
    7.9490   -3.3140   47.2540 C   0  0  0  0  0  0  0  0  0  0  0  0
    7.9770   -1.4790   45.6990 C   0  0  0  0  0  0  0  0  0  0  0  0
    6.7200   -3.7350   46.7330 C   0  0  0  0  0  0  0  0  0  0  0  0
    6.7500   -1.9030   45.1760 C   0  0  0  0  0  0  0  0  0  0  0  0
    9.8820   -1.7290   47.2980 C   0  0  0  0  0  0  0  0  0  0  0  0
   12.3580   -0.8710   48.3520 C   0  0  0  0  0  0  0  0  0  0  0  0
   11.2710   -1.0960   49.2010 C   0  0  0  0  0  0  0  0  0  0  0  0
   12.2070   -1.0560   46.9740 C   0  0  0  0  0  0  0  0  0  0  0  0
   10.0450   -1.5240   48.6780 C   0  0  0  0  0  0  0  0  0  0  0  0
   10.9800   -1.4840   46.4560 C   0  0  0  0  0  0  0  0  0  0  0  0
   13.6420   -0.4170   48.9510 C   0  0  0  0  0  0  0  0  0  0  0  0
   14.2000   -1.2080   49.9180 N   0  0  0  0  0  0  0  0  0  0  0  0
   14.1670    0.6400   48.6240 O   0  0  0  0  0  0  0  0  0  0  0  0
    0.3150   -5.9990   43.9160 C   0  0  0  0  0  0  0  0  0  0  0  0
   -0.3630   -5.8730   45.2060 N   0  0  0  0  0  0  0  0  0  0  0  0
   -0.2560   -6.9030   46.1450 C   0  0  0  0  0  0  0  0  0  0  0  0
    0.7080   -7.8990   45.9450 C   0  0  0  0  0  0  0  0  0  0  0  0
   -1.1320   -7.1160   47.2100 C   0  0  0  0  0  0  0  0  0  0  0  0
    0.8130   -8.9920   46.8140 C   0  0  0  0  0  0  0  0  0  0  0  0
   -1.0660   -8.1530   48.0820 N   0  0  0  0  0  0  0  0  0  0  0  0
   -0.0970   -9.0640   47.8640 C   0  0  0  0  0  0  0  0  0  0  0  0
    1.8400  -10.0670   46.6000 C   0  0  0  0  0  0  0  0  0  0  0  0
    3.2550   -9.5090   46.6240 C   0  0  0  0  0  0  0  0  0  0  0  0
  1  5  1  0
  1  2  2  0
  1 11  1  0
  2  3  1  0
  3  4  2  0
  4 10  1  0
  4  6  1  0
  5  6  2  0
  6  7  1  0
  7  8  2  0
  8  9  1  0
  9 10  2  0
 10 26  1  0
 11 16  1  0
 11 15  2  0
 12 14  1  0
 12 13  2  0
 12 17  1  0
 13 15  1  0
 14 16  2  0
 17 22  2  0
 17 21  1  0
 18 20  2  0
 18 23  1  0
 18 19  1  0
 19 21  2  0
 20 22  1  0
 23 25  2  0
 23 24  1  0
 26 27  1  0
 27 28  1  0
 28 29  2  0
 28 30  1  0
 29 31  1  0
 30 32  2  0
 31 34  1  0
 31 33  2  0
 32 33  1  0
 34 35  1  0
M  END
>  <vina_dock>  (918) 
-9.059

$$$$
O14757_PocketFlow_idx-in-all-generaetd-130
     RDKit          3D

 28 31  0  0  0  0  0  0  0  0999 V2000
    8.8020   -5.6580   48.2000 C   0  0  0  0  0  0  0  0  0  0  0  0
    9.5700   -5.1580   47.1540 C   0  0  0  0  0  0  0  0  0  0  0  0
    9.0620   -4.1350   46.3560 C   0  0  0  0  0  0  0  0  0  0  0  0
    7.7870   -3.6080   46.6050 C   0  0  0  0  0  0  0  0  0  0  0  0
    7.0320   -4.1220   47.6740 C   0  0  0  0  0  0  0  0  0  0  0  0
    7.5120   -5.1740   48.4710 C   0  0  0  0  0  0  0  0  0  0  0  0
    9.3520   -6.6470   48.9690 O   0  0  0  0  0  0  0  0  0  0  0  0
    6.7310   -5.6140   49.5710 N   0  0  0  0  0  0  0  0  0  0  0  0
    6.4360   -6.9360   49.7030 N   0  0  0  0  0  0  0  0  0  0  0  0
    5.5670   -7.3740   48.8540 C   0  0  0  0  0  0  0  0  0  0  0  0
    7.2380   -2.4890   45.7950 C   0  0  0  0  0  0  0  0  0  0  0  0
    7.9560   -1.3550   45.7060 C   0  0  0  0  0  0  0  0  0  0  0  0
    5.9400   -2.5540   45.0770 C   0  0  0  0  0  0  0  0  0  0  0  0
    4.9710   -3.5170   45.3990 C   0  0  0  0  0  0  0  0  0  0  0  0
    5.6520   -1.6140   44.0820 C   0  0  0  0  0  0  0  0  0  0  0  0
    3.7340   -3.5590   44.7320 C   0  0  0  0  0  0  0  0  0  0  0  0
    4.4270   -1.6440   43.4100 C   0  0  0  0  0  0  0  0  0  0  0  0
    2.7600   -4.5240   45.0500 C   0  0  0  0  0  0  0  0  0  0  0  0
    3.4610   -2.6120   43.7250 C   0  0  0  0  0  0  0  0  0  0  0  0
    1.5140   -4.5790   44.3970 C   0  0  0  0  0  0  0  0  0  0  0  0
    2.2290   -2.6610   43.0600 C   0  0  0  0  0  0  0  0  0  0  0  0
    1.2750   -3.6300   43.3890 C   0  0  0  0  0  0  0  0  0  0  0  0
    0.5150   -5.6070   44.7640 C   0  0  0  0  0  0  0  0  0  0  0  0
    0.1410   -5.6250   46.0710 N   0  0  0  0  0  0  0  0  0  0  0  0
   -0.0310   -6.5020   43.8440 C   0  0  0  0  0  0  0  0  0  0  0  0
   -0.7640   -6.5480   46.4620 C   0  0  0  0  0  0  0  0  0  0  0  0
   -0.9670   -7.4430   44.2730 C   0  0  0  0  0  0  0  0  0  0  0  0
   -1.3400   -7.4710   45.6090 C   0  0  0  0  0  0  0  0  0  0  0  0
  1  2  2  0
  1  6  1  0
  1  7  1  0
  2  3  1  0
  3  4  2  0
  4 11  1  0
  4  5  1  0
  5  6  2  0
  6  8  1  0
  8  9  1  0
  9 10  1  0
 11 13  1  0
 11 12  2  0
 13 15  1  0
 13 14  2  0
 14 16  1  0
 15 17  2  0
 16 19  2  0
 16 18  1  0
 17 19  1  0
 18 20  2  0
 19 21  1  0
 20 22  1  0
 20 23  1  0
 21 22  2  0
 23 25  1  0
 23 24  2  0
 24 26  1  0
 25 27  2  0
 26 28  2  0
 27 28  1  0
M  END
>  <vina_dock>  (919) 
-9.537

$$$$
O14757_PocketFlow_idx-in-all-generaetd-143
     RDKit          3D

  7  7  0  0  0  0  0  0  0  0999 V2000
    7.2200   -1.8560   45.4080 C   0  0  0  0  0  0  0  0  0  0  0  0
    5.9460   -1.8700   44.6180 C   0  0  0  0  0  0  0  0  0  0  0  0
    5.6350   -0.8130   43.7530 C   0  0  0  0  0  0  0  0  0  0  0  0
    4.4650   -0.8410   42.9940 C   0  0  0  0  0  0  0  0  0  0  0  0
    3.5990   -1.9290   43.0840 C   0  0  0  0  0  0  0  0  0  0  0  0
    3.9060   -2.9930   43.9300 C   0  0  0  0  0  0  0  0  0  0  0  0
    5.0770   -2.9660   44.6900 C   0  0  0  0  0  0  0  0  0  0  0  0
  1  2  1  0
  2  3  2  0
  2  7  1  0
  3  4  1  0
  4  5  2  0
  5  6  1  0
  6  7  2  0
M  END
>  <vina_dock>  (920) 
-4.647

$$$$
O14757_PocketFlow_idx-in-all-generaetd-986
     RDKit          3D

 35 38  0  0  0  0  0  0  0  0999 V2000
    0.1220   -5.9490   44.7130 C   0  0  0  0  0  0  0  0  0  0  0  0
   -0.5990   -6.7340   43.7990 C   0  0  0  0  0  0  0  0  0  0  0  0
   -1.4070   -7.7860   44.2370 C   0  0  0  0  0  0  0  0  0  0  0  0
   -1.5130   -8.0690   45.5970 C   0  0  0  0  0  0  0  0  0  0  0  0
   -0.8170   -7.2970   46.5350 C   0  0  0  0  0  0  0  0  0  0  0  0
    0.0040   -6.2510   46.0790 C   0  0  0  0  0  0  0  0  0  0  0  0
    0.9760   -4.8420   44.2520 C   0  0  0  0  0  0  0  0  0  0  0  0
    3.0760   -3.5620   44.4040 C   0  0  0  0  0  0  0  0  0  0  0  0
    2.2400   -4.6130   44.8280 C   0  0  0  0  0  0  0  0  0  0  0  0
    2.6150   -2.7250   43.3760 C   0  0  0  0  0  0  0  0  0  0  0  0
    1.3680   -2.9420   42.8000 C   0  0  0  0  0  0  0  0  0  0  0  0
    0.5550   -3.9850   43.2250 C   0  0  0  0  0  0  0  0  0  0  0  0
    4.3960   -3.3490   45.0210 C   0  0  0  0  0  0  0  0  0  0  0  0
    6.9590   -2.9340   46.2170 C   0  0  0  0  0  0  0  0  0  0  0  0
    5.9810   -3.7270   46.8450 C   0  0  0  0  0  0  0  0  0  0  0  0
    6.6170   -2.3360   44.9930 C   0  0  0  0  0  0  0  0  0  0  0  0
    6.2440   -4.4770   48.3830 Cl  0  0  0  0  0  0  0  0  0  0  0  0
    4.7270   -3.9330   46.2520 C   0  0  0  0  0  0  0  0  0  0  0  0
    5.3650   -2.5470   44.4040 C   0  0  0  0  0  0  0  0  0  0  0  0
    8.3220   -2.6700   46.8500 C   0  0  0  0  0  0  0  0  0  0  0  0
   11.2450   -2.3760   46.8470 C   0  0  0  0  0  0  0  0  0  0  0  0
   10.3610   -1.1520   46.8000 C   0  0  0  0  0  0  0  0  0  0  0  0
   12.4870   -2.4660   46.3300 C   0  0  0  0  0  0  0  0  0  0  0  0
   10.5990   -3.5640   47.5270 C   0  0  0  0  0  0  0  0  0  0  0  0
    9.0090   -1.4750   46.1620 C   0  0  0  0  0  0  0  0  0  0  0  0
    9.2580   -3.8980   46.8680 C   0  0  0  0  0  0  0  0  0  0  0  0
   13.2850   -1.3960   45.6500 C   0  0  0  0  0  0  0  0  0  0  0  0
   13.1000   -1.4770   44.2100 N   0  0  0  0  0  0  0  0  0  0  0  0
    0.8990   -2.1410   41.7990 O   0  0  0  0  0  0  0  0  0  0  0  0
   -0.9160   -7.6090   48.0090 C   0  0  0  0  0  0  0  0  0  0  0  0
   -0.6720   -8.9890   48.2840 O   0  0  0  0  0  0  0  0  0  0  0  0
    0.7210   -9.3050   48.3350 C   0  0  0  0  0  0  0  0  0  0  0  0
    1.0730  -10.2470   47.1810 C   0  0  0  0  0  0  0  0  0  0  0  0
    2.3410   -9.8480   46.4710 C   0  0  0  0  0  0  0  0  0  0  0  0
    2.6370   -8.5910   46.1160 C   0  0  0  0  0  0  0  0  0  0  0  0
  1  2  2  0
  1  7  1  0
  1  6  1  0
  2  3  1  0
  3  4  2  0
  4  5  1  0
  5  6  2  0
  5 30  1  0
  7 12  1  0
  7  9  2  0
  8 10  2  0
  8  9  1  0
  8 13  1  0
 10 11  1  0
 11 29  1  0
 11 12  2  0
 13 19  1  0
 13 18  2  0
 14 16  1  0
 14 15  2  0
 14 20  1  0
 15 18  1  0
 15 17  1  0
 16 19  2  0
 20 25  1  0
 20 26  1  0
 21 23  2  3
 21 22  1  0
 21 24  1  0
 22 25  1  0
 23 27  1  0
 24 26  1  0
 27 28  1  0
 30 31  1  0
 31 32  1  0
 32 33  1  0
 33 34  1  0
 34 35  2  0
M  END
>  <vina_dock>  (921) 
-8.897

$$$$
O14757_PocketFlow_idx-in-all-generaetd-227
     RDKit          3D

 35 40  0  0  0  0  0  0  0  0999 V2000
    5.0070   -3.4420   46.0680 C   0  0  0  0  0  0  0  0  0  0  0  0
    4.8810   -2.3570   45.2760 C   0  0  0  0  0  0  0  0  0  0  0  0
    4.1550   -2.3760   44.0130 C   0  0  0  0  0  0  0  0  0  0  0  0
    3.3830   -3.4380   43.7110 C   0  0  0  0  0  0  0  0  0  0  0  0
    3.2610   -4.6450   44.6060 C   0  0  1  0  0  0  0  0  0  0  0  0
    4.3840   -4.7650   45.6540 C   0  0  0  0  0  0  0  0  0  0  0  0
    5.7530   -3.4490   47.3990 C   0  0  2  0  0  0  0  0  0  0  0  0
   10.0510   -5.4860   48.4800 C   0  0  0  0  0  0  0  0  0  0  0  0
    9.4430   -4.6430   47.6270 C   0  0  0  0  0  0  0  0  0  0  0  0
    9.3760   -6.6140   49.0620 C   0  0  0  0  0  0  0  0  0  0  0  0
    7.9800   -4.8350   47.1840 C   0  0  0  0  0  0  0  0  0  0  0  0
   10.1140   -3.4580   47.0790 C   0  0  0  0  0  0  0  0  0  0  0  0
    8.0870   -6.8670   48.8150 C   0  0  0  0  0  0  0  0  0  0  0  0
    7.2490   -3.4870   47.1780 C   0  0  0  0  0  0  0  0  0  0  0  0
    7.2340   -6.0310   47.8900 C   0  0  0  0  0  0  0  0  0  0  0  0
    9.3870   -2.3720   46.7520 C   0  0  0  0  0  0  0  0  0  0  0  0
   11.6060   -3.4680   46.8670 C   0  0  0  0  0  0  0  0  0  0  0  0
    7.9520   -2.3510   46.9850 C   0  0  0  0  0  0  0  0  0  0  0  0
    5.9350   -5.6680   48.5670 C   0  0  0  0  0  0  0  0  0  0  0  0
   10.0000   -1.1230   46.1670 C   0  0  0  0  0  0  0  0  0  0  0  0
   12.1270   -2.3200   45.9620 C   0  0  1  0  0  0  0  0  0  0  0  0
    5.2720   -4.5280   48.3280 C   0  0  0  0  0  0  0  0  0  0  0  0
   11.4600   -1.0250   46.1980 N   0  0  0  0  0  0  0  0  0  0  0  0
   13.6640   -2.2130   46.1150 C   0  0  0  0  0  0  0  0  0  0  0  0
   12.0000   -0.3550   47.3760 C   0  0  0  0  0  0  0  0  0  0  0  0
   14.1520   -0.7700   46.0350 C   0  0  0  0  0  0  0  0  0  0  0  0
   13.4330    0.1300   47.0610 C   0  0  2  0  0  0  0  0  0  0  0  0
   14.2390    0.2600   48.3540 C   0  0  0  0  0  0  0  0  0  0  0  0
    4.2880   -1.1570   43.1310 C   0  0  0  0  0  0  0  0  0  0  0  0
    3.1740   -0.9520   42.3840 F   0  0  0  0  0  0  0  0  0  0  0  0
    5.3270   -1.2800   42.2630 F   0  0  0  0  0  0  0  0  0  0  0  0
    4.5020   -0.0180   43.8380 F   0  0  0  0  0  0  0  0  0  0  0  0
    1.8620   -4.6380   45.2320 C   0  0  0  0  0  0  0  0  0  0  0  0
    1.5680   -5.6300   46.1220 N   0  0  0  0  0  0  0  0  0  0  0  0
    1.0360   -3.7570   44.9990 O   0  0  0  0  0  0  0  0  0  0  0  0
  1  2  2  0
  1  6  1  0
  7  1  1  6
  2  3  1  0
  3 29  1  0
  3  4  2  0
  4  5  1  0
  5 33  1  1
  5  6  1  0
  7 14  1  0
  7 22  1  0
  8  9  2  0
  8 10  1  0
  9 12  1  0
  9 11  1  0
 10 13  2  0
 11 14  1  0
 11 15  2  0
 12 16  2  0
 12 17  1  0
 13 15  1  0
 14 18  2  0
 15 19  1  0
 16 20  1  0
 16 18  1  0
 21 17  1  1
 19 22  2  0
 20 23  1  0
 21 24  1  0
 21 23  1  0
 23 25  1  0
 24 26  1  0
 25 27  1  0
 26 27  1  0
 27 28  1  1
 29 31  1  0
 29 30  1  0
 29 32  1  0
 33 35  2  0
 33 34  1  0
M  END
>  <vina_dock>  (922) 
-8.34

$$$$
O14757_PocketFlow_idx-in-all-generaetd-96
     RDKit          3D

  9  9  0  0  0  0  0  0  0  0999 V2000
    1.8340   -1.6080   41.6800 C   0  0  0  0  0  0  0  0  0  0  0  0
    0.9010   -2.6380   42.3190 C   0  0  0  0  0  0  0  0  0  0  0  0
   -0.0120   -3.2770   41.2830 C   0  0  0  0  0  0  0  0  0  0  0  0
    3.0910   -1.4240   42.4820 C   0  0  0  0  0  0  0  0  0  0  0  0
    3.7660   -0.2070   42.4970 C   0  0  0  0  0  0  0  0  0  0  0  0
    3.6130   -2.4560   43.2650 C   0  0  0  0  0  0  0  0  0  0  0  0
    4.8910    0.0310   43.2070 N   0  0  0  0  0  0  0  0  0  0  0  0
    4.7710   -2.2420   44.0070 C   0  0  0  0  0  0  0  0  0  0  0  0
    5.3680   -0.9950   43.9460 C   0  0  0  0  0  0  0  0  0  0  0  0
  1  2  1  0
  1  4  1  0
  2  3  1  0
  4  5  2  0
  4  6  1  0
  5  7  1  0
  6  8  2  0
  7  9  2  0
  8  9  1  0
M  END
>  <vina_dock>  (923) 
-5.0

$$$$
O14757_PocketFlow_idx-in-all-generaetd-13
     RDKit          3D

 35 39  0  0  0  0  0  0  0  0999 V2000
    9.2100   -3.7230   47.0880 C   0  0  0  0  0  0  0  0  0  0  0  0
    9.1330   -4.1800   48.4120 C   0  0  0  0  0  0  0  0  0  0  0  0
    9.7510   -5.3990   48.7340 C   0  0  0  0  0  0  0  0  0  0  0  0
   10.4550   -6.1210   47.7680 C   0  0  0  0  0  0  0  0  0  0  0  0
   10.5540   -5.6350   46.4660 C   0  0  0  0  0  0  0  0  0  0  0  0
    9.9360   -4.4340   46.1250 C   0  0  0  0  0  0  0  0  0  0  0  0
    8.6090   -2.5260   46.7620 O   0  0  0  0  0  0  0  0  0  0  0  0
    7.4480   -2.5850   46.0290 C   0  0  0  0  0  0  0  0  0  0  0  0
    0.8200   -5.5040   44.4130 C   0  0  0  0  0  0  0  0  0  0  0  0
    0.5860   -4.4630   43.5100 C   0  0  0  0  0  0  0  0  0  0  0  0
    2.0470   -5.5630   45.0730 C   0  0  0  0  0  0  0  0  0  0  0  0
    1.5610   -3.4840   43.2630 C   0  0  0  0  0  0  0  0  0  0  0  0
    3.0410   -4.5900   44.8390 C   0  0  0  0  0  0  0  0  0  0  0  0
    1.3080   -2.4650   42.3440 C   0  0  0  0  0  0  0  0  0  0  0  0
    2.8100   -3.5270   43.9440 C   0  0  0  0  0  0  0  0  0  0  0  0
    4.3830   -4.7640   45.5160 C   0  0  0  0  0  0  0  0  0  0  0  0
    2.2730   -1.5050   42.1010 C   0  0  0  0  0  0  0  0  0  0  0  0
    3.7860   -2.5180   43.7190 C   0  0  0  0  0  0  0  0  0  0  0  0
    5.3280   -3.5910   45.3800 C   0  0  0  0  0  0  0  0  0  0  0  0
    4.2250   -5.1250   46.8280 F   0  0  0  0  0  0  0  0  0  0  0  0
    2.0290   -0.5380   41.2080 F   0  0  0  0  0  0  0  0  0  0  0  0
    3.4910   -1.5210   42.7710 C   0  0  0  0  0  0  0  0  0  0  0  0
    5.0550   -2.5250   44.4970 C   0  0  0  0  0  0  0  0  0  0  0  0
    6.5160   -3.6120   46.1400 C   0  0  0  0  0  0  0  0  0  0  0  0
    6.0070   -1.4880   44.4290 C   0  0  0  0  0  0  0  0  0  0  0  0
    7.1830   -1.5130   45.1860 C   0  0  0  0  0  0  0  0  0  0  0  0
   -0.2600   -6.4970   44.6390 C   0  0  0  0  0  0  0  0  0  0  0  0
   -0.8040   -7.0810   43.7070 O   0  0  0  0  0  0  0  0  0  0  0  0
   -0.7760   -6.8170   46.0110 C   0  0  0  0  0  0  0  0  0  0  0  0
   -1.3830   -5.9400   46.7410 N   0  0  0  0  0  0  0  0  0  0  0  0
    8.3760   -3.4120   49.4690 C   0  0  0  0  0  0  0  0  0  0  0  0
    9.2090   -2.9800   50.5470 O   0  0  0  0  0  0  0  0  0  0  0  0
   10.2620   -2.1260   50.3280 C   0  0  0  0  0  0  0  0  0  0  0  0
   10.1880   -0.8540   49.9060 C   0  0  0  0  0  0  0  0  0  0  0  0
   11.5890   -2.7700   50.6150 C   0  0  0  0  0  0  0  0  0  0  0  0
  1  6  1  0
  1  7  1  0
  1  2  2  0
  2  3  1  0
  2 31  1  0
  3  4  2  0
  4  5  1  0
  5  6  2  0
  7  8  1  0
  8 26  1  0
  8 24  2  0
  9 10  2  0
  9 27  1  0
  9 11  1  0
 10 12  1  0
 11 13  2  0
 12 14  1  0
 12 15  2  0
 13 15  1  0
 13 16  1  0
 14 17  1  0
 15 18  1  0
 16 19  2  0
 16 20  1  0
 17 21  1  0
 17 22  2  0
 18 22  1  0
 18 23  2  0
 19 23  1  0
 19 24  1  0
 23 25  1  0
 25 26  2  0
 27 28  2  0
 27 29  1  0
 29 30  1  0
 31 32  1  0
 32 33  1  0
 33 34  2  0
 33 35  1  0
M  END
>  <vina_dock>  (924) 
-10.087

$$$$
O14757_PocketFlow_idx-in-all-generaetd-616
     RDKit          3D

 23 23  0  0  0  0  0  0  0  0999 V2000
    4.4840   -1.4180   42.8920 C   0  0  0  0  0  0  0  0  0  0  0  0
    5.0180   -0.7530   44.0480 O   0  0  0  0  0  0  0  0  0  0  0  0
    4.8720   -1.5210   45.2450 C   0  0  0  0  0  0  0  0  0  0  0  0
    5.9860   -2.5740   45.3840 C   0  0  2  0  0  0  0  0  0  0  0  0
    5.8140   -3.3910   46.6680 C   0  0  0  0  0  0  0  0  0  0  0  0
    7.3910   -1.9490   45.2780 C   0  0  0  0  0  0  0  0  0  0  0  0
    8.2670   -2.1010   46.5240 C   0  0  0  0  0  0  0  0  0  0  0  0
    8.8530   -0.8200   46.9050 N   0  0  0  0  0  0  0  0  0  0  0  0
    3.3160   -0.5970   42.4060 C   0  0  0  0  0  0  0  0  0  0  0  0
    2.1410   -1.0930   41.9830 C   0  0  0  0  0  0  0  0  0  0  0  0
    1.2010   -0.2000   41.5820 F   0  0  0  0  0  0  0  0  0  0  0  0
    3.5320    0.7770   42.3840 O   0  0  0  0  0  0  0  0  0  0  0  0
    1.7480   -2.5460   41.9400 C   0  0  2  0  0  0  0  0  0  0  0  0
    1.0290   -2.8310   40.8100 F   0  0  0  0  0  0  0  0  0  0  0  0
    0.8900   -2.9650   43.1390 C   0  0  0  0  0  0  0  0  0  0  0  0
    1.3790   -4.2060   43.8460 C   0  0  0  0  0  0  0  0  0  0  0  0
    2.7140   -4.3110   44.2670 C   0  0  0  0  0  0  0  0  0  0  0  0
    0.5050   -5.2790   44.0750 C   0  0  0  0  0  0  0  0  0  0  0  0
    3.1690   -5.4670   44.9080 C   0  0  0  0  0  0  0  0  0  0  0  0
    0.9640   -6.4280   44.7150 C   0  0  0  0  0  0  0  0  0  0  0  0
    2.2920   -6.5250   45.1310 C   0  0  0  0  0  0  0  0  0  0  0  0
    2.8580   -7.9480   45.9230 Cl  0  0  0  0  0  0  0  0  0  0  0  0
    0.0640   -7.4390   44.9090 O   0  0  0  0  0  0  0  0  0  0  0  0
  1  9  1  0
  1  2  1  0
  2  3  1  0
  3  4  1  0
  4  6  1  0
  4  5  1  1
  6  7  1  0
  7  8  1  0
  9 10  2  3
  9 12  1  0
 10 11  1  0
 10 13  1  0
 13 14  1  6
 13 15  1  0
 15 16  1  0
 16 18  2  0
 16 17  1  0
 17 19  2  0
 18 20  1  0
 19 21  1  0
 20 23  1  0
 20 21  2  0
 21 22  1  0
M  END
>  <vina_dock>  (925) 
-6.864

$$$$
O14757_PocketFlow_idx-in-all-generaetd-639
     RDKit          3D

 14 14  0  0  0  0  0  0  0  0999 V2000
    3.1220   -1.0910   42.3310 C   0  0  0  0  0  0  0  0  0  0  0  0
    2.0620   -0.3810   41.9150 C   0  0  0  0  0  0  0  0  0  0  0  0
    4.3690   -0.4760   42.7350 C   0  0  0  0  0  0  0  0  0  0  0  0
    5.1660   -0.8790   43.7390 C   0  0  0  0  0  0  0  0  0  0  0  0
    4.9440   -2.0370   44.6070 C   0  0  0  0  0  0  0  0  0  0  0  0
    4.4700   -4.4010   44.8610 C   0  0  0  0  0  0  0  0  0  0  0  0
    4.5000   -4.2610   46.2470 C   0  0  0  0  0  0  0  0  0  0  0  0
    4.6900   -3.2910   44.0410 C   0  0  0  0  0  0  0  0  0  0  0  0
    4.7490   -3.0130   46.8180 C   0  0  0  0  0  0  0  0  0  0  0  0
    4.9690   -1.9030   46.0000 C   0  0  0  0  0  0  0  0  0  0  0  0
    0.8150   -0.9970   41.5180 C   0  0  0  0  0  0  0  0  0  0  0  0
    0.6130   -2.3230   41.5560 C   0  0  0  0  0  0  0  0  0  0  0  0
   -0.6710   -2.9820   41.1430 C   0  0  0  0  0  0  0  0  0  0  0  0
   -1.8170   -1.9830   41.0950 C   0  0  0  0  0  0  0  0  0  0  0  0
  1  2  2  3
  1  3  1  0
  2 11  1  0
  3  4  2  3
  4  5  1  0
  5  8  2  0
  5 10  1  0
  6  8  1  0
  6  7  2  0
  7  9  1  0
  9 10  2  0
 11 12  2  3
 12 13  1  0
 13 14  1  0
M  END
>  <vina_dock>  (926) 
-6.517

$$$$
O14757_PocketFlow_idx-in-all-generaetd-381
     RDKit          3D

 35 38  0  0  0  0  0  0  0  0999 V2000
    6.4970   -4.8440   48.8780 C   0  0  0  0  0  0  0  0  0  0  0  0
    5.9750   -5.8660   49.5670 C   0  0  0  0  0  0  0  0  0  0  0  0
    7.0710   -4.7710   47.6400 N   0  0  0  0  0  0  0  0  0  0  0  0
    7.1580   -3.6460   46.7740 C   0  0  0  0  0  0  0  0  0  0  0  0
    3.9540   -2.6340   44.0720 C   0  0  0  0  0  0  0  0  0  0  0  0
    3.8650   -3.7620   44.8980 C   0  0  0  0  0  0  0  0  0  0  0  0
    5.1250   -1.8620   44.1810 C   0  0  0  0  0  0  0  0  0  0  0  0
    4.8980   -4.1060   45.7810 C   0  0  0  0  0  0  0  0  0  0  0  0
    6.1740   -2.1930   45.0640 C   0  0  0  0  0  0  0  0  0  0  0  0
    6.0830   -3.3410   45.8830 C   0  0  0  0  0  0  0  0  0  0  0  0
    7.3080   -1.3700   45.1380 C   0  0  0  0  0  0  0  0  0  0  0  0
    8.3750   -1.6740   45.9800 C   0  0  0  0  0  0  0  0  0  0  0  0
    8.2620   -2.7730   46.8300 C   0  0  0  0  0  0  0  0  0  0  0  0
    2.8690   -2.2620   43.1420 C   0  0  0  0  0  0  0  0  0  0  0  0
    3.0610   -1.1900   42.3340 N   0  0  0  0  0  0  0  0  0  0  0  0
    1.7460   -3.0160   43.1390 N   0  0  0  0  0  0  0  0  0  0  0  0
    2.0830   -0.8180   41.4730 N   0  0  0  0  0  0  0  0  0  0  0  0
    0.7940   -2.6430   42.2740 C   0  0  0  0  0  0  0  0  0  0  0  0
    0.9510   -1.5430   41.4550 C   0  0  0  0  0  0  0  0  0  0  0  0
   -0.3780   -3.4010   42.2720 N   0  0  0  0  0  0  0  0  0  0  0  0
    9.4390   -0.7740   46.1220 N   0  0  0  0  0  0  0  0  0  0  0  0
    5.8140   -7.3370   49.2820 C   0  0  0  0  0  0  0  0  0  0  0  0
    5.9160   -7.8660   47.8390 C   0  0  1  0  0  0  0  0  0  0  0  0
    6.6860   -9.2020   47.7730 C   0  0  1  0  0  0  0  0  0  0  0  0
    4.5200   -8.0360   47.2180 C   0  0  0  0  0  0  0  0  0  0  0  0
    5.8980  -10.2870   47.3090 O   0  0  0  0  0  0  0  0  0  0  0  0
    3.7480   -9.2170   47.8170 C   0  0  2  0  0  0  0  0  0  0  0  0
    4.6780  -10.4200   48.0440 C   0  0  0  0  0  0  0  0  0  0  0  0
    7.7370   -9.0310   46.8330 O   0  0  0  0  0  0  0  0  0  0  0  0
    2.7040   -9.5430   46.8840 O   0  0  0  0  0  0  0  0  0  0  0  0
    2.3810   -8.5180   46.0350 C   0  0  0  0  0  0  0  0  0  0  0  0
    1.1170   -8.1080   45.8770 C   0  0  0  0  0  0  0  0  0  0  0  0
    0.7450   -7.0460   44.9720 C   0  0  0  0  0  0  0  0  0  0  0  0
   -0.4460   -6.8860   44.3740 C   0  0  0  0  0  0  0  0  0  0  0  0
   -1.6650   -7.7450   44.4840 C   0  0  0  0  0  0  0  0  0  0  0  0
  1  3  1  0
  1  2  2  3
  2 22  1  0
  3  4  1  0
  4 10  1  0
  4 13  2  0
  5 14  1  0
  5  7  1  0
  5  6  2  0
  6  8  1  0
  7  9  2  0
  8 10  2  0
  9 11  1  0
  9 10  1  0
 11 12  2  0
 12 21  1  0
 12 13  1  0
 14 15  2  0
 14 16  1  0
 15 17  1  0
 16 18  2  0
 17 19  2  0
 18 19  1  0
 18 20  1  0
 23 22  1  1
 23 25  1  0
 23 24  1  0
 24 29  1  6
 24 26  1  0
 25 27  1  0
 26 28  1  0
 27 30  1  6
 27 28  1  0
 30 31  1  0
 31 32  2  3
 32 33  1  0
 33 34  2  3
 34 35  1  0
M  END
>  <vina_dock>  (927) 
-9.111

$$$$
O14757_PocketFlow_idx-in-all-generaetd-470
     RDKit          3D

 35 39  0  0  0  0  0  0  0  0999 V2000
    6.6310   -1.4370   44.6510 C   0  0  0  0  0  0  0  0  0  0  0  0
    7.1530   -2.1320   45.6830 C   0  0  0  0  0  0  0  0  0  0  0  0
    6.4500   -3.2400   46.4300 C   0  0  0  0  0  0  0  0  0  0  0  0
    8.5650   -1.7870   46.0430 C   0  0  0  0  0  0  0  0  0  0  0  0
    9.2490   -2.7740   46.6880 N   0  0  0  0  0  0  0  0  0  0  0  0
    9.0950   -0.7130   45.7710 O   0  0  0  0  0  0  0  0  0  0  0  0
    8.7580   -4.1300   46.8480 C   0  0  2  0  0  0  0  0  0  0  0  0
    7.3420   -4.0270   47.4040 C   0  0  0  0  0  0  0  0  0  0  0  0
    5.3260   -1.6990   44.0420 C   0  0  0  0  0  0  0  0  0  0  0  0
    3.3320   -3.1100   43.8850 C   0  0  0  0  0  0  0  0  0  0  0  0
    4.5810   -2.8140   44.4550 C   0  0  0  0  0  0  0  0  0  0  0  0
    2.8490   -2.2590   42.8760 C   0  0  0  0  0  0  0  0  0  0  0  0
    3.5940   -1.1510   42.4460 C   0  0  0  0  0  0  0  0  0  0  0  0
    4.8350   -0.8740   43.0260 C   0  0  0  0  0  0  0  0  0  0  0  0
    2.5750   -4.2930   44.3250 C   0  0  0  0  0  0  0  0  0  0  0  0
    2.5140   -6.6090   45.0850 C   0  0  0  0  0  0  0  0  0  0  0  0
    3.2310   -5.4910   44.6310 C   0  0  0  0  0  0  0  0  0  0  0  0
    1.1140   -6.5810   45.2460 C   0  0  0  0  0  0  0  0  0  0  0  0
    0.4670   -5.3720   44.9320 C   0  0  0  0  0  0  0  0  0  0  0  0
    1.1810   -4.2500   44.4850 C   0  0  0  0  0  0  0  0  0  0  0  0
    0.3610   -7.7610   45.7220 C   0  0  0  0  0  0  0  0  0  0  0  0
    1.0220   -8.6790   46.4360 N   0  0  0  0  0  0  0  0  0  0  0  0
   -0.9380   -7.8340   45.4120 N   0  0  0  0  0  0  0  0  0  0  0  0
    0.2790   -9.7000   46.8500 C   0  0  0  0  0  0  0  0  0  0  0  0
   -1.5670   -8.9020   45.8920 C   0  0  0  0  0  0  0  0  0  0  0  0
   -1.0250   -9.8660   46.6270 N   0  0  0  0  0  0  0  0  0  0  0  0
    9.7010   -4.9960   47.7160 C   0  0  1  0  0  0  0  0  0  0  0  0
    9.0760   -6.3810   48.0410 C   0  0  0  0  0  0  0  0  0  0  0  0
   11.1170   -5.1000   47.1490 C   0  0  0  0  0  0  0  0  0  0  0  0
    9.9710   -7.6040   47.7950 C   0  0  2  0  0  0  0  0  0  0  0  0
   11.8970   -6.0720   47.8690 N   0  0  0  0  0  0  0  0  0  0  0  0
   11.4320   -7.3380   48.1010 C   0  0  0  0  0  0  0  0  0  0  0  0
   12.1970   -8.2120   48.5060 O   0  0  0  0  0  0  0  0  0  0  0  0
    9.8360   -8.2290   46.4030 C   0  0  0  0  0  0  0  0  0  0  0  0
   11.0780   -8.2800   45.7040 O   0  0  0  0  0  0  0  0  0  0  0  0
  1  9  1  0
  1  2  2  3
  2  4  1  0
  2  3  1  0
  3  8  1  0
  4  6  2  0
  4  5  1  0
  5  7  1  0
  7  8  1  1
  7 27  1  0
  9 14  1  0
  9 11  2  0
 10 12  2  0
 10 15  1  0
 10 11  1  0
 12 13  1  0
 13 14  2  0
 15 20  2  0
 15 17  1  0
 16 17  2  0
 16 18  1  0
 18 19  2  0
 18 21  1  0
 19 20  1  0
 21 23  1  0
 21 22  2  0
 22 24  1  0
 23 25  1  0
 24 26  1  0
 25 26  2  0
 27 29  1  6
 27 28  1  0
 28 30  1  0
 29 31  1  0
 30 34  1  6
 30 32  1  0
 31 32  1  0
 32 33  2  0
 34 35  1  0
M  END
>  <vina_dock>  (928) 
-10.097

$$$$
O14757_PocketFlow_idx-in-all-generaetd-795
     RDKit          3D

 25 26  0  0  0  0  0  0  0  0999 V2000
    1.5200   -1.3390   41.2810 C   0  0  0  0  0  0  0  0  0  0  0  0
    0.0380   -1.0820   41.5840 C   0  0  0  0  0  0  0  0  0  0  0  0
   -0.8730   -2.2610   41.2420 C   0  0  0  0  0  0  0  0  0  0  0  0
   -2.3050   -1.8450   41.0440 C   0  0  0  0  0  0  0  0  0  0  0  0
   -2.7900   -0.7540   41.2980 O   0  0  0  0  0  0  0  0  0  0  0  0
   -3.0530   -2.8180   40.4880 O   0  0  0  0  0  0  0  0  0  0  0  0
    2.2610   -2.0800   42.3660 C   0  0  0  0  0  0  0  0  0  0  0  0
    1.7360   -3.2630   42.9050 C   0  0  0  0  0  0  0  0  0  0  0  0
    3.4800   -1.5930   42.8490 C   0  0  0  0  0  0  0  0  0  0  0  0
    2.4020   -3.9640   43.9280 C   0  0  0  0  0  0  0  0  0  0  0  0
    4.1740   -2.2670   43.8610 C   0  0  0  0  0  0  0  0  0  0  0  0
    3.6290   -3.4470   44.3880 C   0  0  0  0  0  0  0  0  0  0  0  0
    1.8710   -5.2400   44.5420 C   0  0  2  0  0  0  0  0  0  0  0  0
    0.8960   -5.1020   45.6780 C   0  0  0  0  0  0  0  0  0  0  0  0
    0.0290   -6.0320   46.1210 C   0  0  0  0  0  0  0  0  0  0  0  0
   -0.1740   -7.4260   45.6010 C   0  0  0  0  0  0  0  0  0  0  0  0
   -1.1780   -7.4440   44.4580 C   0  0  0  0  0  0  0  0  0  0  0  0
    3.3260   -6.0110   45.3560 P   0  0  0  0  0  0  0  0  0  0  0  0
    5.4850   -1.7240   44.3830 C   0  0  0  0  0  0  0  0  0  0  0  0
    6.0600   -2.5070   45.5410 C   0  0  0  0  0  0  0  0  0  0  0  0
    5.2260   -2.9930   46.5600 C   0  0  0  0  0  0  0  0  0  0  0  0
    7.4380   -2.7590   45.6170 C   0  0  0  0  0  0  0  0  0  0  0  0
    5.7580   -3.7150   47.6280 C   0  0  0  0  0  0  0  0  0  0  0  0
    7.9680   -3.4800   46.6880 C   0  0  0  0  0  0  0  0  0  0  0  0
    7.1280   -3.9580   47.6940 C   0  0  0  0  0  0  0  0  0  0  0  0
  1  2  1  0
  1  7  1  0
  2  3  1  0
  3  4  1  0
  4  6  1  0
  4  5  2  0
  7  9  2  0
  7  8  1  0
  8 10  2  0
  9 11  1  0
 10 12  1  0
 10 13  1  0
 11 19  1  0
 11 12  2  0
 13 18  1  1
 13 14  1  0
 14 15  2  3
 15 16  1  0
 16 17  1  0
 19 20  1  0
 20 22  1  0
 20 21  2  0
 21 23  1  0
 22 24  2  0
 23 25  2  0
 24 25  1  0
M  END
>  <vina_dock>  (929) 
-8.369

$$$$
O14757_PocketFlow_idx-in-all-generaetd-63
     RDKit          3D

 17 19  0  0  0  0  0  0  0  0999 V2000
    3.8300   -3.1630   44.4380 C   0  0  0  0  0  0  0  0  0  0  0  0
    5.1030   -3.0670   45.0230 C   0  0  0  0  0  0  0  0  0  0  0  0
    2.9160   -4.1560   44.8270 C   0  0  0  0  0  0  0  0  0  0  0  0
    1.6360   -4.2560   44.2460 C   0  0  0  0  0  0  0  0  0  0  0  0
    5.9920   -2.0620   44.6360 C   0  0  0  0  0  0  0  0  0  0  0  0
    5.6180   -1.1420   43.6610 C   0  0  0  0  0  0  0  0  0  0  0  0
    4.3550   -1.2250   43.0720 C   0  0  0  0  0  0  0  0  0  0  0  0
    3.4520   -2.2330   43.4480 C   0  0  0  0  0  0  0  0  0  0  0  0
    1.2860   -3.3600   43.2140 C   0  0  0  0  0  0  0  0  0  0  0  0
    2.1780   -2.3340   42.8650 C   0  0  0  0  0  0  0  0  0  0  0  0
    0.7190   -5.3050   44.7280 C   0  0  0  0  0  0  0  0  0  0  0  0
    0.2260   -6.2870   43.8550 C   0  0  0  0  0  0  0  0  0  0  0  0
    0.3120   -5.3420   46.0710 C   0  0  0  0  0  0  0  0  0  0  0  0
   -0.6440   -7.2800   44.3100 C   0  0  0  0  0  0  0  0  0  0  0  0
   -0.5590   -6.3350   46.5280 C   0  0  0  0  0  0  0  0  0  0  0  0
   -1.0370   -7.3030   45.6470 C   0  0  0  0  0  0  0  0  0  0  0  0
   -0.0110   -3.3350   42.6590 N   0  0  0  0  0  0  0  0  0  0  0  0
  1  8  1  0
  1  3  1  0
  1  2  2  0
  2  5  1  0
  3  4  2  0
  4  9  1  0
  4 11  1  0
  5  6  2  0
  6  7  1  0
  7  8  2  0
  8 10  1  0
  9 17  1  0
  9 10  2  0
 11 12  2  0
 11 13  1  0
 12 14  1  0
 13 15  2  0
 14 16  2  0
 15 16  1  0
M  END
>  <vina_dock>  (930) 
-8.827

$$$$
O14757_PocketFlow_idx-in-all-generaetd-883
     RDKit          3D

 27 30  0  0  0  0  0  0  0  0999 V2000
    1.2480   -5.1540   44.5940 C   0  0  0  0  0  0  0  0  0  0  0  0
    0.6410   -5.7690   43.5020 C   0  0  0  0  0  0  0  0  0  0  0  0
   -0.3180   -6.7620   43.6960 C   0  0  0  0  0  0  0  0  0  0  0  0
   -0.7080   -7.1840   44.9880 C   0  0  0  0  0  0  0  0  0  0  0  0
   -0.0690   -6.6220   46.1080 C   0  0  0  0  0  0  0  0  0  0  0  0
    0.8720   -5.5890   45.8750 C   0  0  0  0  0  0  0  0  0  0  0  0
   -1.7470   -8.2840   45.0320 C   0  0  0  0  0  0  0  0  0  0  0  0
   -2.7640   -8.1990   46.1200 C   0  0  0  0  0  0  0  0  0  0  0  0
   -2.4540   -8.0860   47.4210 C   0  0  0  0  0  0  0  0  0  0  0  0
   -1.0820   -7.9960   48.0010 C   0  0  2  0  0  0  0  0  0  0  0  0
   -0.3500   -6.8840   47.4460 N   0  0  0  0  0  0  0  0  0  0  0  0
    2.2420   -4.0830   44.4130 C   0  0  0  0  0  0  0  0  0  0  0  0
    4.1530   -2.0280   44.0680 C   0  0  0  0  0  0  0  0  0  0  0  0
    3.1070   -2.1820   43.1510 C   0  0  0  0  0  0  0  0  0  0  0  0
    4.2440   -2.8980   45.1580 C   0  0  0  0  0  0  0  0  0  0  0  0
    2.1630   -3.1990   43.3230 C   0  0  0  0  0  0  0  0  0  0  0  0
    3.2970   -3.9150   45.3250 C   0  0  0  0  0  0  0  0  0  0  0  0
    5.1290   -0.9350   43.8450 C   0  0  0  0  0  0  0  0  0  0  0  0
    4.9560    0.0440   43.1440 O   0  0  0  0  0  0  0  0  0  0  0  0
    6.2820   -1.1200   44.5120 O   0  0  0  0  0  0  0  0  0  0  0  0
   -0.2990   -9.1880   47.8140 N   0  0  0  0  0  0  0  0  0  0  0  0
    0.8690   -9.4590   48.5180 C   0  0  0  0  0  0  0  0  0  0  0  0
    0.9710   -9.4000   49.9120 C   0  0  0  0  0  0  0  0  0  0  0  0
    2.0510   -9.6750   47.7920 C   0  0  0  0  0  0  0  0  0  0  0  0
    2.1920   -9.6180   50.5610 C   0  0  0  0  0  0  0  0  0  0  0  0
    3.2740   -9.8930   48.4330 C   0  0  0  0  0  0  0  0  0  0  0  0
    3.3430   -9.8700   49.8210 C   0  0  0  0  0  0  0  0  0  0  0  0
  1  2  2  0
  1 12  1  0
  1  6  1  0
  2  3  1  0
  3  4  2  0
  4  7  1  0
  4  5  1  0
  5  6  2  0
  5 11  1  0
  7  8  1  0
  8  9  2  0
  9 10  1  0
 10 11  1  0
 10 21  1  6
 12 16  2  0
 12 17  1  0
 13 14  2  0
 13 18  1  0
 13 15  1  0
 14 16  1  0
 15 17  2  0
 18 19  2  0
 18 20  1  0
 21 22  1  0
 22 24  1  0
 22 23  2  0
 23 25  1  0
 24 26  2  0
 25 27  2  0
 26 27  1  0
M  END
>  <vina_dock>  (931) 
-9.083

$$$$
O14757_PocketFlow_idx-in-all-generaetd-671
     RDKit          3D

 29 29  0  0  0  0  0  0  0  0999 V2000
    5.5940   -3.5090   45.8200 C   0  0  1  0  0  0  0  0  0  0  0  0
    7.0200   -3.0920   46.2520 C   0  0  0  0  0  0  0  0  0  0  0  0
    7.4480   -1.7690   45.6680 C   0  0  0  0  0  0  0  0  0  0  0  0
    8.6120   -1.1260   45.8530 C   0  0  0  0  0  0  0  0  0  0  0  0
    9.7610   -1.5410   46.7130 C   0  0  0  0  0  0  0  0  0  0  0  0
    4.9250   -4.3880   46.8580 C   0  0  0  0  0  0  0  0  0  0  0  0
    4.1690   -5.4760   46.6320 C   0  0  0  0  0  0  0  0  0  0  0  0
    3.7460   -6.0490   45.3040 C   0  0  0  0  0  0  0  0  0  0  0  0
    2.6860   -7.1540   45.4210 C   0  0  0  0  0  0  0  0  0  0  0  0
    1.4430   -6.6950   46.0450 N   0  0  0  0  0  0  0  0  0  0  0  0
    0.1860   -7.1450   45.6360 C   0  0  0  0  0  0  0  0  0  0  0  0
   -0.6300   -7.9090   46.5040 C   0  0  0  0  0  0  0  0  0  0  0  0
   -0.2630   -6.9600   44.3170 C   0  0  0  0  0  0  0  0  0  0  0  0
   -1.8620   -8.4200   46.0410 C   0  0  0  0  0  0  0  0  0  0  0  0
   -1.4900   -7.4620   43.8750 C   0  0  0  0  0  0  0  0  0  0  0  0
   -2.2920   -8.1910   44.7380 C   0  0  0  0  0  0  0  0  0  0  0  0
   -0.2500   -8.2140   47.9280 C   0  0  0  0  0  0  0  0  0  0  0  0
   -1.4270   -9.5740   48.6590 Br  0  0  0  0  0  0  0  0  0  0  0  0
    4.6960   -2.3340   45.3490 C   0  0  0  0  0  0  0  0  0  0  0  0
    4.0770   -2.2160   43.9630 C   0  0  0  0  0  0  0  0  0  0  0  0
    4.1050   -1.1600   43.1370 C   0  0  0  0  0  0  0  0  0  0  0  0
    3.4790   -1.2250   41.9410 F   0  0  0  0  0  0  0  0  0  0  0  0
    4.7410   -0.0190   43.4560 F   0  0  0  0  0  0  0  0  0  0  0  0
    3.3140   -3.4540   43.5250 C   0  0  0  0  0  0  0  0  0  0  0  0
    1.9140   -3.4760   44.0800 C   0  0  0  0  0  0  0  0  0  0  0  0
    0.7610   -3.3980   43.3960 C   0  0  0  0  0  0  0  0  0  0  0  0
    0.5840   -3.3120   41.9060 C   0  0  0  0  0  0  0  0  0  0  0  0
   -0.3600   -2.1870   41.4750 C   0  0  0  0  0  0  0  0  0  0  0  0
    0.2840   -0.8080   41.5110 C   0  0  0  0  0  0  0  0  0  0  0  0
  1 19  1  1
  1  2  1  0
  1  6  1  0
  2  3  1  0
  3  4  2  3
  4  5  1  0
  6  7  2  3
  7  8  1  0
  8  9  1  0
  9 10  1  0
 10 11  1  0
 11 13  2  0
 11 12  1  0
 12 14  2  0
 12 17  1  0
 13 15  1  0
 14 16  1  0
 15 16  2  0
 17 18  1  0
 19 20  1  0
 20 21  2  3
 20 24  1  0
 21 22  1  0
 21 23  1  0
 24 25  1  0
 25 26  2  3
 26 27  1  0
 27 28  1  0
 28 29  1  0
M  END
>  <vina_dock>  (932) 
-7.542

$$$$
O14757_PocketFlow_idx-in-all-generaetd-642
     RDKit          3D

 29 33  0  0  0  0  0  0  0  0999 V2000
   -0.7870   -7.1130   44.9940 C   0  0  0  0  0  0  0  0  0  0  0  0
   -1.2030   -7.7080   46.1970 C   0  0  0  0  0  0  0  0  0  0  0  0
   -2.3200   -8.5610   46.2480 C   0  0  0  0  0  0  0  0  0  0  0  0
   -3.0400   -8.8060   45.0710 C   0  0  0  0  0  0  0  0  0  0  0  0
   -1.5260   -7.3870   43.8320 C   0  0  0  0  0  0  0  0  0  0  0  0
   -2.6430   -8.2250   43.8690 C   0  0  0  0  0  0  0  0  0  0  0  0
    0.3880   -6.2270   44.9530 C   0  0  0  0  0  0  0  0  0  0  0  0
    7.2930   -1.2970   44.7740 C   0  0  0  0  0  0  0  0  0  0  0  0
    6.0680   -2.0140   44.7460 C   0  0  0  0  0  0  0  0  0  0  0  0
    8.3360   -1.6610   45.6260 C   0  0  0  0  0  0  0  0  0  0  0  0
    4.9550   -1.7020   43.9180 C   0  0  0  0  0  0  0  0  0  0  0  0
    5.9380   -3.1270   45.5960 C   0  0  0  0  0  0  0  0  0  0  0  0
    8.1810   -2.7500   46.4660 C   0  0  0  0  0  0  0  0  0  0  0  0
    4.9990   -0.5000   42.9990 C   0  0  0  0  0  0  0  0  0  0  0  0
    3.8100   -2.5550   43.9240 C   0  0  0  0  0  0  0  0  0  0  0  0
    6.9860   -3.4690   46.4390 C   0  0  0  0  0  0  0  0  0  0  0  0
    4.8420   -3.8930   45.6350 N   0  0  0  0  0  0  0  0  0  0  0  0
    2.6950   -2.3700   43.0760 C   0  0  0  0  0  0  0  0  0  0  0  0
    3.7960   -3.6460   44.8210 C   0  0  0  0  0  0  0  0  0  0  0  0
    1.5910   -3.2160   43.1210 C   0  0  0  0  0  0  0  0  0  0  0  0
    2.6670   -4.4990   44.8650 C   0  0  0  0  0  0  0  0  0  0  0  0
    1.5600   -4.2820   44.0150 C   0  0  0  0  0  0  0  0  0  0  0  0
    2.5980   -5.5970   45.7490 C   0  0  0  0  0  0  0  0  0  0  0  0
    0.4440   -5.1400   44.0680 C   0  0  0  0  0  0  0  0  0  0  0  0
    1.4850   -6.4420   45.7930 C   0  0  0  0  0  0  0  0  0  0  0  0
   -2.7520   -9.1680   47.5590 C   0  0  0  0  0  0  0  0  0  0  0  0
   -3.6150  -10.2120   47.4050 F   0  0  0  0  0  0  0  0  0  0  0  0
   -3.3860   -8.2840   48.3790 F   0  0  0  0  0  0  0  0  0  0  0  0
   -1.7020   -9.6560   48.2760 F   0  0  0  0  0  0  0  0  0  0  0  0
  1  5  1  0
  1  7  1  0
  1  2  2  0
  2  3  1  0
  3  4  2  0
  3 26  1  0
  4  6  1  0
  5  6  2  0
  7 24  2  0
  7 25  1  0
  8  9  2  0
  8 10  1  0
  9 11  1  0
  9 12  1  0
 10 13  2  0
 11 14  1  0
 11 15  2  0
 12 17  1  0
 12 16  2  0
 13 16  1  0
 15 18  1  0
 15 19  1  0
 17 19  2  0
 18 20  2  0
 19 21  1  0
 20 22  1  0
 21 22  2  0
 21 23  1  0
 22 24  1  0
 23 25  2  0
 26 27  1  0
 26 29  1  0
 26 28  1  0
M  END
>  <vina_dock>  (933) 
-11.297

$$$$
O14757_PocketFlow_idx-in-all-generaetd-825
     RDKit          3D

 16 18  0  0  0  0  0  0  0  0999 V2000
   -0.3380   -1.9770   42.1300 C   0  0  0  0  0  0  0  0  0  0  0  0
    0.7200   -2.7780   42.2630 C   0  0  0  0  0  0  0  0  0  0  0  0
    0.8840   -4.0750   42.9630 C   0  0  0  0  0  0  0  0  0  0  0  0
    1.8320   -3.8690   44.1550 C   0  0  0  0  0  0  0  0  0  0  0  0
    3.0240   -2.9640   43.8830 C   0  0  0  0  0  0  0  0  0  0  0  0
    3.0560   -2.0830   42.7770 C   0  0  0  0  0  0  0  0  0  0  0  0
    1.9530   -2.1090   41.7500 C   0  0  2  0  0  0  0  0  0  0  0  0
   -0.0180   -0.7530   41.6050 N   0  0  0  0  0  0  0  0  0  0  0  0
    1.2710   -0.8010   41.4370 C   0  0  0  0  0  0  0  0  0  0  0  0
    4.1660   -1.2460   42.6030 C   0  0  0  0  0  0  0  0  0  0  0  0
    5.2160   -1.2560   43.5250 C   0  0  0  0  0  0  0  0  0  0  0  0
    5.1930   -2.1170   44.6260 C   0  0  0  0  0  0  0  0  0  0  0  0
    4.0850   -2.9560   44.8040 C   0  0  0  0  0  0  0  0  0  0  0  0
    6.3040   -2.0700   45.5890 C   0  0  0  0  0  0  0  0  0  0  0  0
    7.4980   -1.5140   45.3330 C   0  0  0  0  0  0  0  0  0  0  0  0
    8.6160   -1.4650   46.3240 C   0  0  0  0  0  0  0  0  0  0  0  0
  1  8  1  0
  1  2  2  0
  2  7  1  0
  2  3  1  0
  3  4  1  0
  4  5  1  0
  5  6  2  0
  5 13  1  0
  6  7  1  0
  6 10  1  0
  7  9  1  1
  8  9  2  0
 10 11  2  0
 11 12  1  0
 12 13  2  0
 12 14  1  0
 14 15  2  3
 15 16  1  0
M  END
>  <vina_dock>  (934) 
-7.944

$$$$
O14757_PocketFlow_idx-in-all-generaetd-124
     RDKit          3D

 25 27  0  0  0  0  0  0  0  0999 V2000
    5.1200   -2.3720   44.5500 C   0  0  0  0  0  0  0  0  0  0  0  0
    4.5060   -1.6290   43.5220 C   0  0  0  0  0  0  0  0  0  0  0  0
    3.2810   -2.0700   42.9970 C   0  0  0  0  0  0  0  0  0  0  0  0
    2.6700   -3.2300   43.4760 C   0  0  0  0  0  0  0  0  0  0  0  0
    3.2760   -3.9830   44.4850 C   0  0  0  0  0  0  0  0  0  0  0  0
    4.4980   -3.5420   45.0170 C   0  0  0  0  0  0  0  0  0  0  0  0
    5.1290   -0.3740   42.9710 C   0  0  0  0  0  0  0  0  0  0  0  0
    6.4170   -1.9700   45.1120 C   0  0  0  0  0  0  0  0  0  0  0  0
    7.0170   -2.6340   46.1110 C   0  0  0  0  0  0  0  0  0  0  0  0
    8.3410   -2.2310   46.7000 C   0  0  2  0  0  0  0  0  0  0  0  0
    8.9840   -1.0320   45.9990 C   0  0  0  0  0  0  0  0  0  0  0  0
    9.4030   -3.3050   46.5510 C   0  0  0  0  0  0  0  0  0  0  0  0
   10.4450   -1.1940   46.1700 N   0  0  0  0  0  0  0  0  0  0  0  0
   10.6160   -2.4420   46.4610 C   0  0  0  0  0  0  0  0  0  0  0  0
    2.6220   -5.2370   45.0090 C   0  0  0  0  0  0  0  0  0  0  0  0
    1.4200   -5.5410   44.2970 O   0  0  0  0  0  0  0  0  0  0  0  0
    0.4830   -6.3340   45.0310 C   0  0  2  0  0  0  0  0  0  0  0  0
    1.2240   -7.4100   45.8390 C   0  0  0  0  0  0  0  0  0  0  0  0
   -0.4770   -6.9590   44.0240 C   0  0  0  0  0  0  0  0  0  0  0  0
    0.3830   -8.6570   46.1160 C   0  0  0  0  0  0  0  0  0  0  0  0
   -1.5030   -7.8220   44.7260 C   0  0  0  0  0  0  0  0  0  0  0  0
   -1.1080   -8.3620   46.0970 C   0  0  0  0  0  0  0  0  0  0  0  0
   -2.5790   -8.0780   44.1830 O   0  0  0  0  0  0  0  0  0  0  0  0
   -1.3810   -7.4620   47.0850 F   0  0  0  0  0  0  0  0  0  0  0  0
   -1.7750   -9.5020   46.4250 F   0  0  0  0  0  0  0  0  0  0  0  0
  1  2  2  0
  1  6  1  0
  1  8  1  0
  2  7  1  0
  2  3  1  0
  3  4  2  0
  4  5  1  0
  5 15  1  0
  5  6  2  0
  8  9  2  3
  9 10  1  0
 10 11  1  6
 10 12  1  0
 11 13  1  0
 12 14  1  0
 13 14  1  0
 15 16  1  0
 17 16  1  6
 17 19  1  0
 17 18  1  0
 18 20  1  0
 19 21  1  0
 20 22  1  0
 21 23  2  0
 21 22  1  0
 22 25  1  0
 22 24  1  0
M  END
>  <vina_dock>  (935) 
-8.963

$$$$
O14757_PocketFlow_idx-in-all-generaetd-552
     RDKit          3D

 13 14  0  0  0  0  0  0  0  0999 V2000
    3.5200   -3.3590   44.5660 C   0  0  0  0  0  0  0  0  0  0  0  0
    4.7440   -2.6910   44.6320 C   0  0  0  0  0  0  0  0  0  0  0  0
    2.5480   -3.0390   43.5880 C   0  0  0  0  0  0  0  0  0  0  0  0
    1.2880   -3.6920   43.4830 C   0  0  0  0  0  0  0  0  0  0  0  0
    0.3790   -3.3070   42.4830 C   0  0  0  0  0  0  0  0  0  0  0  0
    0.6940   -2.2850   41.5930 C   0  0  0  0  0  0  0  0  0  0  0  0
    1.9240   -1.6390   41.6870 C   0  0  0  0  0  0  0  0  0  0  0  0
    2.8560   -2.0020   42.6710 C   0  0  0  0  0  0  0  0  0  0  0  0
    5.0300   -1.6810   43.7230 C   0  0  0  0  0  0  0  0  0  0  0  0
    4.0920   -1.3390   42.7500 C   0  0  0  0  0  0  0  0  0  0  0  0
    0.9110   -4.8020   44.3730 C   0  0  0  0  0  0  0  0  0  0  0  0
    0.3270   -5.9250   43.9260 C   0  0  0  0  0  0  0  0  0  0  0  0
   -0.0710   -7.0610   44.8100 C   0  0  0  0  0  0  0  0  0  0  0  0
  1  3  2  0
  1  2  1  0
  2  9  2  0
  3  8  1  0
  3  4  1  0
  4  5  2  0
  4 11  1  0
  5  6  1  0
  6  7  2  0
  7  8  1  0
  8 10  2  0
  9 10  1  0
 11 12  2  3
 12 13  1  0
M  END
>  <vina_dock>  (936) 
-7.497

$$$$
O14757_PocketFlow_idx-in-all-generaetd-955
     RDKit          3D

 12 12  0  0  0  0  0  0  0  0999 V2000
    4.1740   -2.3620   43.7920 C   0  0  0  0  0  0  0  0  0  0  0  0
    5.0090   -1.3150   43.6950 C   0  0  0  0  0  0  0  0  0  0  0  0
    2.8490   -2.4920   43.1520 C   0  0  0  0  0  0  0  0  0  0  0  0
    0.6420   -3.4940   42.9010 C   0  0  0  0  0  0  0  0  0  0  0  0
    0.3550   -2.6350   41.8450 C   0  0  0  0  0  0  0  0  0  0  0  0
    1.8810   -3.4240   43.5500 C   0  0  0  0  0  0  0  0  0  0  0  0
    1.3050   -1.7040   41.4360 C   0  0  0  0  0  0  0  0  0  0  0  0
    2.5410   -1.6330   42.0850 C   0  0  0  0  0  0  0  0  0  0  0  0
    6.2940   -1.2790   44.3630 C   0  0  0  0  0  0  0  0  0  0  0  0
    6.6470   -2.1590   45.3130 C   0  0  0  0  0  0  0  0  0  0  0  0
    7.9280   -2.1230   45.9770 C   0  0  0  0  0  0  0  0  0  0  0  0
    8.7030   -1.0330   46.0080 C   0  0  0  0  0  0  0  0  0  0  0  0
  1  3  1  0
  1  2  2  3
  2  9  1  0
  3  8  2  0
  3  6  1  0
  4  5  1  0
  4  6  2  0
  5  7  2  0
  7  8  1  0
  9 10  2  3
 10 11  1  0
 11 12  2  0
M  END
>  <vina_dock>  (937) 
-6.475

$$$$
O14757_PocketFlow_idx-in-all-generaetd-733
     RDKit          3D

 35 38  0  0  0  0  0  0  0  0999 V2000
   12.7320   -4.3410   48.5290 C   0  0  0  0  0  0  0  0  0  0  0  0
   11.7120   -3.3770   48.8410 O   0  0  0  0  0  0  0  0  0  0  0  0
   11.5660   -2.3670   47.9470 C   0  0  0  0  0  0  0  0  0  0  0  0
   12.3750   -1.4800   47.7260 O   0  0  0  0  0  0  0  0  0  0  0  0
   10.2530   -2.4680   47.2520 C   0  0  0  0  0  0  0  0  0  0  0  0
    7.7520   -2.5460   45.9250 C   0  0  0  0  0  0  0  0  0  0  0  0
    8.2650   -1.3410   46.4340 C   0  0  0  0  0  0  0  0  0  0  0  0
    8.5180   -3.7110   46.0980 C   0  0  0  0  0  0  0  0  0  0  0  0
    9.5020   -1.3000   47.0880 C   0  0  0  0  0  0  0  0  0  0  0  0
    9.7550   -3.6770   46.7530 C   0  0  0  0  0  0  0  0  0  0  0  0
    6.4530   -2.5830   45.2290 C   0  0  0  0  0  0  0  0  0  0  0  0
    3.9400   -2.6650   43.8810 C   0  0  0  0  0  0  0  0  0  0  0  0
    4.8700   -1.6460   43.6220 C   0  0  0  0  0  0  0  0  0  0  0  0
    4.2880   -3.6400   44.8270 C   0  0  0  0  0  0  0  0  0  0  0  0
    6.1050   -1.6070   44.2830 C   0  0  0  0  0  0  0  0  0  0  0  0
    5.5210   -3.6000   45.4890 C   0  0  0  0  0  0  0  0  0  0  0  0
    2.6420   -2.7070   43.1880 C   0  0  0  0  0  0  0  0  0  0  0  0
    0.1110   -2.7610   41.8670 C   0  0  0  0  0  0  0  0  0  0  0  0
    1.1330   -1.9110   41.4380 C   0  0  0  0  0  0  0  0  0  0  0  0
    0.3970   -3.6240   42.9330 C   0  0  0  0  0  0  0  0  0  0  0  0
    2.3720   -1.8730   42.0950 C   0  0  0  0  0  0  0  0  0  0  0  0
    1.6320   -3.5900   43.5920 C   0  0  0  0  0  0  0  0  0  0  0  0
   -1.1170   -2.8930   41.2110 N   0  0  0  0  0  0  0  0  0  0  0  0
   -2.0450   -1.7780   41.1980 C   0  0  0  0  0  0  0  0  0  0  0  0
   12.4670   -5.6330   49.2980 C   0  0  0  0  0  0  0  0  0  0  0  0
   11.1840   -5.5880   50.1370 C   0  0  0  0  0  0  0  0  0  0  0  0
   10.0520   -6.5220   49.6450 C   0  0  1  0  0  0  0  0  0  0  0  0
    8.7440   -5.7750   49.4410 C   0  0  0  0  0  0  0  0  0  0  0  0
    8.5890   -4.4840   49.9700 C   0  0  0  0  0  0  0  0  0  0  0  0
    7.6800   -6.3310   48.7120 C   0  0  0  0  0  0  0  0  0  0  0  0
    7.4000   -3.7750   49.7850 C   0  0  0  0  0  0  0  0  0  0  0  0
    6.4900   -5.6220   48.5310 C   0  0  0  0  0  0  0  0  0  0  0  0
    6.3510   -4.3450   49.0690 C   0  0  0  0  0  0  0  0  0  0  0  0
   10.4750   -7.2610   48.3600 C   0  0  0  0  0  0  0  0  0  0  0  0
   10.7710   -8.6290   48.6390 O   0  0  0  0  0  0  0  0  0  0  0  0
  1  2  1  0
  1 25  1  0
  2  3  1  0
  3  5  1  0
  3  4  2  0
  5 10  1  0
  5  9  2  0
  6 11  1  0
  6  8  1  0
  6  7  2  0
  7  9  1  0
  8 10  2  0
 11 15  2  0
 11 16  1  0
 12 17  1  0
 12 13  2  0
 12 14  1  0
 13 15  1  0
 14 16  2  0
 17 21  2  0
 17 22  1  0
 18 23  1  0
 18 19  2  0
 18 20  1  0
 19 21  1  0
 20 22  2  0
 23 24  1  0
 25 26  1  0
 27 26  1  6
 27 34  1  0
 27 28  1  0
 28 30  1  0
 28 29  2  0
 29 31  1  0
 30 32  2  0
 31 33  2  0
 32 33  1  0
 34 35  1  0
M  END
>  <vina_dock>  (938) 
-7.343

$$$$
O14757_PocketFlow_idx-in-all-generaetd-715
     RDKit          3D

 12 11  0  0  0  0  0  0  0  0999 V2000
    2.3020   -3.2790   43.5050 C   0  0  0  0  0  0  0  0  0  0  0  0
    3.1050   -4.0880   44.2140 C   0  0  0  0  0  0  0  0  0  0  0  0
    0.8150   -3.4670   43.3870 C   0  0  0  0  0  0  0  0  0  0  0  0
    0.3240   -3.1090   41.9830 C   0  0  0  0  0  0  0  0  0  0  0  0
    1.2400   -2.1230   41.2540 C   0  0  0  0  0  0  0  0  0  0  0  0
    0.8570   -0.6670   41.4670 C   0  0  0  0  0  0  0  0  0  0  0  0
    4.5930   -3.9060   44.3330 C   0  0  0  0  0  0  0  0  0  0  0  0
    4.9510   -2.7840   45.2830 C   0  0  0  0  0  0  0  0  0  0  0  0
    5.3370   -1.5500   44.8980 C   0  0  0  0  0  0  0  0  0  0  0  0
    4.8120   -3.1170   46.7470 C   0  0  0  0  0  0  0  0  0  0  0  0
    5.5480   -1.0570   43.4940 C   0  0  0  0  0  0  0  0  0  0  0  0
    4.3550   -0.2510   43.0070 C   0  0  0  0  0  0  0  0  0  0  0  0
  1  3  1  0
  1  2  2  3
  2  7  1  0
  3  4  1  0
  4  5  1  0
  5  6  1  0
  7  8  1  0
  8  9  2  3
  8 10  1  0
  9 11  1  0
 11 12  1  0
M  END
>  <vina_dock>  (939) 
-5.805

$$$$
O14757_PocketFlow_idx-in-all-generaetd-994
     RDKit          3D

 30 34  0  0  0  0  0  0  0  0999 V2000
    3.7390   -2.4860   44.1580 C   0  0  0  0  0  0  0  0  0  0  0  0
    3.7550   -2.0480   42.8850 C   0  0  0  0  0  0  0  0  0  0  0  0
    4.5910   -0.8820   42.7700 C   0  0  0  0  0  0  0  0  0  0  0  0
    4.6440   -1.5930   44.9970 C   0  0  2  0  0  0  0  0  0  0  0  0
    5.1120   -0.5870   43.9680 C   0  0  0  0  0  0  0  0  0  0  0  0
    2.9660   -3.6130   44.6230 C   0  0  0  0  0  0  0  0  0  0  0  0
    3.2930   -4.9100   44.4950 C   0  0  0  0  0  0  0  0  0  0  0  0
    4.4530   -5.2520   43.8900 F   0  0  0  0  0  0  0  0  0  0  0  0
    2.4590   -6.0330   44.9590 C   0  0  0  0  0  0  0  0  0  0  0  0
   -3.2700   -8.6690   47.7110 N   0  0  0  0  0  0  0  0  0  0  0  0
   -2.7550   -9.5470   48.5190 C   0  0  0  0  0  0  0  0  0  0  0  0
   -2.1710   -8.4650   46.7060 C   0  0  2  0  0  0  0  0  0  0  0  0
   -1.4530   -9.9280   48.3420 N   0  0  0  0  0  0  0  0  0  0  0  0
   -0.8950   -8.9100   47.4610 C   0  0  1  0  0  0  0  0  0  0  0  0
   -2.0120   -7.1510   46.1930 O   0  0  0  0  0  0  0  0  0  0  0  0
    0.1830   -9.4000   46.5130 C   0  0  0  0  0  0  0  0  0  0  0  0
   -1.2080   -7.1290   45.0120 C   0  0  1  0  0  0  0  0  0  0  0  0
    0.9400   -8.2200   45.9330 C   0  0  0  0  0  0  0  0  0  0  0  0
    0.2890   -7.1470   45.2820 C   0  0  0  0  0  0  0  0  0  0  0  0
   -1.5950   -8.1460   44.1940 F   0  0  0  0  0  0  0  0  0  0  0  0
    2.3360   -8.1860   46.0780 C   0  0  0  0  0  0  0  0  0  0  0  0
    1.0640   -6.0640   44.8130 C   0  0  0  0  0  0  0  0  0  0  0  0
    3.0810   -7.1050   45.6030 C   0  0  0  0  0  0  0  0  0  0  0  0
    5.8090   -2.2770   45.6870 C   0  0  0  0  0  0  0  0  0  0  0  0
    7.1150   -2.0640   45.2090 C   0  0  0  0  0  0  0  0  0  0  0  0
    5.6460   -3.1480   46.7730 C   0  0  0  0  0  0  0  0  0  0  0  0
    8.2120   -2.6880   45.8110 C   0  0  0  0  0  0  0  0  0  0  0  0
    4.4270   -3.4110   47.2630 F   0  0  0  0  0  0  0  0  0  0  0  0
    6.7380   -3.7720   47.3760 C   0  0  0  0  0  0  0  0  0  0  0  0
    8.0240   -3.5420   46.8950 C   0  0  0  0  0  0  0  0  0  0  0  0
  1  2  2  0
  1  6  1  0
  1  4  1  0
  2  3  1  0
  3  5  2  0
  4  5  1  0
  4 24  1  6
  6  7  2  3
  7  8  1  0
  7  9  1  0
  9 22  2  0
  9 23  1  0
 12 10  1  1
 10 11  1  0
 11 13  1  0
 12 15  1  0
 12 14  1  0
 13 14  1  0
 14 16  1  6
 15 17  1  0
 16 18  1  0
 17 20  1  6
 17 19  1  0
 18 19  2  0
 18 21  1  0
 19 22  1  0
 21 23  2  0
 24 25  2  0
 24 26  1  0
 25 27  1  0
 26 28  1  0
 26 29  2  0
 27 30  2  0
 29 30  1  0
M  END
>  <vina_dock>  (940) 
-10.697

$$$$
O14757_PocketFlow_idx-in-all-generaetd-803
     RDKit          3D

 33 35  0  0  0  0  0  0  0  0999 V2000
    3.9900   -2.5780   43.6030 C   0  0  0  0  0  0  0  0  0  0  0  0
    5.2300   -2.4670   44.4590 C   0  0  0  0  0  0  0  0  0  0  0  0
    6.6380   -3.3210   46.2630 C   0  0  0  0  0  0  0  0  0  0  0  0
    7.5300   -2.2640   46.0490 C   0  0  0  0  0  0  0  0  0  0  0  0
    5.4860   -3.4080   45.4700 C   0  0  0  0  0  0  0  0  0  0  0  0
    7.2920   -1.3280   45.0410 C   0  0  0  0  0  0  0  0  0  0  0  0
    6.1510   -1.4320   44.2470 C   0  0  0  0  0  0  0  0  0  0  0  0
    6.9110   -4.2710   47.3490 C   0  0  0  0  0  0  0  0  0  0  0  0
    5.9520   -4.8700   48.0750 C   0  0  0  0  0  0  0  0  0  0  0  0
    6.2360   -5.8680   49.1830 C   0  0  2  0  0  0  0  0  0  0  0  0
    7.7420   -5.8740   49.4750 C   0  0  0  0  0  0  0  0  0  0  0  0
    5.6450   -7.2760   48.8540 C   0  0  0  0  0  0  0  0  0  0  0  0
    4.7650   -7.8230   49.8560 N   0  0  0  0  0  0  0  0  0  0  0  0
    4.8380   -7.3000   47.6610 N   0  0  0  0  0  0  0  0  0  0  0  0
    2.9070   -3.4370   44.2120 C   0  0  0  0  0  0  0  0  0  0  0  0
    1.7200   -3.6900   43.5120 C   0  0  0  0  0  0  0  0  0  0  0  0
    3.0640   -3.9820   45.4940 C   0  0  0  0  0  0  0  0  0  0  0  0
    0.7160   -4.4840   44.0750 C   0  0  0  0  0  0  0  0  0  0  0  0
    2.0610   -4.7750   46.0560 C   0  0  0  0  0  0  0  0  0  0  0  0
    0.8780   -5.0410   45.3500 C   0  0  0  0  0  0  0  0  0  0  0  0
   -0.2080   -5.9000   45.9630 C   0  0  0  0  0  0  0  0  0  0  0  0
   -0.3240   -7.2390   45.3420 N   0  0  0  0  0  0  0  0  0  0  0  0
    0.2020   -8.4120   46.1110 C   0  0  1  0  0  0  0  0  0  0  0  0
    1.7610   -8.4730   46.0830 C   0  0  0  0  0  0  0  0  0  0  0  0
   -0.4100   -8.4280   47.4920 C   0  0  0  0  0  0  0  0  0  0  0  0
    2.4110   -9.7590   46.3850 N   0  0  0  0  0  0  0  0  0  0  0  0
    0.1400   -8.9080   48.6200 C   0  0  0  0  0  0  0  0  0  0  0  0
    1.8180  -10.4940   47.5040 C   0  0  0  0  0  0  0  0  0  0  0  0
    1.4380   -9.6600   48.7380 C   0  0  0  0  0  0  0  0  0  0  0  0
   -1.1310   -7.4720   44.2270 C   0  0  0  0  0  0  0  0  0  0  0  0
   -2.3760   -7.9450   44.0760 C   0  0  0  0  0  0  0  0  0  0  0  0
   -3.3300   -8.2380   45.1180 C   0  0  0  0  0  0  0  0  0  0  0  0
   -3.5010   -9.4610   45.6310 C   0  0  0  0  0  0  0  0  0  0  0  0
  1 15  1  0
  1  2  1  0
  2  7  2  0
  2  5  1  0
  3  5  2  0
  3  4  1  0
  3  8  1  0
  4  6  2  0
  6  7  1  0
  8  9  2  3
  9 10  1  0
 10 12  1  0
 10 11  1  6
 12 14  1  0
 12 13  1  0
 15 16  2  0
 15 17  1  0
 16 18  1  0
 17 19  2  0
 18 20  2  0
 19 20  1  0
 20 21  1  0
 21 22  1  0
 22 30  1  0
 23 22  1  1
 23 24  1  0
 23 25  1  0
 24 26  1  0
 25 27  2  0
 26 28  1  0
 27 29  1  0
 28 29  1  0
 30 31  2  3
 31 32  1  0
 32 33  2  0
M  END
>  <vina_dock>  (941) 
-8.727

$$$$
O14757_PocketFlow_idx-in-all-generaetd-57
     RDKit          3D

 35 39  0  0  0  0  0  0  0  0999 V2000
    3.9550   -4.3320   45.3170 C   0  0  0  0  0  0  0  0  0  0  0  0
    2.7380   -3.8700   45.8350 C   0  0  0  0  0  0  0  0  0  0  0  0
    1.5780   -4.6470   45.7360 C   0  0  0  0  0  0  0  0  0  0  0  0
    1.6000   -5.9070   45.1180 C   0  0  0  0  0  0  0  0  0  0  0  0
    2.8220   -6.3650   44.6030 C   0  0  0  0  0  0  0  0  0  0  0  0
    3.9830   -5.5900   44.7020 C   0  0  0  0  0  0  0  0  0  0  0  0
    5.1750   -3.5210   45.4320 C   0  0  0  0  0  0  0  0  0  0  0  0
    9.6910   -1.6470   46.8690 C   0  0  0  0  0  0  0  0  0  0  0  0
    8.7550   -1.2870   45.8900 C   0  0  0  0  0  0  0  0  0  0  0  0
    9.4410   -2.7450   47.6960 C   0  0  0  0  0  0  0  0  0  0  0  0
    7.5670   -2.0220   45.7320 C   0  0  0  0  0  0  0  0  0  0  0  0
    8.2630   -3.4800   47.5480 C   0  0  0  0  0  0  0  0  0  0  0  0
    7.3180   -3.1300   46.5710 C   0  0  0  0  0  0  0  0  0  0  0  0
    6.6200   -1.6750   44.7570 C   0  0  0  0  0  0  0  0  0  0  0  0
    6.1290   -3.8620   46.4100 C   0  0  0  0  0  0  0  0  0  0  0  0
    5.4400   -2.4150   44.6080 C   0  0  0  0  0  0  0  0  0  0  0  0
    4.3280   -1.9000   43.3850 Cl  0  0  0  0  0  0  0  0  0  0  0  0
   10.9540   -0.8940   47.0630 C   0  0  0  0  0  0  0  0  0  0  0  0
   11.7000   -0.5150   46.1790 O   0  0  0  0  0  0  0  0  0  0  0  0
   11.2240   -0.6520   48.3570 O   0  0  0  0  0  0  0  0  0  0  0  0
    0.3790   -6.7210   45.0100 C   0  0  0  0  0  0  0  0  0  0  0  0
   -0.4040   -6.6930   43.8470 C   0  0  0  0  0  0  0  0  0  0  0  0
   -0.0350   -7.5490   46.0730 C   0  0  0  0  0  0  0  0  0  0  0  0
   -1.5590   -7.4640   43.7460 C   0  0  0  0  0  0  0  0  0  0  0  0
   -1.1960   -8.3420   45.9970 C   0  0  0  0  0  0  0  0  0  0  0  0
   -1.9510   -8.2770   44.8090 C   0  0  0  0  0  0  0  0  0  0  0  0
   -1.6700   -9.2560   47.1530 C   0  0  0  0  0  0  0  0  0  0  0  0
   -2.7080   -8.5880   48.0930 C   0  0  0  0  0  0  0  0  0  0  0  0
   -2.4040  -10.4510   46.4890 C   0  0  0  0  0  0  0  0  0  0  0  0
   -0.4810   -9.6780   48.0500 C   0  0  0  0  0  0  0  0  0  0  0  0
    0.7610  -10.0840   47.5330 C   0  0  0  0  0  0  0  0  0  0  0  0
   -0.6330   -9.6770   49.4530 C   0  0  0  0  0  0  0  0  0  0  0  0
    1.8060  -10.4640   48.3810 C   0  0  0  0  0  0  0  0  0  0  0  0
    0.4130  -10.0560   50.2980 C   0  0  0  0  0  0  0  0  0  0  0  0
    1.6320  -10.4500   49.7610 C   0  0  0  0  0  0  0  0  0  0  0  0
  1  6  1  0
  1  7  1  0
  1  2  2  0
  2  3  1  0
  3  4  2  0
  4  5  1  0
  4 21  1  0
  5  6  2  0
  7 16  2  0
  7 15  1  0
  8  9  2  0
  8 18  1  0
  8 10  1  0
  9 11  1  0
 10 12  2  0
 11 14  2  0
 11 13  1  0
 12 13  1  0
 13 15  2  0
 14 16  1  0
 16 17  1  0
 18 19  2  0
 18 20  1  0
 21 22  2  0
 21 23  1  0
 22 24  1  0
 23 25  2  0
 24 26  2  0
 25 26  1  0
 25 27  1  0
 27 29  1  0
 27 30  1  0
 27 28  1  0
 30 31  2  0
 30 32  1  0
 31 33  1  0
 32 34  2  0
 33 35  2  0
 34 35  1  0
M  END
>  <vina_dock>  (942) 
-10.276

$$$$
O14757_PocketFlow_idx-in-all-generaetd-379
     RDKit          3D

 24 26  0  0  0  0  0  0  0  0999 V2000
    3.8220   -4.7670   46.3320 C   0  0  0  0  0  0  0  0  0  0  0  0
    4.5730   -3.7020   46.0000 C   0  0  0  0  0  0  0  0  0  0  0  0
    3.4650   -5.9370   45.4650 C   0  0  0  0  0  0  0  0  0  0  0  0
    2.1430   -6.4730   45.7600 N   0  0  0  0  0  0  0  0  0  0  0  0
    1.0660   -5.4950   45.7440 C   0  0  2  0  0  0  0  0  0  0  0  0
    0.0110   -6.0160   46.5570 O   0  0  0  0  0  0  0  0  0  0  0  0
   -1.0370   -6.6920   45.8580 C   0  0  0  0  0  0  0  0  0  0  0  0
    0.5790   -5.1580   44.3290 C   0  0  0  0  0  0  0  0  0  0  0  0
   -0.5890   -7.3850   44.5780 C   0  0  2  0  0  0  0  0  0  0  0  0
    0.0220   -6.3840   43.6040 C   0  0  0  0  0  0  0  0  0  0  0  0
   -1.6580   -7.9790   43.9820 F   0  0  0  0  0  0  0  0  0  0  0  0
    5.2900   -3.4530   44.7010 C   0  0  0  0  0  0  0  0  0  0  0  0
    4.6260   -2.3730   43.8810 C   0  0  0  0  0  0  0  0  0  0  0  0
    5.2940   -1.1720   43.6140 C   0  0  0  0  0  0  0  0  0  0  0  0
    3.3410   -2.5700   43.3500 C   0  0  0  0  0  0  0  0  0  0  0  0
    4.6850   -0.1830   42.8460 C   0  0  0  0  0  0  0  0  0  0  0  0
    2.7090   -1.5840   42.5710 C   0  0  0  0  0  0  0  0  0  0  0  0
    3.4030   -0.3880   42.3310 C   0  0  0  0  0  0  0  0  0  0  0  0
    1.3600   -1.8010   42.0240 C   0  0  0  0  0  0  0  0  0  0  0  0
    0.8970   -3.0950   41.7300 C   0  0  0  0  0  0  0  0  0  0  0  0
    0.4960   -0.7210   41.7770 C   0  0  0  0  0  0  0  0  0  0  0  0
   -0.3830   -3.3010   41.2090 C   0  0  0  0  0  0  0  0  0  0  0  0
   -0.7850   -0.9260   41.2590 C   0  0  0  0  0  0  0  0  0  0  0  0
   -1.2230   -2.2160   40.9740 C   0  0  0  0  0  0  0  0  0  0  0  0
  1  3  1  0
  1  2  2  3
  2 12  1  0
  3  4  1  0
  5  4  1  6
  5  8  1  0
  5  6  1  0
  6  7  1  0
  7  9  1  0
  8 10  1  0
  9 10  1  0
  9 11  1  6
 12 13  1  0
 13 15  1  0
 13 14  2  0
 14 16  1  0
 15 17  2  0
 16 18  2  0
 17 19  1  0
 17 18  1  0
 19 20  2  0
 19 21  1  0
 20 22  1  0
 21 23  2  0
 22 24  2  0
 23 24  1  0
M  END
>  <vina_dock>  (943) 
-8.598

$$$$
O14757_PocketFlow_idx-in-all-generaetd-538
     RDKit          3D

 19 21  0  0  0  0  0  0  0  0999 V2000
    1.1160   -2.6910   42.4700 C   0  0  0  0  0  0  0  0  0  0  0  0
    2.1820   -1.8120   42.2400 C   0  0  0  0  0  0  0  0  0  0  0  0
    3.3590   -1.8980   43.0040 C   0  0  0  0  0  0  0  0  0  0  0  0
    3.4670   -2.8860   44.0080 C   0  0  0  0  0  0  0  0  0  0  0  0
    2.3980   -3.7720   44.2170 C   0  0  0  0  0  0  0  0  0  0  0  0
    1.2340   -3.6780   43.4520 C   0  0  0  0  0  0  0  0  0  0  0  0
    4.6450   -2.9680   44.7720 C   0  0  0  0  0  0  0  0  0  0  0  0
    5.7240   -2.0920   44.5620 C   0  0  0  0  0  0  0  0  0  0  0  0
    5.5990   -1.1230   43.5570 C   0  0  0  0  0  0  0  0  0  0  0  0
    4.4350   -1.0260   42.7880 C   0  0  0  0  0  0  0  0  0  0  0  0
   -0.1420   -2.6270   41.6820 C   0  0  0  0  0  0  0  0  0  0  0  0
   -0.4890   -3.7310   40.9530 N   0  0  0  0  0  0  0  0  0  0  0  0
   -0.8300   -1.6140   41.6480 O   0  0  0  0  0  0  0  0  0  0  0  0
    6.9490   -2.1930   45.3710 C   0  0  0  0  0  0  0  0  0  0  0  0
    7.2390   -3.3580   46.1020 C   0  0  0  0  0  0  0  0  0  0  0  0
    7.8630   -1.1290   45.4370 C   0  0  0  0  0  0  0  0  0  0  0  0
    8.4030   -3.4550   46.8710 C   0  0  0  0  0  0  0  0  0  0  0  0
    9.0260   -1.2240   46.2050 C   0  0  0  0  0  0  0  0  0  0  0  0
    9.2950   -2.3870   46.9210 C   0  0  0  0  0  0  0  0  0  0  0  0
  1 11  1  0
  1  2  2  0
  1  6  1  0
  2  3  1  0
  3 10  2  0
  3  4  1  0
  4  5  1  0
  4  7  2  0
  5  6  2  0
  7  8  1  0
  8  9  2  0
  8 14  1  0
  9 10  1  0
 11 12  1  0
 11 13  2  0
 14 16  1  0
 14 15  2  0
 15 17  1  0
 16 18  2  0
 17 19  2  0
 18 19  1  0
M  END
>  <vina_dock>  (944) 
-9.602

$$$$
O14757_PocketFlow_idx-in-all-generaetd-242
     RDKit          3D

 11 11  0  0  0  0  0  0  0  0999 V2000
    3.7310   -2.2570   43.1710 C   0  0  0  0  0  0  0  0  0  0  0  0
    4.6870   -1.4030   43.5730 C   0  0  0  0  0  0  0  0  0  0  0  0
    3.2820   -3.4540   43.8880 C   0  0  0  0  0  0  0  0  0  0  0  0
    3.7340   -5.6320   44.8530 C   0  0  0  0  0  0  0  0  0  0  0  0
    2.4090   -5.7200   45.2790 C   0  0  0  0  0  0  0  0  0  0  0  0
    4.1710   -4.5010   44.1600 C   0  0  0  0  0  0  0  0  0  0  0  0
    1.5210   -4.6790   45.0140 C   0  0  0  0  0  0  0  0  0  0  0  0
    1.9550   -3.5470   44.3220 C   0  0  0  0  0  0  0  0  0  0  0  0
    5.4800   -1.5110   44.7780 C   0  0  0  0  0  0  0  0  0  0  0  0
    6.7870   -1.8140   44.7620 C   0  0  0  0  0  0  0  0  0  0  0  0
    7.6240   -1.9360   45.9950 C   0  0  0  0  0  0  0  0  0  0  0  0
  1  2  2  3
  1  3  1  0
  2  9  1  0
  3  6  2  0
  3  8  1  0
  4  6  1  0
  4  5  2  0
  5  7  1  0
  7  8  2  0
  9 10  2  3
 10 11  1  0
M  END
>  <vina_dock>  (945) 
-5.788

$$$$
O14757_PocketFlow_idx-in-all-generaetd-306
     RDKit          3D

 31 34  0  0  0  0  0  0  0  0999 V2000
    1.1890   -6.3350   44.5960 C   0  0  1  0  0  0  0  0  0  0  0  0
    0.4050   -5.2860   43.8010 C   0  0  0  0  0  0  0  0  0  0  0  0
    1.2720   -4.1000   43.4520 C   0  0  0  0  0  0  0  0  0  0  0  0
    0.8550   -3.2500   42.4190 C   0  0  0  0  0  0  0  0  0  0  0  0
    1.6280   -2.1520   42.0800 C   0  0  0  0  0  0  0  0  0  0  0  0
    2.8230   -1.8910   42.7390 C   0  0  0  0  0  0  0  0  0  0  0  0
    3.2710   -2.7270   43.7780 C   0  0  0  0  0  0  0  0  0  0  0  0
    2.4570   -3.8240   44.1740 C   0  0  0  0  0  0  0  0  0  0  0  0
    4.5610   -2.5110   44.4640 C   0  0  0  0  0  0  0  0  0  0  0  0
    4.8040   -3.1690   45.6870 C   0  0  0  0  0  0  0  0  0  0  0  0
    3.6870   -3.9990   46.2660 C   0  0  0  0  0  0  0  0  0  0  0  0
    2.8750   -4.6640   45.2310 N   0  0  0  0  0  0  0  0  0  0  0  0
    1.8800   -5.6090   45.7520 C   0  0  0  0  0  0  0  0  0  0  0  0
    5.5900   -1.7100   43.9720 C   0  0  0  0  0  0  0  0  0  0  0  0
    6.0080   -2.9580   46.3860 C   0  0  0  0  0  0  0  0  0  0  0  0
    6.9530   -2.1340   45.7720 C   0  0  0  0  0  0  0  0  0  0  0  0
    6.7780   -1.5050   44.5890 N   0  0  0  0  0  0  0  0  0  0  0  0
    0.3040   -7.5270   45.0210 C   0  0  2  0  0  0  0  0  0  0  0  0
   -1.3080   -7.4840   44.2290 Cl  0  0  0  0  0  0  0  0  0  0  0  0
    0.1270   -7.6010   46.5390 C   0  0  0  0  0  0  0  0  0  0  0  0
   -1.2460   -7.1850   46.9780 C   0  0  0  0  0  0  0  0  0  0  0  0
   -2.1250   -7.9260   47.3820 O   0  0  0  0  0  0  0  0  0  0  0  0
   -1.4770   -5.8680   46.8200 O   0  0  0  0  0  0  0  0  0  0  0  0
    1.2530   -1.2970   41.0850 O   0  0  0  0  0  0  0  0  0  0  0  0
    6.2680   -3.6510   47.5920 N   0  0  0  0  0  0  0  0  0  0  0  0
    6.1440   -5.0140   47.7750 C   0  0  0  0  0  0  0  0  0  0  0  0
    5.9240   -5.6970   48.9080 C   0  0  0  0  0  0  0  0  0  0  0  0
    5.7890   -7.1360   48.9510 C   0  0  0  0  0  0  0  0  0  0  0  0
    5.2280   -7.8430   47.9580 C   0  0  0  0  0  0  0  0  0  0  0  0
    5.0900   -9.2800   47.9990 C   0  0  0  0  0  0  0  0  0  0  0  0
    4.2190   -9.9500   47.2370 C   0  0  0  0  0  0  0  0  0  0  0  0
  1  2  1  1
  1 18  1  0
  1 13  1  0
  2  3  1  0
  3  4  1  0
  3  8  2  0
  4  5  2  0
  5 24  1  0
  5  6  1  0
  6  7  2  0
  7  8  1  0
  7  9  1  0
  8 12  1  0
  9 14  2  0
  9 10  1  0
 10 11  1  0
 10 15  2  0
 11 12  1  0
 12 13  1  0
 14 17  1  0
 15 16  1  0
 15 25  1  0
 16 17  2  0
 18 19  1  6
 18 20  1  0
 20 21  1  0
 21 23  1  0
 21 22  2  0
 25 26  1  0
 26 27  2  3
 27 28  1  0
 28 29  2  3
 29 30  1  0
 30 31  2  0
M  END
>  <vina_dock>  (946) 
-8.388

$$$$
O14757_PocketFlow_idx-in-all-generaetd-220
     RDKit          3D

 35 37  0  0  0  0  0  0  0  0999 V2000
    1.0560   -3.8820   43.5350 C   0  0  0  0  0  0  0  0  0  0  0  0
    2.4450   -3.3310   43.7050 C   0  0  0  0  0  0  0  0  0  0  0  0
    3.5570   -4.0220   44.0060 C   0  0  0  0  0  0  0  0  0  0  0  0
    3.6570   -5.5070   44.2360 C   0  0  0  0  0  0  0  0  0  0  0  0
    2.8780   -6.0490   45.4720 C   0  0  2  0  0  0  0  0  0  0  0  0
    5.6300   -6.3630   48.1270 C   0  0  0  0  0  0  0  0  0  0  0  0
    4.6730   -5.8740   47.2260 C   0  0  0  0  0  0  0  0  0  0  0  0
    5.7370   -7.7400   48.3080 C   0  0  0  0  0  0  0  0  0  0  0  0
    3.8310   -6.7240   46.4750 C   0  0  0  0  0  0  0  0  0  0  0  0
    4.8840   -8.6010   47.6190 C   0  0  0  0  0  0  0  0  0  0  0  0
    3.9190   -8.1140   46.7160 C   0  0  0  0  0  0  0  0  0  0  0  0
    1.6870   -6.8730   44.9130 C   0  0  0  0  0  0  0  0  0  0  0  0
    2.9800   -9.1220   46.0910 C   0  0  0  0  0  0  0  0  0  0  0  0
    0.9270   -7.7090   45.9230 C   0  0  0  0  0  0  0  0  0  0  0  0
    1.5480   -8.7980   46.4230 C   0  0  0  0  0  0  0  0  0  0  0  0
    6.5080   -5.4110   48.9010 C   0  0  0  0  0  0  0  0  0  0  0  0
    7.9800   -5.4580   48.4730 C   0  0  0  0  0  0  0  0  0  0  0  0
    8.4590   -4.1920   47.8330 C   0  0  0  0  0  0  0  0  0  0  0  0
    9.7390   -3.7110   48.0040 C   0  0  0  0  0  0  0  0  0  0  0  0
    7.6490   -3.3950   47.0520 C   0  0  0  0  0  0  0  0  0  0  0  0
   10.1880   -2.5620   47.4620 N   0  0  0  0  0  0  0  0  0  0  0  0
    8.0560   -2.2450   46.4810 N   0  0  0  0  0  0  0  0  0  0  0  0
    9.3240   -1.8870   46.6980 C   0  0  0  0  0  0  0  0  0  0  0  0
    9.7590   -0.7040   46.1400 N   0  0  0  0  0  0  0  0  0  0  0  0
   -0.4600   -7.2200   46.2490 C   0  0  1  0  0  0  0  0  0  0  0  0
   -1.7560   -8.3990   45.9960 Cl  0  0  0  0  0  0  0  0  0  0  0  0
   -0.4910   -6.8730   47.6240 O   0  0  0  0  0  0  0  0  0  0  0  0
    0.3390   -3.3300   42.2950 C   0  0  0  0  0  0  0  0  0  0  0  0
    1.1330   -2.2870   41.4970 C   0  0  0  0  0  0  0  0  0  0  0  0
    0.6680   -0.8430   41.6870 C   0  0  0  0  0  0  0  0  0  0  0  0
    1.7440    0.0860   41.6440 O   0  0  0  0  0  0  0  0  0  0  0  0
    3.0460   -0.5020   41.6480 C   0  0  0  0  0  0  0  0  0  0  0  0
    3.8770    0.0160   42.8260 C   0  0  0  0  0  0  0  0  0  0  0  0
    5.1650   -0.7420   42.9870 C   0  0  0  0  0  0  0  0  0  0  0  0
    5.6950   -1.0720   44.1730 C   0  0  0  0  0  0  0  0  0  0  0  0
  1 28  1  0
  1  2  1  0
  2  3  2  3
  3  4  1  0
  5  4  1  6
  5 12  1  0
  5  9  1  0
  6  7  2  0
  6  8  1  0
  6 16  1  0
  7  9  1  0
  8 10  2  0
  9 11  2  0
 10 11  1  0
 11 13  1  0
 12 14  1  0
 13 15  1  0
 14 25  1  0
 14 15  2  0
 16 17  1  0
 17 18  1  0
 18 20  1  0
 18 19  2  0
 19 21  1  0
 20 22  2  0
 21 23  2  0
 22 23  1  0
 23 24  1  0
 25 26  1  0
 25 27  1  1
 28 29  1  0
 29 30  1  0
 30 31  1  0
 31 32  1  0
 32 33  1  0
 33 34  1  0
 34 35  2  0
M  END
>  <vina_dock>  (947) 
-6.93

$$$$
O14757_PocketFlow_idx-in-all-generaetd-365
     RDKit          3D

 20 22  0  0  0  0  0  0  0  0999 V2000
    2.7710   -4.6280   45.5300 C   0  0  0  0  0  0  0  0  0  0  0  0
    3.2700   -3.6010   44.7130 C   0  0  0  0  0  0  0  0  0  0  0  0
    2.4670   -3.1560   43.6480 C   0  0  0  0  0  0  0  0  0  0  0  0
    1.2040   -3.7170   43.3970 C   0  0  0  0  0  0  0  0  0  0  0  0
    1.5130   -5.1880   45.2940 C   0  0  0  0  0  0  0  0  0  0  0  0
    0.7330   -4.7330   44.2340 C   0  0  0  0  0  0  0  0  0  0  0  0
    4.5930   -3.0060   44.9640 C   0  0  0  0  0  0  0  0  0  0  0  0
    5.0510   -1.9170   44.2100 C   0  0  0  0  0  0  0  0  0  0  0  0
    5.4360   -3.5130   45.9690 C   0  0  0  0  0  0  0  0  0  0  0  0
    6.3060   -1.3570   44.4560 C   0  0  0  0  0  0  0  0  0  0  0  0
    6.6900   -2.9770   46.2380 C   0  0  0  0  0  0  0  0  0  0  0  0
    7.1260   -1.8810   45.4650 C   0  0  0  0  0  0  0  0  0  0  0  0
    7.4390   -3.5140   47.2160 N   0  0  0  0  0  0  0  0  0  0  0  0
    8.3910   -1.3420   45.7380 C   0  0  0  0  0  0  0  0  0  0  0  0
    8.6500   -2.9670   47.4470 C   0  0  0  0  0  0  0  0  0  0  0  0
    9.1660   -1.8950   46.7470 C   0  0  0  0  0  0  0  0  0  0  0  0
    9.3940   -3.5070   48.4240 F   0  0  0  0  0  0  0  0  0  0  0  0
    0.3560   -3.2070   42.2580 C   0  0  0  0  0  0  0  0  0  0  0  0
    1.1390   -2.2550   41.3540 C   0  0  0  0  0  0  0  0  0  0  0  0
    0.6990   -0.8130   41.5520 C   0  0  0  0  0  0  0  0  0  0  0  0
  1  2  2  0
  1  5  1  0
  2  3  1  0
  2  7  1  0
  3  4  2  0
  4 18  1  0
  4  6  1  0
  5  6  2  0
  7  8  2  0
  7  9  1  0
  8 10  1  0
  9 11  2  0
 10 12  2  0
 11 12  1  0
 11 13  1  0
 12 14  1  0
 13 15  2  0
 14 16  2  0
 15 16  1  0
 15 17  1  0
 18 19  1  0
 19 20  1  0
M  END
>  <vina_dock>  (948) 
-8.847

$$$$
O14757_PocketFlow_idx-in-all-generaetd-205
     RDKit          3D

 35 39  0  0  0  0  0  0  0  0999 V2000
    5.8550   -3.0800   44.6190 C   0  0  0  0  0  0  0  0  0  0  0  0
    6.4360   -2.1310   45.3710 C   0  0  0  0  0  0  0  0  0  0  0  0
    4.4970   -2.9630   44.0700 C   0  0  0  0  0  0  0  0  0  0  0  0
    0.1250   -1.5910   41.7850 C   0  0  0  0  0  0  0  0  0  0  0  0
    0.5320   -2.6560   42.6140 C   0  0  0  0  0  0  0  0  0  0  0  0
    1.0960   -0.6260   41.4640 C   0  0  0  0  0  0  0  0  0  0  0  0
    1.8460   -2.7650   43.1060 C   0  0  0  0  0  0  0  0  0  0  0  0
    2.4080   -0.7170   41.9430 C   0  0  0  0  0  0  0  0  0  0  0  0
    2.2320   -3.8280   43.9350 C   0  0  0  0  0  0  0  0  0  0  0  0
    2.7980   -1.7820   42.7640 C   0  0  0  0  0  0  0  0  0  0  0  0
    3.5420   -3.9220   44.4160 C   0  0  0  0  0  0  0  0  0  0  0  0
    4.1120   -1.8900   43.2550 C   0  0  0  0  0  0  0  0  0  0  0  0
   -1.2570   -1.4890   41.2760 C   0  0  0  0  0  0  0  0  0  0  0  0
   -1.8590   -0.2820   41.3100 N   0  0  0  0  0  0  0  0  0  0  0  0
   -1.8470   -2.6140   40.8000 N   0  0  0  0  0  0  0  0  0  0  0  0
   -3.1120   -0.2300   40.8410 C   0  0  0  0  0  0  0  0  0  0  0  0
   -3.1140   -2.5530   40.3260 N   0  0  0  0  0  0  0  0  0  0  0  0
   -3.7360   -1.3620   40.3500 C   0  0  0  0  0  0  0  0  0  0  0  0
   -3.7590    1.0130   40.8680 N   0  0  0  0  0  0  0  0  0  0  0  0
    7.8010   -2.2370   45.9060 C   0  0  0  0  0  0  0  0  0  0  0  0
    8.3130   -3.4450   46.4070 C   0  0  0  0  0  0  0  0  0  0  0  0
    8.5940   -1.0880   45.9680 C   0  0  0  0  0  0  0  0  0  0  0  0
    9.6130   -3.5260   46.9400 C   0  0  0  0  0  0  0  0  0  0  0  0
    9.8850   -1.1480   46.4920 C   0  0  0  0  0  0  0  0  0  0  0  0
   10.3900   -2.3580   46.9710 C   0  0  0  0  0  0  0  0  0  0  0  0
   10.1390   -4.8000   47.4580 C   0  0  0  0  0  0  0  0  0  0  0  0
    9.6080   -6.0300   47.0320 C   0  0  0  0  0  0  0  0  0  0  0  0
   11.1870   -4.8230   48.3920 C   0  0  0  0  0  0  0  0  0  0  0  0
   10.1060   -7.2530   47.5150 C   0  0  0  0  0  0  0  0  0  0  0  0
   11.6870   -6.0290   48.8870 C   0  0  0  0  0  0  0  0  0  0  0  0
   11.1460   -7.2390   48.4530 C   0  0  0  0  0  0  0  0  0  0  0  0
    9.4980   -8.5560   47.0600 C   0  0  0  0  0  0  0  0  0  0  0  0
   10.1860   -9.6490   47.4930 F   0  0  0  0  0  0  0  0  0  0  0  0
    9.4350   -8.6720   45.7040 F   0  0  0  0  0  0  0  0  0  0  0  0
    8.2220   -8.7170   47.5080 F   0  0  0  0  0  0  0  0  0  0  0  0
  1  3  1  0
  1  2  2  3
  2 20  1  0
  3 12  2  0
  3 11  1  0
  4 13  1  0
  4  6  1  0
  4  5  2  0
  5  7  1  0
  6  8  2  0
  7 10  2  0
  7  9  1  0
  8 10  1  0
  9 11  2  0
 10 12  1  0
 13 15  1  0
 13 14  2  0
 14 16  1  0
 15 17  2  0
 16 18  2  0
 16 19  1  0
 17 18  1  0
 20 22  1  0
 20 21  2  0
 21 23  1  0
 22 24  2  0
 23 25  2  0
 23 26  1  0
 24 25  1  0
 26 27  2  0
 26 28  1  0
 27 29  1  0
 28 30  2  0
 29 32  1  0
 29 31  2  0
 30 31  1  0
 32 34  1  0
 32 33  1  0
 32 35  1  0
M  END
>  <vina_dock>  (949) 
-10.028

$$$$
O14757_PocketFlow_idx-in-all-generaetd-584
     RDKit          3D

 18 19  0  0  0  0  0  0  0  0999 V2000
    3.2830   -2.6100   43.2870 C   0  0  0  0  0  0  0  0  0  0  0  0
    3.0190   -3.5650   44.2800 C   0  0  0  0  0  0  0  0  0  0  0  0
    1.7460   -4.1400   44.4050 C   0  0  0  0  0  0  0  0  0  0  0  0
    0.7310   -3.7440   43.5260 C   0  0  0  0  0  0  0  0  0  0  0  0
    0.9870   -2.8020   42.5310 C   0  0  0  0  0  0  0  0  0  0  0  0
    2.2570   -2.2400   42.4080 C   0  0  0  0  0  0  0  0  0  0  0  0
    4.6600   -2.0150   43.1490 C   0  0  0  0  0  0  0  0  0  0  0  0
    4.7120   -0.5700   43.5660 C   0  0  0  0  0  0  0  0  0  0  0  0
    4.5920    0.4000   42.8340 O   0  0  0  0  0  0  0  0  0  0  0  0
    4.8930   -0.4080   44.8930 O   0  0  0  0  0  0  0  0  0  0  0  0
    1.4680   -5.1510   45.4900 C   0  0  0  0  0  0  0  0  0  0  0  0
    1.5780   -6.5850   44.9660 C   0  0  0  0  0  0  0  0  0  0  0  0
    0.2800   -7.3370   45.1270 C   0  0  0  0  0  0  0  0  0  0  0  0
   -0.7610   -7.1630   44.2060 C   0  0  0  0  0  0  0  0  0  0  0  0
    0.0880   -8.1990   46.2160 C   0  0  0  0  0  0  0  0  0  0  0  0
   -1.9680   -7.8440   44.3660 C   0  0  0  0  0  0  0  0  0  0  0  0
   -1.1200   -8.8790   46.3750 C   0  0  0  0  0  0  0  0  0  0  0  0
   -2.1480   -8.7030   45.4500 C   0  0  0  0  0  0  0  0  0  0  0  0
  1  6  2  0
  1  7  1  0
  1  2  1  0
  2  3  2  0
  3  4  1  0
  3 11  1  0
  4  5  2  0
  5  6  1  0
  7  8  1  0
  8  9  2  0
  8 10  1  0
 11 12  1  0
 12 13  1  0
 13 14  2  0
 13 15  1  0
 14 16  1  0
 15 17  2  0
 16 18  2  0
 17 18  1  0
M  END
>  <vina_dock>  (950) 
-7.942

$$$$
O14757_PocketFlow_idx-in-all-generaetd-619
     RDKit          3D

 13 13  0  0  0  0  0  0  0  0999 V2000
    1.7720   -3.7600   44.5770 C   0  0  0  0  0  0  0  0  0  0  0  0
    0.7380   -3.4550   43.7750 C   0  0  0  0  0  0  0  0  0  0  0  0
    3.1290   -4.2920   44.2070 C   0  0  0  0  0  0  0  0  0  0  0  0
    4.1830   -3.2100   44.1940 C   0  0  0  0  0  0  0  0  0  0  0  0
    6.2590   -2.2730   45.0350 C   0  0  0  0  0  0  0  0  0  0  0  0
    6.1220   -1.1830   44.1780 C   0  0  0  0  0  0  0  0  0  0  0  0
    5.2940   -3.2810   45.0470 C   0  0  0  0  0  0  0  0  0  0  0  0
    5.0190   -1.0990   43.3310 C   0  0  0  0  0  0  0  0  0  0  0  0
    4.0530   -2.1050   43.3390 C   0  0  0  0  0  0  0  0  0  0  0  0
    0.7060   -3.5640   42.3330 C   0  0  0  0  0  0  0  0  0  0  0  0
    0.6550   -2.5610   41.4420 C   0  0  0  0  0  0  0  0  0  0  0  0
    0.6160   -1.1410   41.7130 C   0  0  0  0  0  0  0  0  0  0  0  0
    1.5970   -0.3070   41.3480 C   0  0  0  0  0  0  0  0  0  0  0  0
  1  2  2  3
  1  3  1  0
  2 10  1  0
  3  4  1  0
  4  9  2  0
  4  7  1  0
  5  6  1  0
  5  7  2  0
  6  8  2  0
  8  9  1  0
 10 11  2  3
 11 12  1  0
 12 13  2  0
M  END
>  <vina_dock>  (951) 
-6.636

$$$$
O14757_PocketFlow_idx-in-all-generaetd-196
     RDKit          3D

 35 38  0  0  0  0  0  0  0  0999 V2000
    0.6160   -5.0840   45.1890 C   0  0  0  0  0  0  0  0  0  0  0  0
    0.3900   -5.6940   43.9450 C   0  0  0  0  0  0  0  0  0  0  0  0
   -0.3230   -6.8870   43.8670 C   0  0  0  0  0  0  0  0  0  0  0  0
   -0.8270   -7.4660   45.0260 C   0  0  0  0  0  0  0  0  0  0  0  0
    0.1250   -5.6970   46.3510 C   0  0  0  0  0  0  0  0  0  0  0  0
   -0.6310   -6.8790   46.2790 C   0  0  0  0  0  0  0  0  0  0  0  0
   -1.5120   -8.6140   44.9210 F   0  0  0  0  0  0  0  0  0  0  0  0
    1.3400   -3.7570   45.2570 C   0  0  0  0  0  0  0  0  0  0  0  0
    2.5990   -3.6230   44.3580 C   0  0  2  0  0  0  0  0  0  0  0  0
    5.0150   -2.6720   44.4400 C   0  0  2  0  0  0  0  0  0  0  0  0
    4.8950   -1.4020   43.6310 C   0  0  0  0  0  0  0  0  0  0  0  0
    3.7040   -2.9550   45.2050 C   0  0  0  0  0  0  0  0  0  0  0  0
    3.9000   -1.0910   42.7890 C   0  0  0  0  0  0  0  0  0  0  0  0
    2.7960   -1.9280   42.3970 C   0  0  0  0  0  0  0  0  0  0  0  0
    2.2520   -2.9720   43.0370 C   0  0  0  0  0  0  0  0  0  0  0  0
    6.2470   -2.5920   45.3650 C   0  0  0  0  0  0  0  0  0  0  0  0
    5.6530   -5.3160   47.9380 C   0  0  0  0  0  0  0  0  0  0  0  0
    5.4800   -4.4850   46.8290 C   0  0  0  0  0  0  0  0  0  0  0  0
    6.7820   -5.1740   48.7210 C   0  0  0  0  0  0  0  0  0  0  0  0
    6.4160   -3.4740   46.4820 C   0  0  0  0  0  0  0  0  0  0  0  0
    6.9490   -5.9880   49.7730 F   0  0  0  0  0  0  0  0  0  0  0  0
    7.7470   -4.2230   48.4010 C   0  0  0  0  0  0  0  0  0  0  0  0
    7.5810   -3.3510   47.2970 C   0  0  0  0  0  0  0  0  0  0  0  0
    7.2580   -1.6570   45.0670 C   0  0  0  0  0  0  0  0  0  0  0  0
    8.5320   -2.3570   46.9810 C   0  0  0  0  0  0  0  0  0  0  0  0
    8.3800   -1.5310   45.8730 C   0  0  0  0  0  0  0  0  0  0  0  0
    8.8630   -4.1880   49.2010 O   0  0  0  0  0  0  0  0  0  0  0  0
   -1.2050   -7.5360   47.5070 C   0  0  0  0  0  0  0  0  0  0  0  0
   -0.1970   -8.1500   48.3960 N   0  0  0  0  0  0  0  0  0  0  0  0
    0.4400   -9.3250   48.0070 C   0  0  0  0  0  0  0  0  0  0  0  0
   -0.2850  -10.3390   47.5040 C   0  0  0  0  0  0  0  0  0  0  0  0
    1.8130   -9.3320   48.0470 N   0  0  0  0  0  0  0  0  0  0  0  0
    2.7860   -9.2600   47.0630 C   0  0  0  0  0  0  0  0  0  0  0  0
    2.6370   -8.4310   46.0140 C   0  0  0  0  0  0  0  0  0  0  0  0
    4.0660  -10.0460   47.2040 C   0  0  0  0  0  0  0  0  0  0  0  0
  1  2  2  0
  1  8  1  0
  1  5  1  0
  2  3  1  0
  3  4  2  0
  4  7  1  0
  4  6  1  0
  5  6  2  0
  6 28  1  0
  9  8  1  1
  9 15  1  0
  9 12  1  0
 10 11  1  0
 10 12  1  0
 10 16  1  1
 11 13  2  0
 13 14  1  0
 14 15  2  0
 16 24  1  0
 16 20  2  0
 17 18  2  0
 17 19  1  0
 18 20  1  0
 19 22  2  0
 19 21  1  0
 20 23  1  0
 22 23  1  0
 22 27  1  0
 23 25  2  0
 24 26  2  0
 25 26  1  0
 28 29  1  0
 29 30  1  0
 30 31  2  0
 30 32  1  0
 32 33  2  3
 33 34  1  0
 33 35  1  0
M  CHG  1  32   1
M  END
>  <vina_dock>  (952) 
-9.506

$$$$
O14757_PocketFlow_idx-in-all-generaetd-809
     RDKit          3D

 35 38  0  0  0  0  0  0  0  0999 V2000
    4.6050   -0.6790   42.3120 C   0  0  0  0  0  0  0  0  0  0  0  0
    4.8690   -1.6460   43.4430 C   0  0  0  0  0  0  0  0  0  0  0  0
    4.2250   -3.6090   44.7490 C   0  0  0  0  0  0  0  0  0  0  0  0
    3.9860   -2.7040   43.7030 C   0  0  0  0  0  0  0  0  0  0  0  0
    5.3650   -3.4300   45.5510 C   0  0  0  0  0  0  0  0  0  0  0  0
    6.2690   -2.3910   45.2910 C   0  0  0  0  0  0  0  0  0  0  0  0
    6.0120   -1.5020   44.2430 C   0  0  0  0  0  0  0  0  0  0  0  0
    3.2470   -4.7460   45.0100 C   0  0  2  0  0  0  0  0  0  0  0  0
    0.3770   -6.5140   43.8910 C   0  0  0  0  0  0  0  0  0  0  0  0
    0.8930   -5.4610   44.5530 C   0  0  0  0  0  0  0  0  0  0  0  0
    0.4020   -4.9520   45.8910 C   0  0  0  0  0  0  0  0  0  0  0  0
    2.0770   -4.7040   44.0050 C   0  0  0  0  0  0  0  0  0  0  0  0
    1.4220   -4.1840   46.6240 N   0  0  0  0  0  0  0  0  0  0  0  0
    2.7440   -4.8010   46.4770 C   0  0  0  0  0  0  0  0  0  0  0  0
   -0.7640   -7.3120   44.3430 C   0  0  0  0  0  0  0  0  0  0  0  0
   -1.8320   -8.6410   46.0690 C   0  0  0  0  0  0  0  0  0  0  0  0
   -2.9430   -8.8290   45.2380 C   0  0  0  0  0  0  0  0  0  0  0  0
   -0.7470   -7.8780   45.6220 C   0  0  0  0  0  0  0  0  0  0  0  0
   -2.9640   -8.2590   43.9620 C   0  0  0  0  0  0  0  0  0  0  0  0
   -1.8790   -7.5020   43.5180 C   0  0  0  0  0  0  0  0  0  0  0  0
   -1.8010   -9.2390   47.4240 C   0  0  0  0  0  0  0  0  0  0  0  0
   -0.7230   -9.9830   47.8900 N   0  0  0  0  0  0  0  0  0  0  0  0
   -2.7830   -9.0680   48.2900 N   0  0  0  0  0  0  0  0  0  0  0  0
   -1.0470  -10.2060   49.2830 C   0  0  0  0  0  0  0  0  0  0  0  0
   -2.4230   -9.7500   49.4360 N   0  0  0  0  0  0  0  0  0  0  0  0
    7.4980   -2.1860   46.1060 C   0  0  0  0  0  0  0  0  0  0  0  0
    7.8980   -3.0320   46.8950 O   0  0  0  0  0  0  0  0  0  0  0  0
    8.1570   -0.9950   45.9740 N   0  0  0  0  0  0  0  0  0  0  0  0
    3.8680    0.5140   42.7260 N   0  0  0  0  0  0  0  0  0  0  0  0
    2.4240    0.3210   42.6940 C   0  0  0  0  0  0  0  0  0  0  0  0
    1.8650   -0.0260   41.3400 C   0  0  0  0  0  0  0  0  0  0  0  0
    1.3340   -1.1570   40.8430 C   0  0  0  0  0  0  0  0  0  0  0  0
    1.0690   -2.3850   41.5530 C   0  0  0  0  0  0  0  0  0  0  0  0
   -0.1140   -3.0140   41.6490 C   0  0  0  0  0  0  0  0  0  0  0  0
   -1.4250   -2.6370   41.0390 C   0  0  0  0  0  0  0  0  0  0  0  0
  1 29  1  0
  1  2  1  0
  2  4  2  0
  2  7  1  0
  3  4  1  0
  8  3  1  1
  3  5  2  0
  5  6  1  0
  6  7  2  0
  6 26  1  0
  8 12  1  0
  8 14  1  0
  9 15  1  0
  9 10  2  3
 10 12  1  0
 10 11  1  0
 11 13  1  0
 13 14  1  0
 15 20  1  0
 15 18  2  0
 16 17  2  0
 16 18  1  0
 16 21  1  0
 17 19  1  0
 19 20  2  0
 21 22  1  0
 21 23  2  0
 22 24  1  0
 23 25  1  0
 24 25  1  0
 26 28  1  0
 26 27  2  0
 29 30  1  0
 30 31  1  0
 31 32  2  3
 32 33  1  0
 33 34  2  3
 34 35  1  0
M  END
>  <vina_dock>  (953) 
-9.369

$$$$
O14757_PocketFlow_idx-in-all-generaetd-431
     RDKit          3D

 22 24  0  0  0  0  0  0  0  0999 V2000
    4.8520   -0.9390   44.1350 C   0  0  0  0  0  0  0  0  0  0  0  0
    6.2970   -1.1490   44.2600 N   0  0  0  0  0  0  0  0  0  0  0  0
    6.7610   -1.8850   45.3390 C   0  0  0  0  0  0  0  0  0  0  0  0
    5.5320   -4.4840   47.4560 C   0  0  0  0  0  0  0  0  0  0  0  0
    6.3520   -3.5200   46.8980 C   0  0  0  0  0  0  0  0  0  0  0  0
    5.9380   -5.2540   48.5300 C   0  0  0  0  0  0  0  0  0  0  0  0
    5.9090   -2.7950   45.8380 N   0  0  0  0  0  0  0  0  0  0  0  0
    7.6240   -3.3590   47.4840 C   0  0  0  0  0  0  0  0  0  0  0  0
    7.2000   -5.0180   49.0360 C   0  0  0  0  0  0  0  0  0  0  0  0
    8.4520   -2.4370   46.9870 N   0  0  0  0  0  0  0  0  0  0  0  0
    8.0320   -4.0970   48.5250 N   0  0  0  0  0  0  0  0  0  0  0  0
    8.0060   -1.7090   45.9310 C   0  0  0  0  0  0  0  0  0  0  0  0
    4.2760   -4.6940   46.9390 O   0  0  0  0  0  0  0  0  0  0  0  0
    7.6880   -5.7760   50.0970 N   0  0  0  0  0  0  0  0  0  0  0  0
    4.2590   -1.4960   42.8290 C   0  0  0  0  0  0  0  0  0  0  0  0
    3.0190   -2.3430   43.0280 C   0  0  0  0  0  0  0  0  0  0  0  0
    1.8270   -2.1310   42.3020 C   0  0  0  0  0  0  0  0  0  0  0  0
    3.0600   -3.3750   43.9840 C   0  0  0  0  0  0  0  0  0  0  0  0
    1.7130   -1.0730   41.2380 C   0  0  0  0  0  0  0  0  0  0  0  0
    0.7120   -2.9450   42.5650 C   0  0  0  0  0  0  0  0  0  0  0  0
    1.9450   -4.1740   44.2310 C   0  0  0  0  0  0  0  0  0  0  0  0
    0.7690   -3.9560   43.5220 C   0  0  0  0  0  0  0  0  0  0  0  0
  1 15  1  0
  1  2  1  0
  2  3  1  0
  3  7  2  0
  3 12  1  0
  4  5  2  0
  4 13  1  0
  4  6  1  0
  5  7  1  0
  5  8  1  0
  6  9  1  0
  8 10  2  0
  8 11  1  0
  9 11  2  0
  9 14  1  0
 10 12  1  0
 15 16  1  0
 16 17  2  0
 16 18  1  0
 17 19  1  0
 17 20  1  0
 18 21  2  0
 20 22  2  0
 21 22  1  0
M  END
>  <vina_dock>  (954) 
-7.816

$$$$
O14757_PocketFlow_idx-in-all-generaetd-188
     RDKit          3D

 26 29  0  0  0  0  0  0  0  0999 V2000
    5.3710   -1.3380   45.7060 C   0  0  0  0  0  0  0  0  0  0  0  0
    4.8050   -1.3360   44.4870 C   0  0  0  0  0  0  0  0  0  0  0  0
    6.0690   -2.4760   46.2870 C   0  0  0  0  0  0  0  0  0  0  0  0
    7.4060   -2.7290   46.0600 C   0  0  0  0  0  0  0  0  0  0  0  0
    5.4520   -3.3830   47.1220 C   0  0  0  0  0  0  0  0  0  0  0  0
    8.0780   -3.7680   46.6010 N   0  0  0  0  0  0  0  0  0  0  0  0
    6.0800   -4.4350   47.6880 N   0  0  0  0  0  0  0  0  0  0  0  0
    7.3810   -4.5700   47.4110 C   0  0  0  0  0  0  0  0  0  0  0  0
    8.0420   -5.6440   47.9660 N   0  0  0  0  0  0  0  0  0  0  0  0
    4.7270   -2.4780   43.5090 C   0  0  0  0  0  0  0  0  0  0  0  0
    3.5320   -3.3660   43.7550 C   0  0  0  0  0  0  0  0  0  0  0  0
    2.2460   -2.9400   43.4030 C   0  0  0  0  0  0  0  0  0  0  0  0
    3.6870   -4.6240   44.3570 C   0  0  0  0  0  0  0  0  0  0  0  0
    1.1390   -3.7560   43.6470 C   0  0  0  0  0  0  0  0  0  0  0  0
    2.5810   -5.4540   44.6090 C   0  0  0  0  0  0  0  0  0  0  0  0
    1.2900   -5.0140   44.2480 C   0  0  0  0  0  0  0  0  0  0  0  0
    2.7300   -6.7110   45.2110 C   0  0  0  0  0  0  0  0  0  0  0  0
    0.1830   -5.8450   44.5010 C   0  0  0  0  0  0  0  0  0  0  0  0
    1.6190   -7.5240   45.4540 C   0  0  0  0  0  0  0  0  0  0  0  0
    0.3280   -7.1070   45.1030 C   0  0  0  0  0  0  0  0  0  0  0  0
   -0.8410   -7.9650   45.3540 C   0  0  0  0  0  0  0  0  0  0  0  0
   -0.8230   -8.9330   46.3720 C   0  0  0  0  0  0  0  0  0  0  0  0
   -2.0100   -7.8390   44.5830 C   0  0  0  0  0  0  0  0  0  0  0  0
   -1.9340   -9.7470   46.6120 C   0  0  0  0  0  0  0  0  0  0  0  0
   -3.1210   -8.6540   44.8220 C   0  0  0  0  0  0  0  0  0  0  0  0
   -3.0820   -9.6060   45.8370 C   0  0  0  0  0  0  0  0  0  0  0  0
  1  2  2  3
  1  3  1  0
  2 10  1  0
  3  4  2  0
  3  5  1  0
  4  6  1  0
  5  7  2  0
  6  8  2  0
  7  8  1  0
  8  9  1  0
 10 11  1  0
 11 12  2  0
 11 13  1  0
 12 14  1  0
 13 15  2  0
 14 16  2  0
 15 16  1  0
 15 17  1  0
 16 18  1  0
 17 19  2  0
 18 20  2  0
 19 20  1  0
 20 21  1  0
 21 23  1  0
 21 22  2  0
 22 24  1  0
 23 25  2  0
 24 26  2  0
 25 26  1  0
M  END
>  <vina_dock>  (955) 
-9.23

$$$$
O14757_PocketFlow_idx-in-all-generaetd-366
     RDKit          3D

 18 19  0  0  0  0  0  0  0  0999 V2000
    3.7870   -5.4110   44.2840 C   0  0  0  0  0  0  0  0  0  0  0  0
    4.2720   -4.0580   44.7530 C   0  0  0  0  0  0  0  0  0  0  0  0
    4.7010   -1.7000   44.3220 C   0  0  0  0  0  0  0  0  0  0  0  0
    4.2570   -2.9530   43.8850 C   0  0  0  0  0  0  0  0  0  0  0  0
    5.1620   -1.5420   45.6330 C   0  0  0  0  0  0  0  0  0  0  0  0
    5.1790   -2.6340   46.5010 C   0  0  0  0  0  0  0  0  0  0  0  0
    4.7370   -3.8830   46.0650 C   0  0  0  0  0  0  0  0  0  0  0  0
    4.6860   -0.5790   43.4280 C   0  0  0  0  0  0  0  0  0  0  0  0
    4.6660    0.3250   42.7000 N   0  0  0  0  0  0  0  0  0  0  0  0
    2.4910   -5.8450   44.9140 C   0  0  0  0  0  0  0  0  0  0  0  0
    2.2610   -7.1780   45.2440 C   0  0  0  0  0  0  0  0  0  0  0  0
    1.4660   -4.9360   45.1860 C   0  0  0  0  0  0  0  0  0  0  0  0
    1.1240   -7.6390   45.8100 N   0  0  0  0  0  0  0  0  0  0  0  0
    0.2810   -5.3870   45.7620 C   0  0  0  0  0  0  0  0  0  0  0  0
    0.1580   -6.7340   46.0660 C   0  0  0  0  0  0  0  0  0  0  0  0
   -1.0360   -7.2190   46.6000 N   0  0  0  0  0  0  0  0  0  0  0  0
   -1.9550   -7.6840   45.8110 C   0  0  0  0  0  0  0  0  0  0  0  0
   -1.9030   -7.8450   44.3180 C   0  0  0  0  0  0  0  0  0  0  0  0
  1  2  1  0
  1 10  1  0
  2  4  1  0
  2  7  2  0
  3  8  1  0
  3  4  2  0
  3  5  1  0
  5  6  2  0
  6  7  1  0
  8  9  3  0
 10 12  1  0
 10 11  2  0
 11 13  1  0
 12 14  2  0
 13 15  2  0
 14 15  1  0
 15 16  1  0
 16 17  2  3
 17 18  1  0
M  END
>  <vina_dock>  (956) 
-7.222

$$$$
O14757_PocketFlow_idx-in-all-generaetd-912
     RDKit          3D

 35 38  0  0  0  0  0  0  0  0999 V2000
    8.0710   -1.7340   46.1510 C   0  0  0  0  0  0  0  0  0  0  0  0
    8.9340   -2.7620   46.6690 O   0  0  0  0  0  0  0  0  0  0  0  0
    8.8690   -3.0060   47.9990 C   0  0  0  0  0  0  0  0  0  0  0  0
    9.4010   -2.3520   48.8810 O   0  0  0  0  0  0  0  0  0  0  0  0
    8.0520   -4.2100   48.2660 C   0  0  0  0  0  0  0  0  0  0  0  0
    6.5130   -6.4660   48.7510 C   0  0  0  0  0  0  0  0  0  0  0  0
    5.9450   -5.1990   48.9090 C   0  0  0  0  0  0  0  0  0  0  0  0
    7.8180   -6.6180   48.3740 N   0  0  0  0  0  0  0  0  0  0  0  0
    6.7210   -4.0650   48.6620 C   0  0  0  0  0  0  0  0  0  0  0  0
    8.5490   -5.4990   48.1380 C   0  0  0  0  0  0  0  0  0  0  0  0
    5.6720   -7.7040   49.0460 C   0  0  0  0  0  0  0  0  0  0  0  0
    6.4060   -8.8340   49.2550 F   0  0  0  0  0  0  0  0  0  0  0  0
    4.8850   -7.5530   50.1500 F   0  0  0  0  0  0  0  0  0  0  0  0
    4.8140   -8.0120   48.0290 F   0  0  0  0  0  0  0  0  0  0  0  0
    6.9210   -2.3720   45.3790 C   0  0  0  0  0  0  0  0  0  0  0  0
    6.3900   -1.4570   44.2730 C   0  0  0  0  0  0  0  0  0  0  0  0
    4.9850   -1.8350   43.8770 C   0  0  0  0  0  0  0  0  0  0  0  0
    4.3950   -3.0010   44.3720 C   0  0  0  0  0  0  0  0  0  0  0  0
    4.2620   -1.0420   42.9800 C   0  0  0  0  0  0  0  0  0  0  0  0
    3.0930   -3.3830   43.9950 C   0  0  0  0  0  0  0  0  0  0  0  0
    2.9610   -1.3890   42.5840 C   0  0  0  0  0  0  0  0  0  0  0  0
    2.3560   -2.5680   43.0900 C   0  0  0  0  0  0  0  0  0  0  0  0
    2.2620   -0.5690   41.6840 C   0  0  0  0  0  0  0  0  0  0  0  0
    1.0420   -2.8700   42.6610 C   0  0  0  0  0  0  0  0  0  0  0  0
    0.9680   -0.8920   41.2760 C   0  0  0  0  0  0  0  0  0  0  0  0
    0.3520   -2.0430   41.7640 C   0  0  0  0  0  0  0  0  0  0  0  0
    2.5490   -4.6300   44.5550 C   0  0  0  0  0  0  0  0  0  0  0  0
    1.2700   -4.6600   45.1290 C   0  0  0  0  0  0  0  0  0  0  0  0
    3.3060   -5.8120   44.5320 C   0  0  0  0  0  0  0  0  0  0  0  0
    0.7570   -5.8440   45.6610 C   0  0  0  0  0  0  0  0  0  0  0  0
    2.7930   -6.9960   45.0650 C   0  0  0  0  0  0  0  0  0  0  0  0
    1.5180   -7.0110   45.6290 C   0  0  0  0  0  0  0  0  0  0  0  0
   -1.0250   -2.4280   41.3660 C   0  0  0  0  0  0  0  0  0  0  0  0
   -2.0230   -1.7420   41.4810 O   0  0  0  0  0  0  0  0  0  0  0  0
   -1.0880   -3.6630   40.8350 O   0  0  0  0  0  0  0  0  0  0  0  0
  1 15  1  0
  1  2  1  0
  2  3  1  0
  3  5  1  0
  3  4  2  0
  5 10  2  0
  5  9  1  0
  6  8  2  0
  6  7  1  0
  6 11  1  0
  7  9  2  0
  8 10  1  0
 11 14  1  0
 11 12  1  0
 11 13  1  0
 15 16  1  0
 16 17  1  0
 17 19  1  0
 17 18  2  0
 18 20  1  0
 19 21  2  0
 20 22  2  0
 20 27  1  0
 21 23  1  0
 21 22  1  0
 22 24  1  0
 23 25  2  0
 24 26  2  0
 25 26  1  0
 26 33  1  0
 27 29  1  0
 27 28  2  0
 28 30  1  0
 29 31  2  0
 30 32  2  0
 31 32  1  0
 33 35  1  0
 33 34  2  0
M  END
>  <vina_dock>  (957) 
-9.643

$$$$
O14757_PocketFlow_idx-in-all-generaetd-937
     RDKit          3D

  5  4  0  0  0  0  0  0  0  0999 V2000
    5.4140   -1.1260   43.9480 C   0  0  0  0  0  0  0  0  0  0  0  0
    5.2870   -0.0490   43.1560 F   0  0  0  0  0  0  0  0  0  0  0  0
    5.0050   -2.2210   43.2860 F   0  0  0  0  0  0  0  0  0  0  0  0
    4.6630   -0.9620   45.0500 F   0  0  0  0  0  0  0  0  0  0  0  0
    6.7030   -1.2720   44.3020 F   0  0  0  0  0  0  0  0  0  0  0  0
  1  2  1  0
  1  3  1  0
  1  5  1  0
  1  4  1  0
M  END
>  <vina_dock>  (958) 
-3.01

$$$$
O14757_PocketFlow_idx-in-all-generaetd-811
     RDKit          3D

 17 17  0  0  0  0  0  0  0  0999 V2000
    3.3330   -2.2560   43.1270 C   0  0  0  0  0  0  0  0  0  0  0  0
    2.4310   -1.9220   42.1090 C   0  0  0  0  0  0  0  0  0  0  0  0
    1.1500   -2.4700   42.0950 C   0  0  0  0  0  0  0  0  0  0  0  0
    0.7590   -3.3600   43.0940 C   0  0  0  0  0  0  0  0  0  0  0  0
    1.6430   -3.7120   44.1240 C   0  0  0  0  0  0  0  0  0  0  0  0
    2.9320   -3.1560   44.1260 C   0  0  0  0  0  0  0  0  0  0  0  0
    4.7280   -1.6770   43.1320 C   0  0  0  0  0  0  0  0  0  0  0  0
    5.1430   -1.2170   44.5320 C   0  0  0  0  0  0  0  0  0  0  0  0
    6.3870   -1.9250   44.9950 C   0  0  0  0  0  0  0  0  0  0  0  0
    6.3780   -3.0750   45.6750 C   0  0  0  0  0  0  0  0  0  0  0  0
    7.4770   -3.7590   46.1150 N   0  0  0  0  0  0  0  0  0  0  0  0
    1.2260   -4.6910   45.2020 C   0  0  0  0  0  0  0  0  0  0  0  0
    1.2240   -6.0800   44.7190 N   0  0  0  0  0  0  0  0  0  0  0  0
    2.4610   -6.8240   44.9750 C   0  0  0  0  0  0  0  0  0  0  0  0
    0.1030   -6.7390   44.2360 C   0  0  0  0  0  0  0  0  0  0  0  0
   -0.9430   -7.2540   44.8950 C   0  0  0  0  0  0  0  0  0  0  0  0
   -2.0880   -7.9410   44.2230 C   0  0  0  0  0  0  0  0  0  0  0  0
  1  2  2  0
  1  7  1  0
  1  6  1  0
  2  3  1  0
  3  4  2  0
  4  5  1  0
  5  6  2  0
  5 12  1  0
  7  8  1  0
  8  9  1  0
  9 10  2  3
 10 11  1  0
 12 13  1  0
 13 15  1  0
 13 14  1  0
 15 16  2  3
 16 17  1  0
M  END
>  <vina_dock>  (959) 
-7.017

$$$$
O14757_PocketFlow_idx-in-all-generaetd-593
     RDKit          3D

 16 17  0  0  0  0  0  0  0  0999 V2000
    0.5400   -5.9870   45.4930 C   0  0  0  0  0  0  0  0  0  0  0  0
    0.6210   -4.5460   45.2500 N   0  0  0  0  0  0  0  0  0  0  0  0
    1.9100   -4.1300   44.7030 C   0  0  0  0  0  0  0  0  0  0  0  0
    1.7190   -3.2630   43.4800 C   0  0  0  0  0  0  0  0  0  0  0  0
    2.5240   -1.5180   41.9940 C   0  0  0  0  0  0  0  0  0  0  0  0
    2.6960   -2.3240   43.1190 C   0  0  0  0  0  0  0  0  0  0  0  0
    1.3720   -1.6400   41.2190 C   0  0  0  0  0  0  0  0  0  0  0  0
    0.3910   -2.5650   41.5700 C   0  0  0  0  0  0  0  0  0  0  0  0
    0.5620   -3.3720   42.6960 C   0  0  0  0  0  0  0  0  0  0  0  0
   -0.1110   -6.7730   44.3460 C   0  0  0  0  0  0  0  0  0  0  0  0
   -1.3270   -7.5300   44.8090 C   0  0  0  0  0  0  0  0  0  0  0  0
   -1.5140   -7.8340   46.1550 C   0  0  0  0  0  0  0  0  0  0  0  0
   -2.3240   -7.9260   43.9150 C   0  0  0  0  0  0  0  0  0  0  0  0
   -2.5890   -8.4920   46.6410 N   0  0  0  0  0  0  0  0  0  0  0  0
   -3.4410   -8.6060   44.3870 C   0  0  0  0  0  0  0  0  0  0  0  0
   -3.5280   -8.8640   45.7450 C   0  0  0  0  0  0  0  0  0  0  0  0
  1 10  1  0
  1  2  1  0
  2  3  1  0
  3  4  1  0
  4  9  1  0
  4  6  2  0
  5  7  2  0
  5  6  1  0
  7  8  1  0
  8  9  2  0
 10 11  1  0
 11 13  1  0
 11 12  2  0
 12 14  1  0
 13 15  2  0
 14 16  2  0
 15 16  1  0
M  END
>  <vina_dock>  (960) 
-6.57

$$$$
O14757_PocketFlow_idx-in-all-generaetd-489
     RDKit          3D

 19 20  0  0  0  0  0  0  0  0999 V2000
    4.1820   -4.5070   44.1180 C   0  0  0  0  0  0  0  0  0  0  0  0
    4.6180   -3.4930   44.9000 C   0  0  0  0  0  0  0  0  0  0  0  0
    5.2570   -2.3120   44.2930 C   0  0  0  0  0  0  0  0  0  0  0  0
    4.5330   -1.6190   43.3820 C   0  0  0  0  0  0  0  0  0  0  0  0
    6.6020   -1.8990   44.6750 C   0  0  0  0  0  0  0  0  0  0  0  0
    7.3800   -2.3780   45.6610 C   0  0  0  0  0  0  0  0  0  0  0  0
    7.1440   -3.4440   46.6570 C   0  0  0  0  0  0  0  0  0  0  0  0
    8.2930   -3.9500   47.2990 C   0  0  0  0  0  0  0  0  0  0  0  0
    8.2120   -4.9420   48.2770 C   0  0  0  0  0  0  0  0  0  0  0  0
    6.9730   -5.4480   48.6410 C   0  0  0  0  0  0  0  0  0  0  0  0
    5.8240   -4.9590   48.0260 C   0  0  0  0  0  0  0  0  0  0  0  0
    5.8870   -3.9580   47.0320 C   0  0  0  0  0  0  0  0  0  0  0  0
    4.5720   -3.4910   46.4230 C   0  0  1  0  0  0  0  0  0  0  0  0
    4.1000   -2.1700   47.0520 C   0  0  0  0  0  0  0  0  0  0  0  0
    3.5450   -5.8020   44.5460 C   0  0  0  0  0  0  0  0  0  0  0  0
    2.0260   -5.6580   44.6860 C   0  0  0  0  0  0  0  0  0  0  0  0
    1.6470   -5.4370   46.0830 N   0  0  0  0  0  0  0  0  0  0  0  0
    4.8680   -0.3740   42.6250 C   0  0  0  0  0  0  0  0  0  0  0  0
    3.7420    0.5470   42.6870 N   0  0  0  0  0  0  0  0  0  0  0  0
  1 15  1  0
  1  2  2  3
  2  3  1  0
  2 13  1  0
  3  4  2  3
  3  5  1  0
  4 18  1  0
  5  6  2  0
  6  7  1  0
  7 12  2  0
  7  8  1  0
  8  9  2  0
  9 10  1  0
 10 11  2  0
 11 12  1  0
 12 13  1  0
 13 14  1  1
 15 16  1  0
 16 17  1  0
 18 19  1  0
M  END
>  <vina_dock>  (961) 
-6.507

$$$$
O14757_PocketFlow_idx-in-all-generaetd-56
     RDKit          3D

 19 21  0  0  0  0  0  0  0  0999 V2000
    1.1930   -2.7900   42.5620 C   0  0  0  0  0  0  0  0  0  0  0  0
    1.3340   -3.7780   43.5400 C   0  0  0  0  0  0  0  0  0  0  0  0
    2.5090   -3.8570   44.2920 C   0  0  0  0  0  0  0  0  0  0  0  0
    3.5590   -2.9510   44.0790 C   0  0  0  0  0  0  0  0  0  0  0  0
    4.7480   -3.0190   44.8290 C   0  0  0  0  0  0  0  0  0  0  0  0
    5.8030   -2.1150   44.6230 C   0  0  0  0  0  0  0  0  0  0  0  0
    5.6440   -1.1280   43.6400 C   0  0  0  0  0  0  0  0  0  0  0  0
    4.4700   -1.0460   42.8840 C   0  0  0  0  0  0  0  0  0  0  0  0
    3.4190   -1.9500   43.0920 C   0  0  0  0  0  0  0  0  0  0  0  0
    2.2350   -1.8790   42.3410 C   0  0  0  0  0  0  0  0  0  0  0  0
   -0.0710   -2.7440   41.7880 C   0  0  0  0  0  0  0  0  0  0  0  0
   -0.7690   -1.7620   41.6200 O   0  0  0  0  0  0  0  0  0  0  0  0
   -0.4040   -3.9340   41.2580 O   0  0  0  0  0  0  0  0  0  0  0  0
    7.0400   -2.2000   45.4160 C   0  0  0  0  0  0  0  0  0  0  0  0
    7.3580   -3.3640   46.1360 C   0  0  0  0  0  0  0  0  0  0  0  0
    7.9380   -1.1220   45.4760 C   0  0  0  0  0  0  0  0  0  0  0  0
    8.5330   -3.4470   46.8900 C   0  0  0  0  0  0  0  0  0  0  0  0
    9.1120   -1.2020   46.2300 C   0  0  0  0  0  0  0  0  0  0  0  0
    9.4080   -2.3650   46.9360 C   0  0  0  0  0  0  0  0  0  0  0  0
  1 11  1  0
  1 10  2  0
  1  2  1  0
  2  3  2  0
  3  4  1  0
  4  9  2  0
  4  5  1  0
  5  6  2  0
  6  7  1  0
  6 14  1  0
  7  8  2  0
  8  9  1  0
  9 10  1  0
 11 13  1  0
 11 12  2  0
 14 16  1  0
 14 15  2  0
 15 17  1  0
 16 18  2  0
 17 19  2  0
 18 19  1  0
M  END
>  <vina_dock>  (962) 
-9.396

$$$$
O14757_PocketFlow_idx-in-all-generaetd-330
     RDKit          3D

 35 38  0  0  0  0  0  0  0  0999 V2000
    4.4830   -1.9940   44.1760 C   0  0  0  0  0  0  0  0  0  0  0  0
    4.5620   -1.7220   42.6930 C   0  0  0  0  0  0  0  0  0  0  0  0
    3.6950   -1.0310   41.9320 C   0  0  0  0  0  0  0  0  0  0  0  0
    2.4590   -0.2960   42.3720 C   0  0  0  0  0  0  0  0  0  0  0  0
    1.1950   -1.0280   42.0190 C   0  0  0  0  0  0  0  0  0  0  0  0
   -0.0590   -3.0900   41.7520 C   0  0  0  0  0  0  0  0  0  0  0  0
    1.1310   -2.4280   42.0530 C   0  0  0  0  0  0  0  0  0  0  0  0
   -1.1190   -2.2960   41.3170 C   0  0  0  0  0  0  0  0  0  0  0  0
   -1.1040   -0.9430   41.2660 N   0  0  0  0  0  0  0  0  0  0  0  0
    0.0520   -0.3440   41.6220 C   0  0  0  0  0  0  0  0  0  0  0  0
   -0.0960   -4.4870   41.6760 N   0  0  0  0  0  0  0  0  0  0  0  0
    4.7420   -3.4490   44.6680 C   0  0  1  0  0  0  0  0  0  0  0  0
    5.6930   -3.5210   45.8640 C   0  0  0  0  0  0  0  0  0  0  0  0
    6.9900   -2.9950   45.7460 C   0  0  0  0  0  0  0  0  0  0  0  0
    5.3040   -4.0720   47.0950 C   0  0  0  0  0  0  0  0  0  0  0  0
    7.8800   -3.0390   46.8220 C   0  0  0  0  0  0  0  0  0  0  0  0
    6.1940   -4.1190   48.1730 C   0  0  0  0  0  0  0  0  0  0  0  0
    7.4930   -3.6160   48.0360 C   0  0  0  0  0  0  0  0  0  0  0  0
    8.4790   -3.6450   49.1520 C   0  0  0  0  0  0  0  0  0  0  0  0
    8.1380   -4.0300   50.2650 O   0  0  0  0  0  0  0  0  0  0  0  0
    9.7490   -3.1890   48.8610 N   0  0  0  0  0  0  0  0  0  0  0  0
   10.7670   -3.0850   49.8860 C   0  0  0  0  0  0  0  0  0  0  0  0
   10.8290   -1.6890   50.4780 C   0  0  0  0  0  0  0  0  0  0  0  0
    3.5160   -4.3550   44.7970 C   0  0  0  0  0  0  0  0  0  0  0  0
    3.5710   -5.7480   44.6810 C   0  0  0  0  0  0  0  0  0  0  0  0
    2.2600   -3.7650   45.0160 C   0  0  0  0  0  0  0  0  0  0  0  0
    2.4140   -6.5280   44.8090 C   0  0  0  0  0  0  0  0  0  0  0  0
    1.1060   -4.5460   45.1410 C   0  0  0  0  0  0  0  0  0  0  0  0
    1.1630   -5.9430   45.0460 C   0  0  0  0  0  0  0  0  0  0  0  0
   -0.0490   -6.7660   45.1900 C   0  0  0  0  0  0  0  0  0  0  0  0
   -0.8070   -7.1400   44.0670 C   0  0  0  0  0  0  0  0  0  0  0  0
   -0.4890   -7.2010   46.4520 C   0  0  0  0  0  0  0  0  0  0  0  0
   -1.9590   -7.9190   44.1990 C   0  0  0  0  0  0  0  0  0  0  0  0
   -1.6410   -7.9800   46.5860 C   0  0  0  0  0  0  0  0  0  0  0  0
   -2.3760   -8.3390   45.4590 C   0  0  0  0  0  0  0  0  0  0  0  0
  1  2  1  0
 12  1  1  1
  2  3  2  3
  3  4  1  0
  4  5  1  0
  5 10  1  0
  5  7  2  0
  6  8  2  0
  6 11  1  0
  6  7  1  0
  8  9  1  0
  9 10  2  0
 12 24  1  0
 12 13  1  0
 13 14  2  0
 13 15  1  0
 14 16  1  0
 15 17  2  0
 16 18  2  0
 17 18  1  0
 18 19  1  0
 19 21  1  0
 19 20  2  0
 21 22  1  0
 22 23  1  0
 24 25  2  0
 24 26  1  0
 25 27  1  0
 26 28  2  0
 27 29  2  0
 28 29  1  0
 29 30  1  0
 30 31  2  0
 30 32  1  0
 31 33  1  0
 32 34  2  0
 33 35  2  0
 34 35  1  0
M  END
>  <vina_dock>  (963) 
-8.905

$$$$
O14757_PocketFlow_idx-in-all-generaetd-67
     RDKit          3D

 23 24  0  0  0  0  0  0  0  0999 V2000
    5.4070   -2.8150   44.5650 C   0  0  0  0  0  0  0  0  0  0  0  0
    4.5730   -1.9050   43.6960 C   0  0  0  0  0  0  0  0  0  0  0  0
    2.6190   -1.5460   42.2890 C   0  0  0  0  0  0  0  0  0  0  0  0
    3.4090   -2.3890   43.0730 C   0  0  0  0  0  0  0  0  0  0  0  0
    2.9940   -0.2080   42.1380 C   0  0  0  0  0  0  0  0  0  0  0  0
    4.1450    0.2830   42.7520 C   0  0  0  0  0  0  0  0  0  0  0  0
    4.9330   -0.5630   43.5300 C   0  0  0  0  0  0  0  0  0  0  0  0
    1.4670   -1.8850   41.6370 O   0  0  0  0  0  0  0  0  0  0  0  0
    0.7600   -3.0500   42.0550 C   0  0  0  0  0  0  0  0  0  0  0  0
   -0.5020   -3.2640   41.2220 C   0  0  0  0  0  0  0  0  0  0  0  0
   -1.5160   -2.3320   41.5790 O   0  0  0  0  0  0  0  0  0  0  0  0
    4.9130   -2.8040   46.0120 C   0  0  0  0  0  0  0  0  0  0  0  0
    4.5220   -4.1930   46.4800 C   0  0  0  0  0  0  0  0  0  0  0  0
    5.1860   -4.8180   47.3050 O   0  0  0  0  0  0  0  0  0  0  0  0
    3.2890   -4.8220   45.9110 C   0  0  0  0  0  0  0  0  0  0  0  0
    3.4050   -6.0720   45.2870 C   0  0  0  0  0  0  0  0  0  0  0  0
    2.0330   -4.2060   45.9770 C   0  0  0  0  0  0  0  0  0  0  0  0
    2.2820   -6.7010   44.7390 C   0  0  0  0  0  0  0  0  0  0  0  0
    0.9080   -4.8350   45.4280 C   0  0  0  0  0  0  0  0  0  0  0  0
    1.0280   -6.0840   44.8070 C   0  0  0  0  0  0  0  0  0  0  0  0
   -0.1360   -6.7850   44.2130 C   0  0  0  0  0  0  0  0  0  0  0  0
   -0.8020   -7.6470   44.7560 O   0  0  0  0  0  0  0  0  0  0  0  0
   -0.4080   -6.3720   42.9630 O   0  0  0  0  0  0  0  0  0  0  0  0
  1  2  1  0
  1 12  1  0
  2  4  2  0
  2  7  1  0
  3  8  1  0
  3  5  2  0
  3  4  1  0
  5  6  1  0
  6  7  2  0
  8  9  1  0
  9 10  1  0
 10 11  1  0
 12 13  1  0
 13 15  1  0
 13 14  2  0
 15 16  2  0
 15 17  1  0
 16 18  1  0
 17 19  2  0
 18 20  2  0
 19 20  1  0
 20 21  1  0
 21 23  1  0
 21 22  2  0
M  END
>  <vina_dock>  (964) 
-7.397

$$$$
O14757_PocketFlow_idx-in-all-generaetd-91
     RDKit          3D

 35 39  0  0  0  0  0  0  0  0999 V2000
    0.6490   -5.6610   44.8680 C   0  0  0  0  0  0  0  0  0  0  0  0
    0.4210   -6.5530   44.0620 O   0  0  0  0  0  0  0  0  0  0  0  0
   -0.0350   -5.4920   46.0530 N   0  0  0  0  0  0  0  0  0  0  0  0
    1.6570   -4.6130   44.5680 C   0  0  0  0  0  0  0  0  0  0  0  0
    3.7370   -2.8040   44.0820 C   0  0  0  0  0  0  0  0  0  0  0  0
    3.8140   -3.7160   45.1500 C   0  0  0  0  0  0  0  0  0  0  0  0
    2.5720   -2.7660   43.2550 C   0  0  0  0  0  0  0  0  0  0  0  0
    2.7850   -4.6140   45.3920 C   0  0  0  0  0  0  0  0  0  0  0  0
    2.4090   -1.8470   42.1900 C   0  0  0  0  0  0  0  0  0  0  0  0
    1.5100   -3.6790   43.5110 C   0  0  0  0  0  0  0  0  0  0  0  0
    1.2510   -1.8040   41.4110 C   0  0  0  0  0  0  0  0  0  0  0  0
    0.3380   -3.5960   42.7160 C   0  0  0  0  0  0  0  0  0  0  0  0
    0.2120   -2.6770   41.6770 C   0  0  0  0  0  0  0  0  0  0  0  0
    4.9260   -1.8710   43.8970 C   0  0  0  0  0  0  0  0  0  0  0  0
    6.0550   -2.0730   44.8870 C   0  0  0  0  0  0  0  0  0  0  0  0
   10.0650   -4.2610   49.6060 C   0  0  0  0  0  0  0  0  0  0  0  0
    9.0900   -3.9090   48.6360 C   0  0  0  0  0  0  0  0  0  0  0  0
    9.8740   -5.3140   50.5060 C   0  0  0  0  0  0  0  0  0  0  0  0
    9.2150   -2.8480   47.6870 C   0  0  0  0  0  0  0  0  0  0  0  0
    7.9030   -4.6750   48.6150 C   0  0  0  0  0  0  0  0  0  0  0  0
    8.6990   -6.0510   50.4650 C   0  0  0  0  0  0  0  0  0  0  0  0
   10.8220   -1.7820   47.6870 Br  0  0  0  0  0  0  0  0  0  0  0  0
    8.1910   -2.5530   46.7340 C   0  0  0  0  0  0  0  0  0  0  0  0
    7.7220   -5.7320   49.5260 C   0  0  0  0  0  0  0  0  0  0  0  0
    6.8990   -4.3840   47.6830 C   0  0  0  0  0  0  0  0  0  0  0  0
    8.2500   -1.5230   45.7620 C   0  0  0  0  0  0  0  0  0  0  0  0
    7.0240   -3.3460   46.7510 C   0  0  0  0  0  0  0  0  0  0  0  0
    7.2090   -1.2920   44.8540 C   0  0  0  0  0  0  0  0  0  0  0  0
    5.9830   -3.1020   45.8350 C   0  0  0  0  0  0  0  0  0  0  0  0
   -1.1370   -6.3570   46.4270 C   0  0  0  0  0  0  0  0  0  0  0  0
   -0.7260   -7.4740   47.3920 C   0  0  0  0  0  0  0  0  0  0  0  0
   -0.6140   -8.8170   46.7160 C   0  0  0  0  0  0  0  0  0  0  0  0
    0.4940   -9.5360   46.4790 C   0  0  0  0  0  0  0  0  0  0  0  0
    1.8380   -9.1810   46.8660 C   0  0  0  0  0  0  0  0  0  0  0  0
    2.6510   -8.4590   46.0840 C   0  0  0  0  0  0  0  0  0  0  0  0
  1  2  2  0
  1  4  1  0
  1  3  1  0
  3 30  1  0
  4 10  2  0
  4  8  1  0
  5  7  2  0
  5 14  1  0
  5  6  1  0
  6  8  2  0
  7  9  1  0
  7 10  1  0
  9 11  2  0
 10 12  1  0
 11 13  1  0
 12 13  2  0
 14 15  1  0
 15 28  1  0
 15 29  2  0
 16 17  2  0
 16 18  1  0
 17 19  1  0
 17 20  1  0
 18 21  2  0
 19 23  2  0
 19 22  1  0
 20 25  1  0
 20 24  2  0
 21 24  1  0
 23 26  1  0
 23 27  1  0
 25 27  2  0
 26 28  2  0
 27 29  1  0
 30 31  1  0
 31 32  1  0
 32 33  2  3
 33 34  1  0
 34 35  2  0
M  END
>  <vina_dock>  (965) 
-10.28

$$$$
O14757_PocketFlow_idx-in-all-generaetd-679
     RDKit          3D

 35 39  0  0  0  0  0  0  0  0999 V2000
   -2.0510   -7.6570   46.2620 C   0  0  0  0  0  0  0  0  0  0  0  0
   -1.3710   -7.8800   44.8970 C   0  0  2  0  0  0  0  0  0  0  0  0
   -0.2630   -6.8550   44.6030 C   0  0  0  0  0  0  0  0  0  0  0  0
    0.0470   -5.8970   45.7590 C   0  0  0  0  0  0  0  0  0  0  0  0
    1.4780   -5.4280   45.6970 C   0  0  0  0  0  0  0  0  0  0  0  0
    1.9100   -2.9100   42.7440 C   0  0  0  0  0  0  0  0  0  0  0  0
    3.0070   -2.2450   43.2700 N   0  0  0  0  0  0  0  0  0  0  0  0
    1.5070   -2.7100   41.5980 O   0  0  0  0  0  0  0  0  0  0  0  0
    1.1730   -3.9040   43.6900 C   0  0  0  0  0  0  0  0  0  0  0  0
    3.8660   -1.3850   42.4420 C   0  0  0  0  0  0  0  0  0  0  0  0
    3.4520   -2.6160   44.5870 C   0  0  2  0  0  0  0  0  0  0  0  0
    1.9930   -4.5580   44.8060 C   0  0  0  0  0  0  0  0  0  0  0  0
    4.8600   -0.4960   43.2350 C   0  0  0  0  0  0  0  0  0  0  0  0
    4.8840   -2.3350   44.8520 C   0  0  0  0  0  0  0  0  0  0  0  0
    3.4410   -4.1320   44.8120 C   0  0  2  0  0  0  0  0  0  0  0  0
    5.5990   -1.3130   44.2590 C   0  0  0  0  0  0  0  0  0  0  0  0
    5.4320   -3.2690   45.7360 C   0  0  0  0  0  0  0  0  0  0  0  0
    4.3890   -4.3250   46.0320 C   0  0  0  0  0  0  0  0  0  0  0  0
    6.9190   -1.1580   44.6550 C   0  0  0  0  0  0  0  0  0  0  0  0
    6.7510   -3.1390   46.1460 C   0  0  0  0  0  0  0  0  0  0  0  0
    7.4810   -2.0570   45.5920 C   0  0  0  0  0  0  0  0  0  0  0  0
    7.3800   -4.0730   47.0850 C   0  0  0  0  0  0  0  0  0  0  0  0
    8.6430   -4.6270   46.8170 C   0  0  0  0  0  0  0  0  0  0  0  0
    6.7340   -4.4430   48.2750 C   0  0  0  0  0  0  0  0  0  0  0  0
    9.2420   -5.5180   47.7120 C   0  0  0  0  0  0  0  0  0  0  0  0
    7.3320   -5.3320   49.1710 C   0  0  0  0  0  0  0  0  0  0  0  0
    8.5860   -5.8700   48.8890 C   0  0  0  0  0  0  0  0  0  0  0  0
   -2.3780   -7.8790   43.8230 N   0  0  0  0  0  0  0  0  0  0  0  0
   -2.4670   -8.9310   46.7770 O   0  0  0  0  0  0  0  0  0  0  0  0
   -1.8380   -9.2640   48.0150 C   0  0  0  0  0  0  0  0  0  0  0  0
   -0.5710  -10.0810   47.7730 C   0  0  0  0  0  0  0  0  0  0  0  0
    0.7160   -9.3560   48.1800 C   0  0  0  0  0  0  0  0  0  0  0  0
    2.0020   -9.8360   47.4810 C   0  0  0  0  0  0  0  0  0  0  0  0
    3.1770   -9.7710   48.4610 C   0  0  0  0  0  0  0  0  0  0  0  0
    2.3270   -9.0190   46.2300 C   0  0  0  0  0  0  0  0  0  0  0  0
  1  2  1  0
  1 29  1  0
  2 28  1  6
  2  3  1  0
  3  4  1  0
  4  5  1  0
  5 12  2  3
  6  8  2  0
  6  7  1  0
  6  9  1  0
  7 10  1  0
 11  7  1  6
  9 12  1  0
 10 13  1  0
 11 15  1  0
 11 14  1  0
 12 15  1  0
 13 16  1  0
 14 16  2  0
 14 17  1  0
 15 18  1  1
 16 19  1  0
 17 18  1  0
 17 20  2  0
 19 21  2  0
 20 21  1  0
 20 22  1  0
 22 23  2  0
 22 24  1  0
 23 25  1  0
 24 26  2  0
 25 27  2  0
 26 27  1  0
 29 30  1  0
 30 31  1  0
 31 32  1  0
 32 33  1  0
 33 35  1  0
 33 34  1  0
M  END
>  <vina_dock>  (966) 
-8.4

$$$$
O14757_PocketFlow_idx-in-all-generaetd-869
     RDKit          3D

 35 39  0  0  0  0  0  0  0  0999 V2000
   11.9430   -8.1530   49.4160 C   0  0  1  0  0  0  0  0  0  0  0  0
   12.1700   -7.4010   48.1050 C   0  0  0  0  0  0  0  0  0  0  0  0
   11.9670   -6.0140   48.0850 C   0  0  0  0  0  0  0  0  0  0  0  0
   12.0140   -5.2670   46.8940 C   0  0  0  0  0  0  0  0  0  0  0  0
   12.3850   -5.9100   45.7130 C   0  0  0  0  0  0  0  0  0  0  0  0
   12.6730   -7.2750   45.7280 C   0  0  0  0  0  0  0  0  0  0  0  0
   12.5560   -8.0170   46.9090 C   0  0  0  0  0  0  0  0  0  0  0  0
   10.5960   -7.8550   50.1420 C   0  0  0  0  0  0  0  0  0  0  0  0
    9.3650   -7.8080   49.2690 C   0  0  0  0  0  0  0  0  0  0  0  0
    8.3300   -6.9640   49.3990 C   0  0  0  0  0  0  0  0  0  0  0  0
   11.5660   -3.8180   46.9080 C   0  0  0  0  0  0  0  0  0  0  0  0
   10.0900   -3.6980   47.2420 C   0  0  0  0  0  0  0  0  0  0  0  0
    9.1410   -3.3850   46.2770 C   0  0  0  0  0  0  0  0  0  0  0  0
    7.7740   -3.4580   46.5960 C   0  0  0  0  0  0  0  0  0  0  0  0
    7.3830   -3.8920   47.8790 C   0  0  0  0  0  0  0  0  0  0  0  0
    6.7860   -3.1360   45.6460 C   0  0  0  0  0  0  0  0  0  0  0  0
    5.4150   -3.2290   45.9420 C   0  0  0  0  0  0  0  0  0  0  0  0
    5.0450   -3.6720   47.2230 C   0  0  0  0  0  0  0  0  0  0  0  0
    8.4250   -4.1920   48.7660 C   0  0  0  0  0  0  0  0  0  0  0  0
    6.0090   -4.0050   48.1760 C   0  0  0  0  0  0  0  0  0  0  0  0
    9.7400   -4.0370   48.5010 N   0  0  0  0  0  0  0  0  0  0  0  0
    8.1750   -6.0550   50.4110 N   0  0  0  0  0  0  0  0  0  0  0  0
    8.1810   -4.7910   50.0960 C   0  0  0  0  0  0  0  0  0  0  0  0
   12.1830   -9.6490   49.3460 C   0  0  0  0  0  0  0  0  0  0  0  0
   11.3550  -10.4900   49.0300 O   0  0  0  0  0  0  0  0  0  0  0  0
   13.4160  -10.0450   49.7140 O   0  0  0  0  0  0  0  0  0  0  0  0
    4.3100   -2.8760   44.9360 C   0  0  1  0  0  0  0  0  0  0  0  0
    4.8080   -2.4040   43.5820 C   0  0  0  0  0  0  0  0  0  0  0  0
    4.6820   -1.1540   43.1170 C   0  0  0  0  0  0  0  0  0  0  0  0
    3.2800   -3.9910   44.7530 C   0  0  0  0  0  0  0  0  0  0  0  0
    3.6960   -5.3330   44.7700 C   0  0  0  0  0  0  0  0  0  0  0  0
    1.9090   -3.7170   44.6090 C   0  0  0  0  0  0  0  0  0  0  0  0
    2.7710   -6.3680   44.6190 C   0  0  0  0  0  0  0  0  0  0  0  0
    0.9860   -4.7540   44.4570 C   0  0  0  0  0  0  0  0  0  0  0  0
    1.4180   -6.0780   44.4600 C   0  0  0  0  0  0  0  0  0  0  0  0
  1  2  1  0
  1 24  1  6
  1  8  1  0
  2  7  2  0
  2  3  1  0
  3  4  2  0
  4  5  1  0
  4 11  1  0
  5  6  2  0
  6  7  1  0
  8  9  1  0
  9 10  2  3
 10 22  1  0
 11 12  1  0
 12 13  2  0
 12 21  1  0
 13 14  1  0
 14 16  2  0
 14 15  1  0
 15 20  2  0
 15 19  1  0
 16 17  1  0
 17 27  1  0
 17 18  2  0
 18 20  1  0
 19 21  2  0
 19 23  1  0
 22 23  2  3
 24 25  2  0
 24 26  1  0
 27 28  1  6
 27 30  1  0
 28 29  2  0
 30 32  1  0
 30 31  2  0
 31 33  1  0
 32 34  2  0
 33 35  2  0
 34 35  1  0
M  END
>  <vina_dock>  (967) 
-7.729

$$$$
O14757_PocketFlow_idx-in-all-generaetd-923
     RDKit          3D

 20 22  0  0  0  0  0  0  0  0999 V2000
    3.4350   -4.2770   44.2360 C   0  0  0  0  0  0  0  0  0  0  0  0
    2.1000   -3.8640   44.1670 C   0  0  0  0  0  0  0  0  0  0  0  0
    1.0650   -4.7630   44.4410 C   0  0  0  0  0  0  0  0  0  0  0  0
    1.3340   -6.0940   44.7950 C   0  0  0  0  0  0  0  0  0  0  0  0
    2.6770   -6.4970   44.8650 C   0  0  0  0  0  0  0  0  0  0  0  0
    3.7140   -5.6010   44.5890 C   0  0  0  0  0  0  0  0  0  0  0  0
    4.5580   -3.3020   43.9530 C   0  0  0  0  0  0  0  0  0  0  0  0
    4.7950   -2.2840   45.0910 C   0  0  0  0  0  0  0  0  0  0  0  0
    7.6590   -3.0970   46.1020 C   0  0  0  0  0  0  0  0  0  0  0  0
    7.3270   -1.9070   45.3600 C   0  0  0  0  0  0  0  0  0  0  0  0
    6.8600   -3.7880   46.9260 C   0  0  0  0  0  0  0  0  0  0  0  0
    6.1150   -1.5680   44.9000 C   0  0  0  0  0  0  0  0  0  0  0  0
    5.4860   -3.4970   47.2530 C   0  0  0  0  0  0  0  0  0  0  0  0
    4.5930   -2.8820   46.4650 C   0  0  0  0  0  0  0  0  0  0  0  0
    0.2420   -7.0390   45.0860 C   0  0  0  0  0  0  0  0  0  0  0  0
    0.3040   -7.8970   46.1980 C   0  0  0  0  0  0  0  0  0  0  0  0
   -0.8920   -7.1100   44.2620 C   0  0  0  0  0  0  0  0  0  0  0  0
   -0.7320   -8.7920   46.4750 C   0  0  0  0  0  0  0  0  0  0  0  0
   -1.9290   -8.0060   44.5370 C   0  0  0  0  0  0  0  0  0  0  0  0
   -1.8480   -8.8460   45.6450 C   0  0  0  0  0  0  0  0  0  0  0  0
  1  7  1  0
  1  2  2  0
  1  6  1  0
  2  3  1  0
  3  4  2  0
  4  5  1  0
  4 15  1  0
  5  6  2  0
  7  8  1  0
  8 12  1  0
  8 14  1  0
  9 10  1  0
  9 11  2  0
 10 12  2  0
 11 13  1  0
 13 14  2  0
 15 17  1  0
 15 16  2  0
 16 18  1  0
 17 19  2  0
 18 20  2  0
 19 20  1  0
M  END
>  <vina_dock>  (968) 
-8.942

$$$$
O14757_PocketFlow_idx-in-all-generaetd-562
     RDKit          3D

 26 29  0  0  0  0  0  0  0  0999 V2000
    4.2200   -2.8660   44.4280 C   0  0  0  0  0  0  0  0  0  0  0  0
    3.7840   -2.0680   43.3580 C   0  0  0  0  0  0  0  0  0  0  0  0
    2.5170   -2.2590   42.7730 C   0  0  0  0  0  0  0  0  0  0  0  0
    2.0460   -1.4850   41.7120 C   0  0  0  0  0  0  0  0  0  0  0  0
    3.3560   -3.8630   44.9040 C   0  0  0  0  0  0  0  0  0  0  0  0
    2.0960   -4.0610   44.3290 C   0  0  0  0  0  0  0  0  0  0  0  0
    1.6650   -3.2630   43.2600 C   0  0  0  0  0  0  0  0  0  0  0  0
    0.8370   -1.6400   41.1250 N   0  0  0  0  0  0  0  0  0  0  0  0
    0.4080   -3.4370   42.6610 C   0  0  0  0  0  0  0  0  0  0  0  0
    0.0360   -2.6170   41.5990 C   0  0  0  0  0  0  0  0  0  0  0  0
    5.5450   -2.6580   45.0330 C   0  0  0  0  0  0  0  0  0  0  0  0
    7.3130   -3.3700   46.5830 C   0  0  0  0  0  0  0  0  0  0  0  0
    8.0790   -2.2620   46.1920 C   0  0  0  0  0  0  0  0  0  0  0  0
    6.0520   -3.5570   45.9890 C   0  0  0  0  0  0  0  0  0  0  0  0
    7.5920   -1.3610   45.2460 C   0  0  0  0  0  0  0  0  0  0  0  0
    6.3360   -1.5570   44.6730 C   0  0  0  0  0  0  0  0  0  0  0  0
    7.8270   -4.3810   47.5950 C   0  0  2  0  0  0  0  0  0  0  0  0
    7.0870   -4.3740   48.9340 C   0  0  0  0  0  0  0  0  0  0  0  0
    5.9830   -3.8800   49.1370 O   0  0  0  0  0  0  0  0  0  0  0  0
    7.7690   -5.0270   49.9500 N   0  0  0  0  0  0  0  0  0  0  0  0
    9.3180   -4.1480   47.8810 C   0  0  0  0  0  0  0  0  0  0  0  0
    8.8750   -5.8510   49.6850 N   0  0  0  0  0  0  0  0  0  0  0  0
    9.8830   -5.1910   48.8500 C   0  0  0  0  0  0  0  0  0  0  0  0
   -1.2960   -2.7770   40.9900 C   0  0  0  0  0  0  0  0  0  0  0  0
   -2.2880   -1.8760   40.8850 C   0  0  0  0  0  0  0  0  0  0  0  0
   -2.2820   -0.4390   41.2970 C   0  0  0  0  0  0  0  0  0  0  0  0
  1  2  2  0
  1  5  1  0
  1 11  1  0
  2  3  1  0
  3  4  2  0
  3  7  1  0
  4  8  1  0
  5  6  2  0
  6  7  1  0
  7  9  2  0
  8 10  2  0
  9 10  1  0
 10 24  1  0
 11 16  1  0
 11 14  2  0
 12 14  1  0
 12 13  2  0
 17 12  1  6
 13 15  1  0
 15 16  2  0
 17 21  1  0
 17 18  1  0
 18 19  2  0
 18 20  1  0
 20 22  1  0
 21 23  1  0
 22 23  1  0
 24 25  2  3
 25 26  1  0
M  END
>  <vina_dock>  (969) 
-10.013

$$$$
O14757_PocketFlow_idx-in-all-generaetd-26
     RDKit          3D

 14 15  0  0  0  0  0  0  0  0999 V2000
    6.3390   -2.5870   45.3570 C   0  0  0  0  0  0  0  0  0  0  0  0
    5.4720   -3.6720   45.4490 C   0  0  0  0  0  0  0  0  0  0  0  0
    6.0240   -1.5000   44.5470 C   0  0  0  0  0  0  0  0  0  0  0  0
    4.8290   -1.4980   43.8200 C   0  0  0  0  0  0  0  0  0  0  0  0
    3.9350   -2.5840   43.8940 C   0  0  0  0  0  0  0  0  0  0  0  0
    4.2780   -3.6690   44.7220 C   0  0  0  0  0  0  0  0  0  0  0  0
    4.4960   -0.1060   42.8470 Cl  0  0  0  0  0  0  0  0  0  0  0  0
    7.8080   -2.5900   46.2510 Cl  0  0  0  0  0  0  0  0  0  0  0  0
    2.6700   -2.6330   43.1480 C   0  0  0  0  0  0  0  0  0  0  0  0
    2.4660   -1.8220   42.0210 C   0  0  0  0  0  0  0  0  0  0  0  0
    1.6420   -3.5060   43.5390 C   0  0  0  0  0  0  0  0  0  0  0  0
    1.2670   -1.8780   41.3080 C   0  0  0  0  0  0  0  0  0  0  0  0
    0.4430   -3.5630   42.8250 C   0  0  0  0  0  0  0  0  0  0  0  0
    0.2560   -2.7490   41.7100 C   0  0  0  0  0  0  0  0  0  0  0  0
  1  3  2  0
  1  2  1  0
  1  8  1  0
  2  6  2  0
  3  4  1  0
  4  7  1  0
  4  5  2  0
  5  9  1  0
  5  6  1  0
  9 10  2  0
  9 11  1  0
 10 12  1  0
 11 13  2  0
 12 14  2  0
 13 14  1  0
M  END
>  <vina_dock>  (970) 
-7.641

$$$$
O14757_PocketFlow_idx-in-all-generaetd-917
     RDKit          3D

 27 30  0  0  0  0  0  0  0  0999 V2000
    8.1150   -3.3710   46.9010 C   0  0  2  0  0  0  0  0  0  0  0  0
    6.7540   -3.2590   46.1930 C   0  0  0  0  0  0  0  0  0  0  0  0
    5.6740   -4.1370   46.4830 C   0  0  0  0  0  0  0  0  0  0  0  0
    4.4900   -4.0500   45.7140 C   0  0  0  0  0  0  0  0  0  0  0  0
    4.3090   -3.0940   44.7090 C   0  0  0  0  0  0  0  0  0  0  0  0
    5.3450   -2.1820   44.4980 C   0  0  0  0  0  0  0  0  0  0  0  0
    6.5420   -2.2340   45.2380 C   0  0  0  0  0  0  0  0  0  0  0  0
    7.5760   -1.1730   44.9530 C   0  0  0  0  0  0  0  0  0  0  0  0
    8.5240   -0.9830   46.1260 C   0  0  0  0  0  0  0  0  0  0  0  0
    9.1600   -2.3200   46.4510 C   0  0  0  0  0  0  0  0  0  0  0  0
    8.7920   -4.7720   46.8350 C   0  0  0  0  0  0  0  0  0  0  0  0
    9.4030   -5.2410   48.1310 C   0  0  0  0  0  0  0  0  0  0  0  0
    9.4780   -6.4950   48.6190 C   0  0  0  0  0  0  0  0  0  0  0  0
    8.9140   -7.7220   47.9600 C   0  0  0  0  0  0  0  0  0  0  0  0
   10.1630   -6.7600   49.9340 C   0  0  0  0  0  0  0  0  0  0  0  0
    5.6790   -5.1210   47.5760 C   0  0  0  0  0  0  0  0  0  0  0  0
    6.0130   -4.7710   48.8840 C   0  0  0  0  0  0  0  0  0  0  0  0
    5.2910   -6.3770   47.2390 N   0  0  0  0  0  0  0  0  0  0  0  0
    5.9750   -5.7470   49.8760 C   0  0  0  0  0  0  0  0  0  0  0  0
    5.2660   -7.3050   48.2220 C   0  0  0  0  0  0  0  0  0  0  0  0
    5.5970   -7.0420   49.5400 C   0  0  0  0  0  0  0  0  0  0  0  0
    3.0650   -3.0400   43.9230 C   0  0  0  0  0  0  0  0  0  0  0  0
    2.9430   -2.1730   42.8230 C   0  0  0  0  0  0  0  0  0  0  0  0
    1.9640   -3.8510   44.2460 C   0  0  0  0  0  0  0  0  0  0  0  0
    1.7650   -2.1180   42.0750 C   0  0  0  0  0  0  0  0  0  0  0  0
    0.7850   -3.7970   43.4980 C   0  0  0  0  0  0  0  0  0  0  0  0
    0.6860   -2.9300   42.4120 C   0  0  0  0  0  0  0  0  0  0  0  0
  1  2  1  0
  1 10  1  0
  1 11  1  6
  2  7  2  0
  2  3  1  0
  3  4  2  0
  3 16  1  0
  4  5  1  0
  5 22  1  0
  5  6  2  0
  6  7  1  0
  7  8  1  0
  8  9  1  0
  9 10  1  0
 11 12  1  0
 12 13  2  3
 13 14  1  0
 13 15  1  0
 16 18  1  0
 16 17  2  0
 17 19  1  0
 18 20  2  0
 19 21  2  0
 20 21  1  0
 22 23  2  0
 22 24  1  0
 23 25  1  0
 24 26  2  0
 25 27  2  0
 26 27  1  0
M  END
>  <vina_dock>  (971) 
-7.802

$$$$
O14757_PocketFlow_idx-in-all-generaetd-197
     RDKit          3D

 33 35  0  0  0  0  0  0  0  0999 V2000
    5.4460   -1.5440   43.4430 N   0  0  0  0  0  0  0  0  0  0  0  0
    4.1430   -1.8750   43.0570 C   0  0  0  0  0  0  0  0  0  0  0  0
    3.5900   -3.1210   43.4530 C   0  0  0  0  0  0  0  0  0  0  0  0
    2.2650   -3.4640   43.1250 C   0  0  0  0  0  0  0  0  0  0  0  0
    3.2930   -0.9830   42.3880 C   0  0  0  0  0  0  0  0  0  0  0  0
    1.4610   -2.5710   42.4170 C   0  0  0  0  0  0  0  0  0  0  0  0
    1.9760   -1.3270   42.0560 C   0  0  0  0  0  0  0  0  0  0  0  0
    4.3750   -4.0870   44.2470 C   0  0  0  0  0  0  0  0  0  0  0  0
    3.8890   -5.0730   45.0190 C   0  0  0  0  0  0  0  0  0  0  0  0
    2.4760   -5.4190   45.2180 C   0  0  0  0  0  0  0  0  0  0  0  0
    1.9110   -6.5670   44.6460 C   0  0  0  0  0  0  0  0  0  0  0  0
    1.6860   -4.6060   46.0420 C   0  0  0  0  0  0  0  0  0  0  0  0
    0.5700   -6.8820   44.8760 C   0  0  0  0  0  0  0  0  0  0  0  0
    0.3440   -4.9220   46.2730 C   0  0  0  0  0  0  0  0  0  0  0  0
   -0.2020   -6.0580   45.6860 C   0  0  0  0  0  0  0  0  0  0  0  0
   -1.5050   -6.4040   45.8860 O   0  0  0  0  0  0  0  0  0  0  0  0
    0.0620   -2.8900   42.0470 C   0  0  0  0  0  0  0  0  0  0  0  0
   -0.7650   -2.0970   41.6370 O   0  0  0  0  0  0  0  0  0  0  0  0
   -0.2430   -4.1900   42.2130 O   0  0  0  0  0  0  0  0  0  0  0  0
    5.8790   -1.0370   44.7460 C   0  0  1  0  0  0  0  0  0  0  0  0
    4.7190   -0.7970   45.7100 C   0  0  0  0  0  0  0  0  0  0  0  0
    6.9950   -1.8900   45.2880 C   0  0  0  0  0  0  0  0  0  0  0  0
    6.8110   -2.8730   46.1860 C   0  0  0  0  0  0  0  0  0  0  0  0
    7.8390   -3.7300   46.7800 C   0  0  0  0  0  0  0  0  0  0  0  0
    9.0650   -3.7310   46.2120 C   0  0  0  0  0  0  0  0  0  0  0  0
    7.5040   -4.5470   48.0170 C   0  0  0  0  0  0  0  0  0  0  0  0
    6.0120   -4.5490   48.3350 C   0  0  0  0  0  0  0  0  0  0  0  0
   10.2150   -4.5130   46.6730 C   0  0  0  0  0  0  0  0  0  0  0  0
   10.4610   -5.7870   46.1510 C   0  0  0  0  0  0  0  0  0  0  0  0
   11.0750   -3.9860   47.6410 C   0  0  0  0  0  0  0  0  0  0  0  0
   11.5570   -6.5280   46.5960 C   0  0  0  0  0  0  0  0  0  0  0  0
   12.1710   -4.7280   48.0850 C   0  0  0  0  0  0  0  0  0  0  0  0
   12.4110   -5.9990   47.5630 C   0  0  0  0  0  0  0  0  0  0  0  0
  1  2  1  0
  1 20  1  0
  2  5  2  0
  2  3  1  0
  3  4  2  0
  3  8  1  0
  4  6  1  0
  5  7  1  0
  6 17  1  0
  6  7  2  0
  8  9  2  3
  9 10  1  0
 10 11  2  0
 10 12  1  0
 11 13  1  0
 12 14  2  0
 13 15  2  0
 14 15  1  0
 15 16  1  0
 17 18  2  0
 17 19  1  0
 20 22  1  0
 20 21  1  1
 22 23  2  3
 23 24  1  0
 24 25  2  3
 24 26  1  0
 25 28  1  0
 26 27  1  0
 28 29  2  0
 28 30  1  0
 29 31  1  0
 30 32  2  0
 31 33  2  0
 32 33  1  0
M  END
>  <vina_dock>  (972) 
-8.172

$$$$
O14757_PocketFlow_idx-in-all-generaetd-735
     RDKit          3D

 27 30  0  0  0  0  0  0  0  0999 V2000
   -0.0110   -2.1600   41.7820 C   0  0  0  0  0  0  0  0  0  0  0  0
    0.9050   -1.2180   41.3460 C   0  0  0  0  0  0  0  0  0  0  0  0
    2.1840   -1.2560   41.8850 C   0  0  0  0  0  0  0  0  0  0  0  0
    2.5190   -2.2260   42.8380 C   0  0  0  0  0  0  0  0  0  0  0  0
    3.8130   -2.2660   43.3830 C   0  0  0  0  0  0  0  0  0  0  0  0
    4.1640   -3.2290   44.3260 C   0  0  0  0  0  0  0  0  0  0  0  0
    3.1910   -4.1410   44.7360 C   0  0  0  0  0  0  0  0  0  0  0  0
    1.5310   -3.1580   43.2380 C   0  0  0  0  0  0  0  0  0  0  0  0
    1.8830   -4.1270   44.1990 C   0  0  0  0  0  0  0  0  0  0  0  0
    0.2900   -3.1090   42.7050 N   0  0  0  0  0  0  0  0  0  0  0  0
   -1.4160   -2.1830   41.2630 C   0  0  0  0  0  0  0  0  0  0  0  0
   -2.2480   -1.2970   41.3420 O   0  0  0  0  0  0  0  0  0  0  0  0
   -1.7280   -3.3450   40.6490 O   0  0  0  0  0  0  0  0  0  0  0  0
    0.9170   -5.1440   44.6760 C   0  0  0  0  0  0  0  0  0  0  0  0
    0.4540   -6.1560   43.8160 C   0  0  0  0  0  0  0  0  0  0  0  0
    0.4510   -5.1440   46.0000 C   0  0  0  0  0  0  0  0  0  0  0  0
   -0.4410   -7.1320   44.2650 C   0  0  0  0  0  0  0  0  0  0  0  0
   -0.4450   -6.1180   46.4510 C   0  0  0  0  0  0  0  0  0  0  0  0
   -0.8890   -7.1130   45.5820 C   0  0  0  0  0  0  0  0  0  0  0  0
    5.4970   -3.2790   44.9430 C   0  0  0  0  0  0  0  0  0  0  0  0
    6.2640   -2.1930   45.1310 C   0  0  0  0  0  0  0  0  0  0  0  0
    7.5980   -2.2170   45.7380 C   0  0  0  0  0  0  0  0  0  0  0  0
    8.1800   -3.3210   46.3370 C   0  0  0  0  0  0  0  0  0  0  0  0
    8.4200   -1.1030   45.6970 C   0  0  0  0  0  0  0  0  0  0  0  0
    9.4230   -3.3350   46.8680 N   0  0  0  0  0  0  0  0  0  0  0  0
    9.6700   -1.0530   46.2070 N   0  0  0  0  0  0  0  0  0  0  0  0
   10.1080   -2.1870   46.7750 C   0  0  0  0  0  0  0  0  0  0  0  0
  1 11  1  0
  1  2  2  0
  1 10  1  0
  2  3  1  0
  3  4  2  0
  4  8  1  0
  4  5  1  0
  5  6  2  0
  6  7  1  0
  6 20  1  0
  7  9  2  0
  8 10  2  0
  8  9  1  0
  9 14  1  0
 11 13  1  0
 11 12  2  0
 14 15  2  0
 14 16  1  0
 15 17  1  0
 16 18  2  0
 17 19  2  0
 18 19  1  0
 20 21  2  3
 21 22  1  0
 22 24  1  0
 22 23  2  0
 23 25  1  0
 24 26  2  0
 25 27  2  0
 26 27  1  0
M  END
>  <vina_dock>  (973) 
-10.474

$$$$
O14757_PocketFlow_idx-in-all-generaetd-257
     RDKit          3D

 26 26  0  0  0  0  0  0  0  0999 V2000
    2.5040   -8.2690   46.0730 C   0  0  0  0  0  0  0  0  0  0  0  0
    2.8920   -7.1470   45.4560 C   0  0  0  0  0  0  0  0  0  0  0  0
    1.2360   -8.7740   46.2020 N   0  0  0  0  0  0  0  0  0  0  0  0
    0.6610   -9.2140   47.4640 C   0  0  0  0  0  0  0  0  0  0  0  0
   -0.6650   -8.4910   47.6980 C   0  0  0  0  0  0  0  0  0  0  0  0
   -1.1560   -7.7120   46.4760 C   0  0  0  0  0  0  0  0  0  0  0  0
   -2.2810   -8.4160   45.7210 C   0  0  0  0  0  0  0  0  0  0  0  0
   -2.3270   -7.9760   44.2850 C   0  0  0  0  0  0  0  0  0  0  0  0
   -3.2190   -8.2110   43.4860 O   0  0  0  0  0  0  0  0  0  0  0  0
   -1.2570   -7.2410   43.9280 O   0  0  0  0  0  0  0  0  0  0  0  0
    2.0120   -6.1440   44.7670 C   0  0  0  0  0  0  0  0  0  0  0  0
    1.4640   -5.0510   45.6930 C   0  0  0  0  0  0  0  0  0  0  0  0
    0.7300   -3.9070   44.9810 C   0  0  0  0  0  0  0  0  0  0  0  0
    1.3360   -3.5110   43.6640 C   0  0  0  0  0  0  0  0  0  0  0  0
    0.6480   -2.9210   42.6740 C   0  0  0  0  0  0  0  0  0  0  0  0
    1.2560   -2.5560   41.4130 C   0  0  0  0  0  0  0  0  0  0  0  0
    1.8790   -1.4050   41.1050 C   0  0  0  0  0  0  0  0  0  0  0  0
    2.0670   -0.2560   41.9620 C   0  0  0  0  0  0  0  0  0  0  0  0
    3.2000    0.0950   42.5930 C   0  0  0  0  0  0  0  0  0  0  0  0
    4.5350   -0.5970   42.5930 C   0  0  0  0  0  0  0  0  0  0  0  0
    4.6720   -1.5660   43.7440 C   0  0  0  0  0  0  0  0  0  0  0  0
    4.7690   -1.1020   45.0640 C   0  0  0  0  0  0  0  0  0  0  0  0
    4.6770   -2.9490   43.5090 C   0  0  0  0  0  0  0  0  0  0  0  0
    4.8810   -2.0030   46.1240 C   0  0  0  0  0  0  0  0  0  0  0  0
    4.7890   -3.8480   44.5690 C   0  0  0  0  0  0  0  0  0  0  0  0
    4.8930   -3.3760   45.8760 C   0  0  0  0  0  0  0  0  0  0  0  0
  1  2  2  3
  1  3  1  0
  2 11  1  0
  3  4  1  0
  4  5  1  0
  5  6  1  0
  6  7  1  0
  7  8  1  0
  8  9  2  0
  8 10  1  0
 11 12  1  0
 12 13  1  0
 13 14  1  0
 14 15  2  3
 15 16  1  0
 16 17  2  3
 17 18  1  0
 18 19  2  3
 19 20  1  0
 20 21  1  0
 21 23  2  0
 21 22  1  0
 22 24  2  0
 23 25  1  0
 24 26  1  0
 25 26  2  0
M  END
>  <vina_dock>  (974) 
-6.749

$$$$
O14757_PocketFlow_idx-in-all-generaetd-934
     RDKit          3D

 17 20  0  0  0  0  0  0  0  0999 V2000
    1.4180   -5.3690   45.2640 C   0  0  1  0  0  0  0  0  0  0  0  0
    0.5590   -4.7900   44.1900 C   0  0  0  0  0  0  0  0  0  0  0  0
    1.1310   -3.7450   43.5630 C   0  0  0  0  0  0  0  0  0  0  0  0
    0.5140   -2.9810   42.4520 C   0  0  0  0  0  0  0  0  0  0  0  0
    1.5130   -2.4960   41.4140 C   0  0  0  0  0  0  0  0  0  0  0  0
    2.2990   -1.2920   41.9170 C   0  0  0  0  0  0  0  0  0  0  0  0
    3.4560   -1.5640   42.8520 C   0  0  0  0  0  0  0  0  0  0  0  0
    3.4790   -2.5730   43.8650 C   0  0  0  0  0  0  0  0  0  0  0  0
    4.6490   -2.6620   44.6840 C   0  0  0  0  0  0  0  0  0  0  0  0
    2.4580   -3.5120   44.1550 C   0  0  0  0  0  0  0  0  0  0  0  0
    4.7680   -3.6320   45.7000 C   0  0  0  0  0  0  0  0  0  0  0  0
    2.6170   -4.4750   45.1770 C   0  0  0  0  0  0  0  0  0  0  0  0
    3.7550   -4.5470   45.9540 C   0  0  0  0  0  0  0  0  0  0  0  0
    4.5540   -0.6840   42.7150 C   0  0  0  0  0  0  0  0  0  0  0  0
    5.6740   -0.7930   43.5240 C   0  0  0  0  0  0  0  0  0  0  0  0
    5.7200   -1.7780   44.4970 C   0  0  0  0  0  0  0  0  0  0  0  0
    0.7470   -5.2430   46.5020 O   0  0  0  0  0  0  0  0  0  0  0  0
  1  2  1  0
  1 12  1  0
  1 17  1  1
  2  3  2  0
  3  4  1  0
  3 10  1  0
  4  5  1  0
  5  6  1  0
  6  7  1  0
  7 14  2  0
  7  8  1  0
  8 10  2  0
  8  9  1  0
  9 16  1  0
  9 11  2  0
 10 12  1  0
 11 13  1  0
 12 13  2  0
 14 15  1  0
 15 16  2  0
M  END
>  <vina_dock>  (975) 
-9.394

$$$$
O14757_PocketFlow_idx-in-all-generaetd-634
     RDKit          3D

 35 38  0  0  0  0  0  0  0  0999 V2000
   11.5300   -1.9680   47.1460 C   0  0  0  0  0  0  0  0  0  0  0  0
   10.1430   -2.1160   47.1670 C   0  0  0  0  0  0  0  0  0  0  0  0
    9.5330   -3.3680   46.9340 C   0  0  0  0  0  0  0  0  0  0  0  0
   10.3160   -4.5050   46.6620 C   0  0  0  0  0  0  0  0  0  0  0  0
   11.6990   -4.3440   46.6460 C   0  0  0  0  0  0  0  0  0  0  0  0
   12.3070   -3.0900   46.8850 C   0  0  0  0  0  0  0  0  0  0  0  0
   12.4110   -5.5030   46.3830 C   0  0  0  0  0  0  0  0  0  0  0  0
   11.8700   -6.7090   46.1560 N   0  0  0  0  0  0  0  0  0  0  0  0
   13.7540   -5.4450   46.3580 F   0  0  0  0  0  0  0  0  0  0  0  0
   10.5430   -6.7610   46.1790 C   0  0  0  0  0  0  0  0  0  0  0  0
    9.7580   -5.7080   46.4330 N   0  0  0  0  0  0  0  0  0  0  0  0
   12.0480   -0.6810   47.3910 N   0  0  0  0  0  0  0  0  0  0  0  0
   12.9420    0.0250   46.6220 C   0  0  0  0  0  0  0  0  0  0  0  0
   13.4700   -0.3460   45.5800 O   0  0  0  0  0  0  0  0  0  0  0  0
   13.2950    1.3780   47.1290 C   0  0  0  0  0  0  0  0  0  0  0  0
   13.3900    2.4990   46.4140 C   0  0  0  0  0  0  0  0  0  0  0  0
   13.1680    2.5460   45.0870 F   0  0  0  0  0  0  0  0  0  0  0  0
    8.0590   -3.4490   46.9780 C   0  0  0  0  0  0  0  0  0  0  0  0
    7.3310   -2.8980   45.9020 C   0  0  0  0  0  0  0  0  0  0  0  0
    7.3550   -4.0430   48.0520 C   0  0  0  0  0  0  0  0  0  0  0  0
    5.9290   -2.9190   45.8540 C   0  0  0  0  0  0  0  0  0  0  0  0
    5.9490   -4.0650   48.0000 C   0  0  0  0  0  0  0  0  0  0  0  0
    5.2500   -3.5120   46.9240 C   0  0  0  0  0  0  0  0  0  0  0  0
    8.0700   -4.6690   49.2460 C   0  0  0  0  0  0  0  0  0  0  0  0
    7.4340   -6.0050   49.6410 C   0  0  0  0  0  0  0  0  0  0  0  0
    8.1200   -3.7110   50.4400 C   0  0  0  0  0  0  0  0  0  0  0  0
    5.1980   -2.3400   44.7160 C   0  0  0  0  0  0  0  0  0  0  0  0
    5.6680   -1.1840   44.0640 C   0  0  0  0  0  0  0  0  0  0  0  0
    4.0110   -2.9230   44.2490 C   0  0  0  0  0  0  0  0  0  0  0  0
    4.9760   -0.6300   42.9820 C   0  0  0  0  0  0  0  0  0  0  0  0
    3.3290   -2.3650   43.1710 C   0  0  0  0  0  0  0  0  0  0  0  0
    3.8000   -1.2260   42.5340 C   0  0  0  0  0  0  0  0  0  0  0  0
    2.1980   -2.9410   42.7390 F   0  0  0  0  0  0  0  0  0  0  0  0
    9.8750   -7.9520   45.9400 N   0  0  0  0  0  0  0  0  0  0  0  0
    9.4660   -8.6650   47.1290 C   0  0  0  0  0  0  0  0  0  0  0  0
  1  6  2  0
  1  2  1  0
  1 12  1  0
  2  3  2  0
  3  4  1  0
  3 18  1  0
  4 11  1  0
  4  5  2  0
  5  7  1  0
  5  6  1  0
  7  8  1  0
  7  9  1  0
  8 10  2  0
 10 34  1  0
 10 11  1  0
 12 13  1  0
 13 14  2  0
 13 15  1  0
 15 16  2  3
 16 17  1  0
 18 19  2  0
 18 20  1  0
 19 21  1  0
 20 22  2  0
 20 24  1  0
 21 27  1  0
 21 23  2  0
 22 23  1  0
 24 25  1  0
 24 26  1  0
 27 28  2  0
 27 29  1  0
 28 30  1  0
 29 31  2  0
 30 32  2  0
 31 32  1  0
 31 33  1  0
 34 35  1  0
M  END
>  <vina_dock>  (976) 
-8.563

$$$$
O14757_PocketFlow_idx-in-all-generaetd-919
     RDKit          3D

 16 16  0  0  0  0  0  0  0  0999 V2000
    3.6570   -4.3310   44.5690 C   0  0  1  0  0  0  0  0  0  0  0  0
    2.8980   -5.6610   44.6340 C   0  0  0  0  0  0  0  0  0  0  0  0
    1.5140   -5.5670   45.2780 C   0  0  0  0  0  0  0  0  0  0  0  0
    0.8610   -4.1880   45.1740 C   0  0  0  0  0  0  0  0  0  0  0  0
    1.2980   -3.3790   43.9490 C   0  0  1  0  0  0  0  0  0  0  0  0
    2.8330   -3.2230   43.8770 C   0  0  0  0  0  0  0  0  0  0  0  0
    4.1170   -3.9000   45.9480 C   0  0  0  0  0  0  0  0  0  0  0  0
    5.2640   -3.2910   46.2940 C   0  0  0  0  0  0  0  0  0  0  0  0
    6.3230   -2.8670   45.4070 C   0  0  0  0  0  0  0  0  0  0  0  0
    6.3190   -1.7440   44.6770 C   0  0  0  0  0  0  0  0  0  0  0  0
    5.3800   -0.7450   44.6150 N   0  0  0  0  0  0  0  0  0  0  0  0
    0.7420   -3.9830   42.6730 C   0  0  0  0  0  0  0  0  0  0  0  0
    0.0190   -3.3890   41.7100 C   0  0  0  0  0  0  0  0  0  0  0  0
   -0.4220   -2.0140   41.6830 C   0  0  0  0  0  0  0  0  0  0  0  0
    0.3510   -0.9330   41.4830 C   0  0  0  0  0  0  0  0  0  0  0  0
    1.8260   -0.8640   41.2510 C   0  0  0  0  0  0  0  0  0  0  0  0
  1  6  1  1
  1  2  1  0
  1  7  1  0
  2  3  1  0
  3  4  1  0
  5  4  1  1
  5 12  1  0
  5  6  1  0
  7  8  2  3
  8  9  1  0
  9 10  2  3
 10 11  1  0
 12 13  2  3
 13 14  1  0
 14 15  2  3
 15 16  1  0
M  END
>  <vina_dock>  (977) 
-6.633

$$$$
O14757_PocketFlow_idx-in-all-generaetd-818
     RDKit          3D

 16 18  0  0  0  0  0  0  0  0999 V2000
    1.1380   -2.3440   42.1190 C   0  0  0  0  0  0  0  0  0  0  0  0
    1.1600   -3.3850   43.0420 C   0  0  0  0  0  0  0  0  0  0  0  0
    2.2320   -1.4850   42.0110 C   0  0  0  0  0  0  0  0  0  0  0  0
    3.3640   -1.6580   42.8250 C   0  0  0  0  0  0  0  0  0  0  0  0
    3.3870   -2.7140   43.7620 C   0  0  0  0  0  0  0  0  0  0  0  0
    2.2770   -3.5690   43.8580 C   0  0  0  0  0  0  0  0  0  0  0  0
    4.4720   -0.8050   42.7280 C   0  0  0  0  0  0  0  0  0  0  0  0
    5.5910   -0.9920   43.5460 C   0  0  0  0  0  0  0  0  0  0  0  0
    5.6340   -2.0340   44.4850 C   0  0  0  0  0  0  0  0  0  0  0  0
    4.5190   -2.8850   44.5790 C   0  0  0  0  0  0  0  0  0  0  0  0
    6.8110   -2.2270   45.3470 C   0  0  0  0  0  0  0  0  0  0  0  0
    6.9600   -3.3930   46.1170 C   0  0  0  0  0  0  0  0  0  0  0  0
    7.8200   -1.2530   45.4230 C   0  0  0  0  0  0  0  0  0  0  0  0
    8.0770   -3.5770   46.9370 C   0  0  0  0  0  0  0  0  0  0  0  0
    8.9390   -1.4370   46.2410 C   0  0  0  0  0  0  0  0  0  0  0  0
    9.0660   -2.5990   46.9980 C   0  0  0  0  0  0  0  0  0  0  0  0
  1  3  2  0
  1  2  1  0
  2  6  2  0
  3  4  1  0
  4  7  2  0
  4  5  1  0
  5  6  1  0
  5 10  2  0
  7  8  1  0
  8  9  2  0
  9 10  1  0
  9 11  1  0
 11 13  1  0
 11 12  2  0
 12 14  1  0
 13 15  2  0
 14 16  2  0
 15 16  1  0
M  END
>  <vina_dock>  (978) 
-8.696

$$$$
O14757_PocketFlow_idx-in-all-generaetd-336
     RDKit          3D

 35 37  0  0  0  0  0  0  0  0999 V2000
    0.6750   -2.0470   41.9980 C   0  0  0  0  0  0  0  0  0  0  0  0
    1.9420   -1.6130   41.9040 C   0  0  0  0  0  0  0  0  0  0  0  0
    0.2880   -3.4960   42.1150 C   0  0  0  0  0  0  0  0  0  0  0  0
    1.0200   -4.1820   43.2710 C   0  0  0  0  0  0  0  0  0  0  0  0
    0.1580   -5.0950   44.0000 N   0  0  0  0  0  0  0  0  0  0  0  0
    0.6100   -6.3320   44.4080 C   0  0  0  0  0  0  0  0  0  0  0  0
    1.7530   -6.7290   44.2110 O   0  0  0  0  0  0  0  0  0  0  0  0
   -0.3780   -7.2180   45.0870 C   0  0  0  0  0  0  0  0  0  0  0  0
   -1.1310   -8.5510   46.9760 C   0  0  0  0  0  0  0  0  0  0  0  0
   -0.1690   -7.7220   46.3750 C   0  0  0  0  0  0  0  0  0  0  0  0
   -2.2880   -8.8960   46.2670 C   0  0  0  0  0  0  0  0  0  0  0  0
   -2.4920   -8.4060   44.9750 C   0  0  0  0  0  0  0  0  0  0  0  0
   -1.5410   -7.5690   44.3890 C   0  0  0  0  0  0  0  0  0  0  0  0
   -0.8540   -9.0540   48.3480 C   0  0  0  0  0  0  0  0  0  0  0  0
    0.3400   -8.7240   48.9260 N   0  0  0  0  0  0  0  0  0  0  0  0
   -1.6510   -9.7740   48.9360 O   0  0  0  0  0  0  0  0  0  0  0  0
    2.4120   -0.1860   41.7950 C   0  0  0  0  0  0  0  0  0  0  0  0
    3.5880    0.2610   42.6760 C   0  0  0  0  0  0  0  0  0  0  0  0
    4.8770   -0.5500   42.4870 C   0  0  0  0  0  0  0  0  0  0  0  0
    5.2340   -1.4080   43.6770 C   0  0  0  0  0  0  0  0  0  0  0  0
    4.4600   -2.5270   44.0050 C   0  0  0  0  0  0  0  0  0  0  0  0
    6.3330   -1.0860   44.4820 C   0  0  0  0  0  0  0  0  0  0  0  0
    4.7600   -3.3160   45.1260 C   0  0  0  0  0  0  0  0  0  0  0  0
    6.6670   -1.8710   45.5910 C   0  0  0  0  0  0  0  0  0  0  0  0
    5.8700   -2.9900   45.9360 C   0  0  0  0  0  0  0  0  0  0  0  0
    3.9610   -4.4220   45.4560 C   0  0  0  0  0  0  0  0  0  0  0  0
    6.1360   -3.8050   47.0620 C   0  0  0  0  0  0  0  0  0  0  0  0
    4.2430   -5.2080   46.5750 C   0  0  0  0  0  0  0  0  0  0  0  0
    5.3420   -4.9190   47.3900 C   0  0  0  0  0  0  0  0  0  0  0  0
    7.7200   -1.5800   46.4260 O   0  0  0  0  0  0  0  0  0  0  0  0
    9.0390   -1.7680   45.9110 C   0  0  0  0  0  0  0  0  0  0  0  0
    9.7410   -2.8740   46.6780 C   0  0  0  0  0  0  0  0  0  0  0  0
    5.6670   -5.7240   48.6340 C   0  0  2  0  0  0  0  0  0  0  0  0
    7.1400   -5.6700   49.0450 C   0  0  0  0  0  0  0  0  0  0  0  0
    5.2620   -7.1200   48.4510 N   0  0  0  0  0  0  0  0  0  0  0  0
  1  2  2  3
  1  3  1  0
  2 17  1  0
  3  4  1  0
  4  5  1  0
  5  6  1  0
  6  7  2  0
  6  8  1  0
  8 13  1  0
  8 10  2  0
  9 11  2  0
  9 10  1  0
  9 14  1  0
 11 12  1  0
 12 13  2  0
 14 15  1  0
 14 16  2  0
 17 18  1  0
 18 19  1  0
 19 20  1  0
 20 21  2  0
 20 22  1  0
 21 23  1  0
 22 24  2  0
 23 26  2  0
 23 25  1  0
 24 25  1  0
 24 30  1  0
 25 27  2  0
 26 28  1  0
 27 29  1  0
 28 29  2  0
 29 33  1  0
 30 31  1  0
 31 32  1  0
 33 35  1  0
 33 34  1  6
M  END
>  <vina_dock>  (979) 
-8.766

$$$$
O14757_PocketFlow_idx-in-all-generaetd-628
     RDKit          3D

 33 36  0  0  0  0  0  0  0  0999 V2000
    8.5600   -2.4020   46.3670 C   0  0  0  0  0  0  0  0  0  0  0  0
    8.3500   -1.4660   45.3510 C   0  0  0  0  0  0  0  0  0  0  0  0
    7.0900   -1.3310   44.7680 C   0  0  0  0  0  0  0  0  0  0  0  0
    6.0200   -2.1270   45.1950 C   0  0  0  0  0  0  0  0  0  0  0  0
    6.1960   -3.0500   46.2530 C   0  0  0  0  0  0  0  0  0  0  0  0
    7.4790   -3.1810   46.8130 C   0  0  0  0  0  0  0  0  0  0  0  0
    4.9940   -3.8590   46.7550 C   0  0  1  0  0  0  0  0  0  0  0  0
    4.7330   -1.9740   44.4960 C   0  0  0  0  0  0  0  0  0  0  0  0
    4.0220   -3.0340   44.0610 C   0  0  0  0  0  0  0  0  0  0  0  0
    4.5090   -4.4540   44.2520 C   0  0  0  0  0  0  0  0  0  0  0  0
    4.5500   -4.9160   45.7170 C   0  0  0  0  0  0  0  0  0  0  0  0
    9.9320   -2.5700   46.9780 C   0  0  0  0  0  0  0  0  0  0  0  0
    9.9030   -2.7590   48.5090 C   0  0  1  0  0  0  0  0  0  0  0  0
   11.2390   -3.2530   49.0670 C   0  0  1  0  0  0  0  0  0  0  0  0
   12.0410   -1.9660   49.2860 C   0  0  0  0  0  0  0  0  0  0  0  0
   10.9870   -4.1080   50.6260 Cl  0  0  0  0  0  0  0  0  0  0  0  0
    9.7470   -1.4170   49.2210 C   0  0  0  0  0  0  0  0  0  0  0  0
   11.0920   -0.8350   49.2890 N   0  0  0  0  0  0  0  0  0  0  0  0
    5.1870   -4.4770   48.1650 C   0  0  0  0  0  0  0  0  0  0  0  0
    5.7720   -5.8990   48.1850 C   0  0  0  0  0  0  0  0  0  0  0  0
    6.6590   -6.1760   49.3660 C   0  0  0  0  0  0  0  0  0  0  0  0
    7.9890   -6.3330   49.3570 C   0  0  0  0  0  0  0  0  0  0  0  0
    8.9410   -6.2870   47.9250 Cl  0  0  0  0  0  0  0  0  0  0  0  0
    8.6090   -6.5580   50.5360 F   0  0  0  0  0  0  0  0  0  0  0  0
    2.7230   -2.8300   43.3890 C   0  0  0  0  0  0  0  0  0  0  0  0
    1.6210   -3.6330   43.7110 C   0  0  0  0  0  0  0  0  0  0  0  0
    2.5720   -1.8390   42.4080 C   0  0  0  0  0  0  0  0  0  0  0  0
    0.3890   -3.4470   43.0710 C   0  0  0  0  0  0  0  0  0  0  0  0
    1.3440   -1.6520   41.7660 C   0  0  0  0  0  0  0  0  0  0  0  0
    0.2480   -2.4560   42.0950 C   0  0  0  0  0  0  0  0  0  0  0  0
   -1.0350   -2.2220   41.3880 C   0  0  0  0  0  0  0  0  0  0  0  0
   -1.6190   -1.1580   41.3040 O   0  0  0  0  0  0  0  0  0  0  0  0
   -1.5270   -3.3360   40.8170 O   0  0  0  0  0  0  0  0  0  0  0  0
  1  2  2  0
  1  6  1  0
  1 12  1  0
  2  3  1  0
  3  4  2  0
  4  8  1  0
  4  5  1  0
  5  7  1  0
  5  6  2  0
  7 11  1  0
  7 19  1  1
  8  9  2  0
  9 25  1  0
  9 10  1  0
 10 11  1  0
 13 12  1  6
 13 14  1  0
 13 17  1  0
 14 15  1  0
 14 16  1  1
 15 18  1  0
 17 18  1  0
 19 20  1  0
 20 21  1  0
 21 22  2  3
 22 23  1  0
 22 24  1  0
 25 27  1  0
 25 26  2  0
 26 28  1  0
 27 29  2  0
 28 30  2  0
 29 30  1  0
 30 31  1  0
 31 33  1  0
 31 32  2  0
M  END
>  <vina_dock>  (980) 
-8.378

$$$$
O14757_PocketFlow_idx-in-all-generaetd-816
     RDKit          3D

 14 15  0  0  0  0  0  0  0  0999 V2000
    4.3570   -1.5440   43.4080 C   0  0  0  0  0  0  0  0  0  0  0  0
    4.7300   -0.4300   42.7490 C   0  0  0  0  0  0  0  0  0  0  0  0
    5.2960   -2.1120   44.4090 C   0  0  0  0  0  0  0  0  0  0  0  0
    5.8520   -3.7420   46.1260 C   0  0  0  0  0  0  0  0  0  0  0  0
    7.0840   -3.1240   46.3260 C   0  0  0  0  0  0  0  0  0  0  0  0
    4.9600   -3.2370   45.1760 C   0  0  0  0  0  0  0  0  0  0  0  0
    7.4250   -1.9980   45.5790 C   0  0  0  0  0  0  0  0  0  0  0  0
    6.5350   -1.4930   44.6270 C   0  0  0  0  0  0  0  0  0  0  0  0
    3.0310   -2.1340   43.0940 C   0  0  0  0  0  0  0  0  0  0  0  0
    2.5000   -3.1900   43.8490 C   0  0  0  0  0  0  0  0  0  0  0  0
    2.3020   -1.6570   41.9960 C   0  0  0  0  0  0  0  0  0  0  0  0
    1.2590   -3.7430   43.5230 C   0  0  0  0  0  0  0  0  0  0  0  0
    1.0620   -2.2100   41.6700 C   0  0  0  0  0  0  0  0  0  0  0  0
    0.5400   -3.2520   42.4360 C   0  0  0  0  0  0  0  0  0  0  0  0
  1  2  2  0
  1  9  1  0
  1  3  1  0
  3  8  2  0
  3  6  1  0
  4  6  2  0
  4  5  1  0
  5  7  2  0
  7  8  1  0
  9 11  1  0
  9 10  2  0
 10 12  1  0
 11 13  2  0
 12 14  2  0
 13 14  1  0
M  END
>  <vina_dock>  (981) 
-7.568

$$$$
O14757_PocketFlow_idx-in-all-generaetd-817
     RDKit          3D

 25 28  0  0  0  0  0  0  0  0999 V2000
   -0.8680   -7.0810   45.6640 C   0  0  0  0  0  0  0  0  0  0  0  0
   -0.4810   -5.9920   46.4570 C   0  0  0  0  0  0  0  0  0  0  0  0
    0.3130   -4.9710   45.9280 C   0  0  0  0  0  0  0  0  0  0  0  0
    0.7440   -5.0200   44.5970 C   0  0  0  0  0  0  0  0  0  0  0  0
    0.3620   -6.1110   43.8060 C   0  0  0  0  0  0  0  0  0  0  0  0
   -0.4290   -7.1330   44.3350 C   0  0  0  0  0  0  0  0  0  0  0  0
   -1.7360   -8.1720   46.2440 C   0  0  0  0  0  0  0  0  0  0  0  0
   -1.0090   -9.3560   46.8910 C   0  0  1  0  0  0  0  0  0  0  0  0
    0.2570   -9.2340   48.8610 C   0  0  0  0  0  0  0  0  0  0  0  0
    0.4130   -9.1020   47.3770 C   0  0  0  0  0  0  0  0  0  0  0  0
   -0.9600   -9.7220   49.2320 N   0  0  0  0  0  0  0  0  0  0  0  0
    1.1570   -8.9590   49.7340 N   0  0  0  0  0  0  0  0  0  0  0  0
   -1.6720   -9.8000   48.1610 C   0  0  0  0  0  0  0  0  0  0  0  0
    1.5910   -3.9100   44.0170 C   0  0  0  0  0  0  0  0  0  0  0  0
    2.9540   -3.7690   44.6570 C   0  0  0  0  0  0  0  0  0  0  0  0
    3.3450   -4.6150   45.6960 C   0  0  0  0  0  0  0  0  0  0  0  0
    3.8460   -2.7760   44.2280 C   0  0  0  0  0  0  0  0  0  0  0  0
    4.6040   -4.4750   46.2880 C   0  0  0  0  0  0  0  0  0  0  0  0
    5.1160   -2.6260   44.8140 C   0  0  0  0  0  0  0  0  0  0  0  0
    5.5170   -3.4840   45.8660 C   0  0  0  0  0  0  0  0  0  0  0  0
    5.9880   -1.6270   44.3580 C   0  0  0  0  0  0  0  0  0  0  0  0
    6.8050   -3.3100   46.4430 C   0  0  0  0  0  0  0  0  0  0  0  0
    7.2470   -1.4630   44.9270 C   0  0  0  0  0  0  0  0  0  0  0  0
    7.2960   -4.1870   47.5650 C   0  0  0  0  0  0  0  0  0  0  0  0
    7.6540   -2.2990   45.9630 C   0  0  0  0  0  0  0  0  0  0  0  0
  1  6  1  0
  1  7  1  0
  1  2  2  0
  2  3  1  0
  3  4  2  0
  4  5  1  0
  4 14  1  0
  5  6  2  0
  8  7  1  1
  8 10  1  0
  8 13  1  0
  9 10  1  0
  9 11  2  0
  9 12  1  0
 11 13  1  0
 14 15  1  0
 15 17  1  0
 15 16  2  0
 16 18  1  0
 17 19  2  0
 18 20  2  0
 19 21  1  0
 19 20  1  0
 20 22  1  0
 21 23  2  0
 22 25  2  0
 22 24  1  0
 23 25  1  0
M  END
>  <vina_dock>  (982) 
-9.242

$$$$
O14757_PocketFlow_idx-in-all-generaetd-987
     RDKit          3D

 34 37  0  0  0  0  0  0  0  0999 V2000
    4.6160   -0.2650   42.5330 C   0  0  0  0  0  0  0  0  0  0  0  0
    5.3130   -0.1420   43.8030 N   0  0  0  0  0  0  0  0  0  0  0  0
    4.8970   -1.1620   44.7790 C   0  0  0  0  0  0  0  0  0  0  0  0
    5.5240   -2.5770   44.5990 C   0  0  2  0  0  0  0  0  0  0  0  0
    3.5560   -3.9670   45.3730 C   0  0  2  0  0  0  0  0  0  0  0  0
    4.4450   -3.5940   44.1860 C   0  0  0  0  0  0  0  0  0  0  0  0
    4.3910   -4.6590   46.4540 C   0  0  0  0  0  0  0  0  0  0  0  0
    5.7180   -3.9830   46.7480 C   0  0  0  0  0  0  0  0  0  0  0  0
    6.2630   -3.0360   45.8520 C   0  0  0  0  0  0  0  0  0  0  0  0
    6.4540   -4.3440   47.9000 C   0  0  0  0  0  0  0  0  0  0  0  0
    7.5260   -2.4800   46.1240 C   0  0  0  0  0  0  0  0  0  0  0  0
    7.7110   -3.7620   48.1410 C   0  0  0  0  0  0  0  0  0  0  0  0
    8.2660   -2.8220   47.2640 C   0  0  0  0  0  0  0  0  0  0  0  0
    2.3980   -4.8430   44.9520 C   0  0  0  0  0  0  0  0  0  0  0  0
    2.4050   -6.1290   45.3210 N   0  0  0  0  0  0  0  0  0  0  0  0
    1.4270   -4.2710   44.2320 N   0  0  0  0  0  0  0  0  0  0  0  0
    1.3510   -6.8340   44.9110 C   0  0  0  0  0  0  0  0  0  0  0  0
    0.4300   -5.0850   43.8870 C   0  0  0  0  0  0  0  0  0  0  0  0
    0.3310   -6.3750   44.1920 N   0  0  0  0  0  0  0  0  0  0  0  0
    5.9570   -5.3560   48.8450 C   0  0  0  0  0  0  0  0  0  0  0  0
    6.4390   -6.6040   48.8980 C   0  0  0  0  0  0  0  0  0  0  0  0
    9.5800   -2.2110   47.5290 C   0  0  0  0  0  0  0  0  0  0  0  0
    9.8960   -1.6820   48.7920 C   0  0  0  0  0  0  0  0  0  0  0  0
   10.5600   -2.1400   46.5220 C   0  0  0  0  0  0  0  0  0  0  0  0
   11.1440   -1.1020   49.0400 C   0  0  0  0  0  0  0  0  0  0  0  0
   11.8080   -1.5590   46.7690 C   0  0  0  0  0  0  0  0  0  0  0  0
   12.0990   -1.0410   48.0280 C   0  0  0  0  0  0  0  0  0  0  0  0
    3.3810    0.4590   42.3550 N   0  0  0  0  0  0  0  0  0  0  0  0
    2.2040   -0.0950   41.9220 C   0  0  0  0  0  0  0  0  0  0  0  0
    1.8850   -1.3930   41.9640 C   0  0  0  0  0  0  0  0  0  0  0  0
    0.5800   -1.9520   41.4780 C   0  0  0  0  0  0  0  0  0  0  0  0
   -0.5100   -0.9200   41.5460 C   0  0  0  0  0  0  0  0  0  0  0  0
   -1.8010   -1.0580   41.1990 C   0  0  0  0  0  0  0  0  0  0  0  0
   -2.4750   -2.2680   40.6420 C   0  0  0  0  0  0  0  0  0  0  0  0
  1 28  1  0
  1  2  1  0
  2  3  1  0
  4  3  1  1
  4  6  1  0
  4  9  1  0
  5  6  1  0
  5 14  1  6
  5  7  1  0
  7  8  1  0
  8  9  2  0
  8 10  1  0
  9 11  1  0
 10 12  2  0
 10 20  1  0
 11 13  2  0
 12 13  1  0
 13 22  1  0
 14 16  1  0
 14 15  2  0
 15 17  1  0
 16 18  2  0
 17 19  2  0
 18 19  1  0
 20 21  2  0
 22 24  1  0
 22 23  2  0
 23 25  1  0
 24 26  2  0
 25 27  2  0
 26 27  1  0
 28 29  1  0
 29 30  2  3
 30 31  1  0
 31 32  1  0
 32 33  2  3
 33 34  1  0
M  END
>  <vina_dock>  (983) 
-8.502

$$$$
O14757_PocketFlow_idx-in-all-generaetd-863
     RDKit          3D

 11 11  0  0  0  0  0  0  0  0999 V2000
    2.2400   -4.6380   45.1170 C   0  0  0  0  0  0  0  0  0  0  0  0
    0.8980   -4.6240   45.7930 C   0  0  0  0  0  0  0  0  0  0  0  0
    0.1240   -5.7050   45.9330 C   0  0  0  0  0  0  0  0  0  0  0  0
   -1.0970   -5.7460   46.5490 N   0  0  0  0  0  0  0  0  0  0  0  0
    2.2550   -3.7280   43.8860 C   0  0  0  0  0  0  0  0  0  0  0  0
    3.4650   -2.8270   43.8720 C   0  0  0  0  0  0  0  0  0  0  0  0
    3.5780   -1.8010   42.9230 C   0  0  0  0  0  0  0  0  0  0  0  0
    4.4790   -2.9840   44.8270 C   0  0  0  0  0  0  0  0  0  0  0  0
    4.6880   -0.9560   42.9240 C   0  0  0  0  0  0  0  0  0  0  0  0
    5.5890   -2.1380   44.8250 C   0  0  0  0  0  0  0  0  0  0  0  0
    5.6940   -1.1250   43.8730 C   0  0  0  0  0  0  0  0  0  0  0  0
  1  5  1  0
  1  2  1  0
  2  3  2  3
  3  4  1  0
  5  6  1  0
  6  7  2  0
  6  8  1  0
  7  9  1  0
  8 10  2  0
  9 11  2  0
 10 11  1  0
M  END
>  <vina_dock>  (984) 
-5.89

$$$$
O14757_PocketFlow_idx-in-all-generaetd-416
     RDKit          3D

 10 10  0  0  0  0  0  0  0  0999 V2000
    4.3800   -2.2220   43.7980 C   0  0  0  0  0  0  0  0  0  0  0  0
    3.7260   -1.4740   42.8150 C   0  0  0  0  0  0  0  0  0  0  0  0
    2.4510   -1.8500   42.3770 C   0  0  0  0  0  0  0  0  0  0  0  0
    1.8280   -2.9800   42.9210 C   0  0  0  0  0  0  0  0  0  0  0  0
    2.4860   -3.7280   43.9050 C   0  0  0  0  0  0  0  0  0  0  0  0
    3.7580   -3.3500   44.3430 C   0  0  0  0  0  0  0  0  0  0  0  0
    1.7020   -0.8790   41.1600 Cl  0  0  0  0  0  0  0  0  0  0  0  0
    0.2590   -3.5030   42.4290 Cl  0  0  0  0  0  0  0  0  0  0  0  0
    5.6870   -1.8350   44.2470 C   0  0  0  0  0  0  0  0  0  0  0  0
    6.7430   -1.5220   44.6100 N   0  0  0  0  0  0  0  0  0  0  0  0
  1  2  2  0
  1  9  1  0
  1  6  1  0
  2  3  1  0
  3  7  1  0
  3  4  2  0
  4  8  1  0
  4  5  1  0
  5  6  2  0
  9 10  3  0
M  END
>  <vina_dock>  (985) 
-5.344

$$$$
O14757_PocketFlow_idx-in-all-generaetd-165
     RDKit          3D

 13 13  0  0  0  0  0  0  0  0999 V2000
    0.7990   -3.5370   43.8660 C   0  0  0  0  0  0  0  0  0  0  0  0
    1.9660   -3.6970   44.5160 C   0  0  0  0  0  0  0  0  0  0  0  0
    0.5050   -3.7310   42.4070 C   0  0  0  0  0  0  0  0  0  0  0  0
    1.0370   -2.5870   41.5940 C   0  0  0  0  0  0  0  0  0  0  0  0
    0.9730   -1.2990   41.9690 C   0  0  0  0  0  0  0  0  0  0  0  0
    1.4990   -0.1650   41.1510 C   0  0  0  0  0  0  0  0  0  0  0  0
    3.3390   -4.0540   43.9850 C   0  0  2  0  0  0  0  0  0  0  0  0
    3.8620   -5.3860   44.5380 C   0  0  0  0  0  0  0  0  0  0  0  0
    4.3410   -2.9470   44.1010 C   0  0  0  0  0  0  0  0  0  0  0  0
    5.4090   -2.7510   44.9090 C   0  0  0  0  0  0  0  0  0  0  0  0
    4.3370   -1.7380   43.3070 C   0  0  0  0  0  0  0  0  0  0  0  0
    6.0620   -1.5420   44.6620 N   0  0  0  0  0  0  0  0  0  0  0  0
    5.3740   -1.1400   43.7990 C   0  0  0  0  0  0  0  0  0  0  0  0
  1  3  1  0
  1  2  2  3
  2  7  1  0
  3  4  1  0
  4  5  2  3
  5  6  1  0
  7  9  1  0
  7  8  1  1
  9 11  2  0
  9 10  1  0
 10 12  1  0
 11 13  1  0
 12 13  2  0
M  END
>  <vina_dock>  (986) 
-6.033

$$$$
O14757_PocketFlow_idx-in-all-generaetd-607
     RDKit          3D

 25 26  0  0  0  0  0  0  0  0999 V2000
    3.8910   -0.8160   42.9400 C   0  0  0  0  0  0  0  0  0  0  0  0
    2.9240   -1.5980   42.3400 N   0  0  0  0  0  0  0  0  0  0  0  0
    4.0240    0.3830   42.7320 O   0  0  0  0  0  0  0  0  0  0  0  0
    4.8260   -1.5200   43.8590 C   0  0  0  0  0  0  0  0  0  0  0  0
    5.2180   -3.3880   45.3920 C   0  0  0  0  0  0  0  0  0  0  0  0
    6.5210   -2.9090   45.6260 C   0  0  0  0  0  0  0  0  0  0  0  0
    4.3770   -2.6730   44.5160 C   0  0  0  0  0  0  0  0  0  0  0  0
    6.9790   -1.7930   44.9130 C   0  0  0  0  0  0  0  0  0  0  0  0
    6.1400   -1.0910   44.0460 C   0  0  0  0  0  0  0  0  0  0  0  0
    4.6720   -4.6420   46.0490 C   0  0  0  0  0  0  0  0  0  0  0  0
    3.2660   -5.0190   45.6340 C   0  0  0  0  0  0  0  0  0  0  0  0
    0.8530   -4.6790   45.8270 C   0  0  0  0  0  0  0  0  0  0  0  0
    0.6550   -5.6330   44.8270 C   0  0  0  0  0  0  0  0  0  0  0  0
    2.1630   -4.3410   46.1820 C   0  0  0  0  0  0  0  0  0  0  0  0
    1.7380   -6.3060   44.2620 C   0  0  0  0  0  0  0  0  0  0  0  0
    3.0380   -6.0050   44.6650 C   0  0  0  0  0  0  0  0  0  0  0  0
   -0.2240   -3.9190   46.2990 N   0  0  0  0  0  0  0  0  0  0  0  0
    7.4700   -3.6300   46.3770 N   0  0  0  0  0  0  0  0  0  0  0  0
    2.0090   -1.0490   41.3590 C   0  0  0  0  0  0  0  0  0  0  0  0
    0.5480   -1.0810   41.8120 C   0  0  0  0  0  0  0  0  0  0  0  0
   -0.3050   -2.2250   41.2250 C   0  0  1  0  0  0  0  0  0  0  0  0
    0.0300   -3.5430   41.9320 C   0  0  0  0  0  0  0  0  0  0  0  0
   -1.8210   -1.9780   41.1970 C   0  0  0  0  0  0  0  0  0  0  0  0
   -2.2800   -0.5380   41.2380 C   0  0  0  0  0  0  0  0  0  0  0  0
   -3.4330   -0.1560   41.0670 O   0  0  0  0  0  0  0  0  0  0  0  0
  1  2  1  0
  1  3  2  0
  1  4  1  0
  2 19  1  0
  4  9  2  0
  4  7  1  0
  5  7  2  0
  5  6  1  0
  5 10  1  0
  6  8  2  0
  6 18  1  0
  8  9  1  0
 10 11  1  0
 11 16  1  0
 11 14  2  0
 12 13  2  0
 12 14  1  0
 12 17  1  0
 13 15  1  0
 15 16  2  0
 19 20  1  0
 20 21  1  0
 21 23  1  0
 21 22  1  1
 23 24  1  0
 24 25  2  0
M  END
>  <vina_dock>  (987) 
-7.967

$$$$
O14757_PocketFlow_idx-in-all-generaetd-495
     RDKit          3D

 16 17  0  0  0  0  0  0  0  0999 V2000
    0.8670   -4.0730   44.7820 C   0  0  0  0  0  0  0  0  0  0  0  0
    0.7830   -5.3390   45.2240 C   0  0  0  0  0  0  0  0  0  0  0  0
    0.7400   -3.6080   43.4160 C   0  0  0  0  0  0  0  0  0  0  0  0
    1.6730   -2.9400   42.7170 C   0  0  0  0  0  0  0  0  0  0  0  0
    2.9910   -2.5250   43.2070 C   0  0  0  0  0  0  0  0  0  0  0  0
    3.5840   -1.3700   42.6980 C   0  0  0  0  0  0  0  0  0  0  0  0
    3.6560   -3.2690   44.1880 C   0  0  0  0  0  0  0  0  0  0  0  0
    4.8380   -0.9620   43.1600 C   0  0  0  0  0  0  0  0  0  0  0  0
    4.9180   -2.8720   44.6630 C   0  0  0  0  0  0  0  0  0  0  0  0
    5.5170   -1.7020   44.1410 C   0  0  0  0  0  0  0  0  0  0  0  0
    5.5970   -3.6120   45.6440 C   0  0  0  0  0  0  0  0  0  0  0  0
    6.7780   -1.3070   44.6150 C   0  0  0  0  0  0  0  0  0  0  0  0
    6.8490   -3.2050   46.1050 C   0  0  0  0  0  0  0  0  0  0  0  0
    7.4400   -2.0540   45.5910 C   0  0  0  0  0  0  0  0  0  0  0  0
    0.5350   -6.5300   44.4430 C   0  0  0  0  0  0  0  0  0  0  0  0
   -0.6570   -7.1390   44.4120 C   0  0  0  0  0  0  0  0  0  0  0  0
  1  3  1  0
  1  2  2  3
  2 15  1  0
  3  4  2  3
  4  5  1  0
  5  6  2  0
  5  7  1  0
  6  8  1  0
  7  9  2  0
  8 10  2  0
  9 10  1  0
  9 11  1  0
 10 12  1  0
 11 13  2  0
 12 14  2  0
 13 14  1  0
 15 16  2  0
M  END
>  <vina_dock>  (988) 
-8.016

$$$$
O14757_PocketFlow_idx-in-all-generaetd-776
     RDKit          3D

 35 38  0  0  0  0  0  0  0  0999 V2000
    6.5520   -3.7290   47.1140 N   0  0  0  0  0  0  0  0  0  0  0  0
    6.7500   -3.4100   48.4440 C   0  0  0  0  0  0  0  0  0  0  0  0
    6.4500   -4.5080   49.2230 C   0  0  0  0  0  0  0  0  0  0  0  0
    6.0170   -5.5550   48.3610 C   0  0  0  0  0  0  0  0  0  0  0  0
    6.0870   -5.0320   47.0810 C   0  0  0  0  0  0  0  0  0  0  0  0
    6.7420   -2.8980   45.9860 C   0  0  0  0  0  0  0  0  0  0  0  0
    7.8740   -2.4570   45.7950 O   0  0  0  0  0  0  0  0  0  0  0  0
    5.6840   -2.5380   45.0150 C   0  0  0  0  0  0  0  0  0  0  0  0
    3.4610   -2.9690   44.1250 C   0  0  0  0  0  0  0  0  0  0  0  0
    3.6690   -1.9440   43.1880 C   0  0  0  0  0  0  0  0  0  0  0  0
    4.4870   -3.2670   45.0320 C   0  0  0  0  0  0  0  0  0  0  0  0
    4.8720   -1.2350   43.1530 C   0  0  0  0  0  0  0  0  0  0  0  0
    5.8850   -1.5350   44.0630 C   0  0  0  0  0  0  0  0  0  0  0  0
    2.1980   -3.7440   44.1340 C   0  0  0  0  0  0  0  0  0  0  0  0
    2.0740   -4.7830   44.9820 C   0  0  0  0  0  0  0  0  0  0  0  0
    1.1360   -3.2900   43.1650 C   0  0  0  0  0  0  0  0  0  0  0  0
    0.8880   -5.6380   45.0850 C   0  0  0  0  0  0  0  0  0  0  0  0
    0.1760   -5.7200   46.2880 C   0  0  0  0  0  0  0  0  0  0  0  0
    0.4670   -6.3790   43.9740 C   0  0  0  0  0  0  0  0  0  0  0  0
   -0.9450   -6.5420   46.3640 C   0  0  0  0  0  0  0  0  0  0  0  0
   -0.6590   -7.2010   44.0650 C   0  0  0  0  0  0  0  0  0  0  0  0
   -1.3670   -7.2820   45.2640 C   0  0  0  0  0  0  0  0  0  0  0  0
   -1.6690   -6.6510   47.5160 O   0  0  0  0  0  0  0  0  0  0  0  0
    5.5730   -6.9160   48.6640 C   0  0  0  0  0  0  0  0  0  0  0  0
    5.4200   -7.3130   49.8150 O   0  0  0  0  0  0  0  0  0  0  0  0
    5.3570   -7.7110   47.5620 N   0  0  0  0  0  0  0  0  0  0  0  0
    5.0750   -9.1210   47.6910 C   0  0  0  0  0  0  0  0  0  0  0  0
    3.5900   -9.3710   47.6360 C   0  0  0  0  0  0  0  0  0  0  0  0
    2.8800   -9.1400   46.4500 C   0  0  0  0  0  0  0  0  0  0  0  0
    2.8910   -9.8020   48.7720 C   0  0  0  0  0  0  0  0  0  0  0  0
    1.5000   -9.3450   46.3980 C   0  0  0  0  0  0  0  0  0  0  0  0
    1.5100  -10.0080   48.7180 C   0  0  0  0  0  0  0  0  0  0  0  0
    0.8000   -9.7740   47.5330 C   0  0  0  0  0  0  0  0  0  0  0  0
   -0.6860  -10.0210   47.4700 C   0  0  0  0  0  0  0  0  0  0  0  0
   -1.3720   -9.4180   48.6080 N   0  0  0  0  0  0  0  0  0  0  0  0
  1  6  1  0
  1  5  1  0
  1  2  1  0
  2  3  2  0
  3  4  1  0
  4  5  2  0
  4 24  1  0
  6  8  1  0
  6  7  2  0
  8 13  1  0
  8 11  2  0
  9 10  2  0
  9 14  1  0
  9 11  1  0
 10 12  1  0
 12 13  2  0
 14 16  1  0
 14 15  2  3
 15 17  1  0
 17 19  1  0
 17 18  2  0
 18 20  1  0
 19 21  2  0
 20 22  2  0
 20 23  1  0
 21 22  1  0
 24 26  1  0
 24 25  2  0
 26 27  1  0
 27 28  1  0
 28 29  2  0
 28 30  1  0
 29 31  1  0
 30 32  2  0
 31 33  2  0
 32 33  1  0
 33 34  1  0
 34 35  1  0
M  END
>  <vina_dock>  (989) 
-8.893

$$$$
O14757_PocketFlow_idx-in-all-generaetd-969
     RDKit          3D

 22 24  0  0  0  0  0  0  0  0999 V2000
    5.4880   -2.4250   45.5790 C   0  0  0  0  0  0  0  0  0  0  0  0
    6.7820   -2.1190   45.3450 C   0  0  0  0  0  0  0  0  0  0  0  0
    5.0490   -2.8970   46.8860 C   0  0  0  0  0  0  0  0  0  0  0  0
    5.7120   -3.8140   47.6100 C   0  0  0  0  0  0  0  0  0  0  0  0
    7.8640   -2.1680   46.3930 C   0  0  0  0  0  0  0  0  0  0  0  0
    6.9640   -4.4960   47.1230 C   0  0  0  0  0  0  0  0  0  0  0  0
    8.1930   -3.5680   46.9760 C   0  0  1  0  0  0  0  0  0  0  0  0
    4.5250   -2.2390   44.4720 C   0  0  0  0  0  0  0  0  0  0  0  0
    0.5480   -2.4840   41.3300 C   0  0  0  0  0  0  0  0  0  0  0  0
    0.3040   -3.4180   42.3320 C   0  0  0  0  0  0  0  0  0  0  0  0
    1.7180   -1.7210   41.3580 C   0  0  0  0  0  0  0  0  0  0  0  0
    1.2260   -3.5920   43.3650 C   0  0  0  0  0  0  0  0  0  0  0  0
    2.6570   -1.8850   42.3890 C   0  0  0  0  0  0  0  0  0  0  0  0
    2.4080   -2.8340   43.4070 C   0  0  0  0  0  0  0  0  0  0  0  0
    3.8370   -1.1250   42.4310 C   0  0  0  0  0  0  0  0  0  0  0  0
    3.3470   -2.9980   44.4400 C   0  0  0  0  0  0  0  0  0  0  0  0
    4.7610   -1.2990   43.4640 C   0  0  0  0  0  0  0  0  0  0  0  0
    9.3800   -4.1760   46.2410 C   0  0  0  0  0  0  0  0  0  0  0  0
   10.0310   -5.3160   46.5230 C   0  0  0  0  0  0  0  0  0  0  0  0
   11.1580   -5.7820   45.7470 C   0  0  0  0  0  0  0  0  0  0  0  0
   11.9620   -6.7740   46.1550 C   0  0  0  0  0  0  0  0  0  0  0  0
   13.1300   -7.2730   45.3680 C   0  0  0  0  0  0  0  0  0  0  0  0
  1  8  1  0
  1  2  2  0
  1  3  1  0
  2  5  1  0
  3  4  2  0
  4  6  1  0
  7  5  1  6
  6  7  1  0
  7 18  1  0
  8 17  2  0
  8 16  1  0
  9 11  2  0
  9 10  1  0
 10 12  2  0
 11 13  1  0
 12 14  1  0
 13 15  2  0
 13 14  1  0
 14 16  2  0
 15 17  1  0
 18 19  2  3
 19 20  1  0
 20 21  2  3
 21 22  1  0
M  END
>  <vina_dock>  (990) 
-8.634

$$$$
O14757_PocketFlow_idx-in-all-generaetd-769
     RDKit          3D

 15 15  0  0  0  0  0  0  0  0999 V2000
    1.2030   -4.7600   45.1860 C   0  0  0  0  0  0  0  0  0  0  0  0
    1.9650   -3.7570   44.3510 C   0  0  0  0  0  0  0  0  0  0  0  0
    3.3060   -3.4730   44.6320 C   0  0  0  0  0  0  0  0  0  0  0  0
    1.3460   -3.1210   43.2650 C   0  0  0  0  0  0  0  0  0  0  0  0
    4.0160   -2.5640   43.8490 C   0  0  0  0  0  0  0  0  0  0  0  0
    2.0480   -2.1960   42.4740 C   0  0  0  0  0  0  0  0  0  0  0  0
    3.3920   -1.9300   42.7740 C   0  0  0  0  0  0  0  0  0  0  0  0
    1.3790   -1.5330   41.2970 C   0  0  0  0  0  0  0  0  0  0  0  0
    1.6600   -0.2020   41.1980 F   0  0  0  0  0  0  0  0  0  0  0  0
    0.0190   -1.6190   41.3360 F   0  0  0  0  0  0  0  0  0  0  0  0
    1.7540   -2.0820   40.1100 F   0  0  0  0  0  0  0  0  0  0  0  0
    1.2770   -6.1700   44.5860 C   0  0  0  0  0  0  0  0  0  0  0  0
   -0.0150   -6.7630   44.0840 C   0  0  0  0  0  0  0  0  0  0  0  0
   -0.9670   -7.3760   44.8040 C   0  0  0  0  0  0  0  0  0  0  0  0
   -2.2230   -7.9360   44.2130 C   0  0  0  0  0  0  0  0  0  0  0  0
  1  2  1  0
  1 12  1  0
  2  4  2  0
  2  3  1  0
  3  5  2  0
  4  6  1  0
  5  7  1  0
  6  8  1  0
  6  7  2  0
  8 11  1  0
  8  9  1  0
  8 10  1  0
 12 13  1  0
 13 14  2  3
 14 15  1  0
M  END
>  <vina_dock>  (991) 
-7.337

$$$$
O14757_PocketFlow_idx-in-all-generaetd-276
     RDKit          3D

 35 36  0  0  0  0  0  0  0  0999 V2000
    4.9650   -1.8370   44.0920 C   0  0  0  0  0  0  0  0  0  0  0  0
    4.9760   -0.7030   43.2800 C   0  0  0  0  0  0  0  0  0  0  0  0
    3.8970   -0.4490   42.4300 C   0  0  0  0  0  0  0  0  0  0  0  0
    2.7860   -1.3180   42.3700 C   0  0  0  0  0  0  0  0  0  0  0  0
    2.7840   -2.4770   43.1810 C   0  0  0  0  0  0  0  0  0  0  0  0
    3.8840   -2.7240   44.0280 C   0  0  0  0  0  0  0  0  0  0  0  0
    6.0980   -2.1590   45.0070 C   0  0  0  0  0  0  0  0  0  0  0  0
    5.8580   -3.2020   45.8810 N   0  0  0  0  0  0  0  0  0  0  0  0
    7.1360   -1.5190   44.8870 O   0  0  0  0  0  0  0  0  0  0  0  0
    6.7180   -3.6920   46.8890 C   0  0  0  0  0  0  0  0  0  0  0  0
    8.8970   -4.2830   47.7900 C   0  0  0  0  0  0  0  0  0  0  0  0
    8.1070   -3.7950   46.7460 C   0  0  0  0  0  0  0  0  0  0  0  0
    8.2900   -4.6620   48.9900 C   0  0  0  0  0  0  0  0  0  0  0  0
    6.9100   -4.5610   49.1460 C   0  0  0  0  0  0  0  0  0  0  0  0
    6.1280   -4.0760   48.0990 C   0  0  0  0  0  0  0  0  0  0  0  0
   10.2570   -4.4300   47.7770 O   0  0  0  0  0  0  0  0  0  0  0  0
   10.7930   -5.7230   47.5350 C   0  0  0  0  0  0  0  0  0  0  0  0
   10.9650   -6.0840   46.0670 C   0  0  0  0  0  0  0  0  0  0  0  0
   11.5130   -5.4340   45.1910 O   0  0  0  0  0  0  0  0  0  0  0  0
   10.4330   -7.2920   45.7770 O   0  0  0  0  0  0  0  0  0  0  0  0
    1.6650   -3.5020   43.1540 C   0  0  0  0  0  0  0  0  0  0  0  0
    1.0010   -3.6530   44.4940 C   0  0  0  0  0  0  0  0  0  0  0  0
    1.2590   -4.5640   45.4470 C   0  0  0  0  0  0  0  0  0  0  0  0
    2.2950   -5.6540   45.4250 C   0  0  0  0  0  0  0  0  0  0  0  0
    1.6870   -6.9780   44.9420 C   0  0  0  0  0  0  0  0  0  0  0  0
    0.2620   -7.2630   45.4840 C   0  0  2  0  0  0  0  0  0  0  0  0
    0.2350   -8.6020   46.2970 C   0  0  0  0  0  0  0  0  0  0  0  0
   -0.3720   -8.4470   47.6970 C   0  0  0  0  0  0  0  0  0  0  0  0
    1.6350   -9.2150   46.4510 C   0  0  0  0  0  0  0  0  0  0  0  0
   -0.7670   -7.2660   44.3420 C   0  0  0  0  0  0  0  0  0  0  0  0
   -0.2020   -6.7660   43.2110 F   0  0  0  0  0  0  0  0  0  0  0  0
    1.6560   -0.9860   41.4160 C   0  0  0  0  0  0  0  0  0  0  0  0
    0.4310   -0.9790   42.0220 F   0  0  0  0  0  0  0  0  0  0  0  0
    1.7800    0.2420   40.8450 F   0  0  0  0  0  0  0  0  0  0  0  0
    1.5370   -1.8760   40.3920 F   0  0  0  0  0  0  0  0  0  0  0  0
  1  2  2  0
  1  6  1  0
  1  7  1  0
  2  3  1  0
  3  4  2  0
  4 32  1  0
  4  5  1  0
  5 21  1  0
  5  6  2  0
  7  9  2  0
  7  8  1  0
  8 10  1  0
 10 12  1  0
 10 15  2  0
 11 12  2  0
 11 16  1  0
 11 13  1  0
 13 14  2  0
 14 15  1  0
 16 17  1  0
 17 18  1  0
 18 19  2  0
 18 20  1  0
 21 22  1  0
 22 23  2  3
 23 24  1  0
 24 25  1  0
 26 25  1  6
 26 30  1  0
 26 27  1  0
 27 29  1  0
 27 28  1  0
 30 31  1  0
 32 35  1  0
 32 34  1  0
 32 33  1  0
M  END
>  <vina_dock>  (992) 
-8.709

$$$$
O14757_PocketFlow_idx-in-all-generaetd-868
     RDKit          3D

 17 18  0  0  0  0  0  0  0  0999 V2000
    3.2640   -2.8050   43.5010 C   0  0  0  0  0  0  0  0  0  0  0  0
    2.5670   -2.1120   42.5060 C   0  0  0  0  0  0  0  0  0  0  0  0
    2.6050   -3.8230   44.2080 C   0  0  0  0  0  0  0  0  0  0  0  0
    1.2650   -4.1410   43.9420 C   0  0  0  0  0  0  0  0  0  0  0  0
    0.5920   -3.4410   42.9350 C   0  0  0  0  0  0  0  0  0  0  0  0
    1.2390   -2.4280   42.2230 C   0  0  0  0  0  0  0  0  0  0  0  0
    4.7060   -2.4700   43.8040 C   0  0  0  0  0  0  0  0  0  0  0  0
    4.8930   -1.1260   44.5250 C   0  0  0  0  0  0  0  0  0  0  0  0
    5.2850   -0.0420   43.6230 N   0  0  0  0  0  0  0  0  0  0  0  0
    0.6350   -5.2390   44.6890 C   0  0  0  0  0  0  0  0  0  0  0  0
    0.0450   -6.2960   44.1080 C   0  0  0  0  0  0  0  0  0  0  0  0
   -0.5870   -7.3950   44.8530 C   0  0  0  0  0  0  0  0  0  0  0  0
   -1.8910   -7.7800   44.5160 C   0  0  0  0  0  0  0  0  0  0  0  0
    0.0490   -8.0350   45.9260 C   0  0  0  0  0  0  0  0  0  0  0  0
   -2.5360   -8.8010   45.2180 C   0  0  0  0  0  0  0  0  0  0  0  0
   -0.5970   -9.0560   46.6280 C   0  0  0  0  0  0  0  0  0  0  0  0
   -1.8880   -9.4400   46.2730 C   0  0  0  0  0  0  0  0  0  0  0  0
  1  2  2  0
  1  7  1  0
  1  3  1  0
  2  6  1  0
  3  4  2  0
  4  5  1  0
  4 10  1  0
  5  6  2  0
  7  8  1  0
  8  9  1  0
 10 11  2  3
 11 12  1  0
 12 13  2  0
 12 14  1  0
 13 15  1  0
 14 16  2  0
 15 17  2  0
 16 17  1  0
M  END
>  <vina_dock>  (993) 
-7.8

$$$$
O14757_PocketFlow_idx-in-all-generaetd-49
     RDKit          3D

  9  9  0  0  0  0  0  0  0  0999 V2000
    5.4990   -2.5780   44.8650 C   0  0  0  0  0  0  0  0  0  0  0  0
    5.9650   -1.4160   44.2530 C   0  0  0  0  0  0  0  0  0  0  0  0
    4.2580   -3.1100   44.5040 C   0  0  0  0  0  0  0  0  0  0  0  0
    3.4740   -2.4910   43.5210 C   0  0  0  0  0  0  0  0  0  0  0  0
    3.9460   -1.3140   42.9260 C   0  0  0  0  0  0  0  0  0  0  0  0
    5.1880   -0.7820   43.2860 C   0  0  0  0  0  0  0  0  0  0  0  0
    2.1510   -3.0000   43.1360 C   0  0  0  0  0  0  0  0  0  0  0  0
    1.4010   -2.4860   42.1480 C   0  0  0  0  0  0  0  0  0  0  0  0
    0.0530   -3.0080   41.7740 C   0  0  0  0  0  0  0  0  0  0  0  0
  1  2  2  0
  1  3  1  0
  2  6  1  0
  3  4  2  0
  4  5  1  0
  4  7  1  0
  5  6  2  0
  7  8  2  3
  8  9  1  0
M  END
>  <vina_dock>  (994) 
-5.57

$$$$
O14757_PocketFlow_idx-in-all-generaetd-885
     RDKit          3D

 22 24  0  0  0  0  0  0  0  0999 V2000
    0.5790   -2.6460   42.2040 C   0  0  0  0  0  0  0  0  0  0  0  0
    0.8360   -3.4380   43.3300 C   0  0  0  0  0  0  0  0  0  0  0  0
    2.0860   -3.3860   43.9520 C   0  0  0  0  0  0  0  0  0  0  0  0
    3.1000   -2.5480   43.4600 C   0  0  0  0  0  0  0  0  0  0  0  0
    2.8310   -1.7570   42.3340 C   0  0  0  0  0  0  0  0  0  0  0  0
    1.5810   -1.8050   41.7080 C   0  0  0  0  0  0  0  0  0  0  0  0
   -0.7310   -2.6650   41.5090 C   0  0  0  0  0  0  0  0  0  0  0  0
   -1.5670   -1.7810   41.5410 O   0  0  0  0  0  0  0  0  0  0  0  0
   -0.9330   -3.7920   40.8040 O   0  0  0  0  0  0  0  0  0  0  0  0
    4.4110   -2.4960   44.1190 C   0  0  0  0  0  0  0  0  0  0  0  0
    5.3060   -1.4200   43.9370 C   0  0  0  0  0  0  0  0  0  0  0  0
    4.7920   -3.5520   44.9630 C   0  0  0  0  0  0  0  0  0  0  0  0
    4.9620   -0.2520   43.0520 C   0  0  0  0  0  0  0  0  0  0  0  0
    6.5430   -1.4270   44.6090 C   0  0  0  0  0  0  0  0  0  0  0  0
    6.0260   -3.5450   45.6200 C   0  0  0  0  0  0  0  0  0  0  0  0
    6.9240   -2.4820   45.4550 C   0  0  0  0  0  0  0  0  0  0  0  0
    8.2240   -2.4710   46.1460 C   0  0  0  0  0  0  0  0  0  0  0  0
    8.7220   -3.6280   46.7680 C   0  0  0  0  0  0  0  0  0  0  0  0
    9.0040   -1.3040   46.2010 C   0  0  0  0  0  0  0  0  0  0  0  0
    9.9560   -3.6170   47.4250 C   0  0  0  0  0  0  0  0  0  0  0  0
   10.2380   -1.2930   46.8570 C   0  0  0  0  0  0  0  0  0  0  0  0
   10.7130   -2.4500   47.4680 C   0  0  0  0  0  0  0  0  0  0  0  0
  1  7  1  0
  1  6  2  0
  1  2  1  0
  2  3  2  0
  3  4  1  0
  4  5  2  0
  4 10  1  0
  5  6  1  0
  7  9  1  0
  7  8  2  0
 10 11  2  0
 10 12  1  0
 11 13  1  0
 11 14  1  0
 12 15  2  0
 14 16  2  0
 15 16  1  0
 16 17  1  0
 17 19  1  0
 17 18  2  0
 18 20  1  0
 19 21  2  0
 20 22  2  0
 21 22  1  0
M  END
>  <vina_dock>  (995) 
-9.542

$$$$
O14757_PocketFlow_idx-in-all-generaetd-259
     RDKit          3D

 19 20  0  0  0  0  0  0  0  0999 V2000
    1.1700   -5.3600   44.6140 C   0  0  0  0  0  0  0  0  0  0  0  0
    0.6320   -6.5880   44.7050 C   0  0  0  0  0  0  0  0  0  0  0  0
    0.6930   -4.2060   43.7790 C   0  0  0  0  0  0  0  0  0  0  0  0
    1.8070   -3.2430   43.4450 C   0  0  0  0  0  0  0  0  0  0  0  0
    4.0720   -2.3950   43.8560 C   0  0  0  0  0  0  0  0  0  0  0  0
    3.0150   -3.2690   44.1630 C   0  0  0  0  0  0  0  0  0  0  0  0
    3.8940   -1.4890   42.7990 C   0  0  0  0  0  0  0  0  0  0  0  0
    2.7020   -1.4580   42.0710 C   0  0  0  0  0  0  0  0  0  0  0  0
    1.6660   -2.3330   42.3900 C   0  0  0  0  0  0  0  0  0  0  0  0
    5.3310   -2.4310   44.6190 C   0  0  0  0  0  0  0  0  0  0  0  0
    6.3190   -1.4500   44.4330 C   0  0  0  0  0  0  0  0  0  0  0  0
    7.5140   -1.4840   45.1560 C   0  0  0  0  0  0  0  0  0  0  0  0
    5.5810   -3.4490   45.5550 C   0  0  0  0  0  0  0  0  0  0  0  0
    7.7420   -2.5010   46.0790 C   0  0  0  0  0  0  0  0  0  0  0  0
    6.7750   -3.4840   46.2790 C   0  0  0  0  0  0  0  0  0  0  0  0
   -0.5570   -7.1300   43.9640 C   0  0  0  0  0  0  0  0  0  0  0  0
   -1.5680   -7.6980   44.9120 C   0  0  0  0  0  0  0  0  0  0  0  0
   -2.7610   -8.1700   44.5450 C   0  0  0  0  0  0  0  0  0  0  0  0
   -3.1630   -8.1780   43.2620 F   0  0  0  0  0  0  0  0  0  0  0  0
  1  3  1  0
  1  2  2  3
  2 16  1  0
  3  4  1  0
  4  9  2  0
  4  6  1  0
  5  7  1  0
  5  6  2  0
  5 10  1  0
  7  8  2  0
  8  9  1  0
 10 11  2  0
 10 13  1  0
 11 12  1  0
 12 14  2  0
 13 15  2  0
 14 15  1  0
 16 17  1  0
 17 18  2  3
 18 19  1  0
M  END
>  <vina_dock>  (996) 
-8.423

$$$$
O14757_PocketFlow_idx-in-all-generaetd-936
     RDKit          3D

 35 38  0  0  0  0  0  0  0  0999 V2000
    2.9380   -8.5200   46.0450 C   0  0  0  0  0  0  0  0  0  0  0  0
    2.6810   -9.6420   45.6390 O   0  0  0  0  0  0  0  0  0  0  0  0
    2.1230   -7.3200   45.7160 C   0  0  0  0  0  0  0  0  0  0  0  0
    2.0710   -5.0360   44.8580 C   0  0  0  0  0  0  0  0  0  0  0  0
    2.7800   -6.2060   45.1740 C   0  0  0  0  0  0  0  0  0  0  0  0
    0.6870   -5.0030   45.0850 C   0  0  0  0  0  0  0  0  0  0  0  0
    0.0260   -6.1090   45.6210 C   0  0  0  0  0  0  0  0  0  0  0  0
    0.7400   -7.2660   45.9380 C   0  0  0  0  0  0  0  0  0  0  0  0
    2.7690   -3.8660   44.3010 C   0  0  0  0  0  0  0  0  0  0  0  0
    6.5780   -2.5290   45.6780 C   0  0  0  0  0  0  0  0  0  0  0  0
    5.9120   -1.8660   44.6420 C   0  0  0  0  0  0  0  0  0  0  0  0
    5.9860   -3.6440   46.2700 C   0  0  0  0  0  0  0  0  0  0  0  0
    4.6560   -2.3060   44.1880 C   0  0  0  0  0  0  0  0  0  0  0  0
    4.7390   -4.0920   45.8250 C   0  0  0  0  0  0  0  0  0  0  0  0
    4.0060   -1.6220   43.1500 C   0  0  0  0  0  0  0  0  0  0  0  0
    4.0430   -3.4400   44.7790 C   0  0  0  0  0  0  0  0  0  0  0  0
    2.7560   -2.0390   42.6850 C   0  0  0  0  0  0  0  0  0  0  0  0
    2.1430   -3.1550   43.2590 C   0  0  0  0  0  0  0  0  0  0  0  0
    7.8980   -2.0120   46.1110 C   0  0  0  0  0  0  0  0  0  0  0  0
    8.7590   -2.6500   46.6870 O   0  0  0  0  0  0  0  0  0  0  0  0
    8.0780   -0.7170   45.8010 O   0  0  0  0  0  0  0  0  0  0  0  0
    2.1210   -1.2710   41.5870 C   0  0  0  0  0  0  0  0  0  0  0  0
    1.5440   -1.7470   40.6260 O   0  0  0  0  0  0  0  0  0  0  0  0
    2.2440    0.0580   41.7390 O   0  0  0  0  0  0  0  0  0  0  0  0
    3.9910   -8.1820   46.8290 O   0  0  0  0  0  0  0  0  0  0  0  0
    4.2020   -9.0570   47.9450 C   0  0  0  0  0  0  0  0  0  0  0  0
    5.5540   -8.7470   48.6020 C   0  0  2  0  0  0  0  0  0  0  0  0
    5.6090   -7.3060   49.1490 C   0  0  0  0  0  0  0  0  0  0  0  0
    6.7150   -9.0460   47.6350 C   0  0  0  0  0  0  0  0  0  0  0  0
    6.7960   -6.5110   48.5920 C   0  0  1  0  0  0  0  0  0  0  0  0
    7.9860   -8.7130   48.2740 N   0  0  0  0  0  0  0  0  0  0  0  0
    6.9250   -5.1590   49.2930 C   0  0  0  0  0  0  0  0  0  0  0  0
    8.1030   -7.3160   48.7050 C   0  0  0  0  0  0  0  0  0  0  0  0
    9.1650   -9.2200   47.5690 C   0  0  0  0  0  0  0  0  0  0  0  0
    8.9710   -9.5200   46.0840 C   0  0  0  0  0  0  0  0  0  0  0  0
  1  2  2  0
  1  3  1  0
  1 25  1  0
  3  5  2  0
  3  8  1  0
  4  9  1  0
  4  6  2  0
  4  5  1  0
  6  7  1  0
  7  8  2  0
  9 18  1  0
  9 16  2  0
 10 11  2  0
 10 19  1  0
 10 12  1  0
 11 13  1  0
 12 14  2  0
 13 15  2  0
 13 16  1  0
 14 16  1  0
 15 17  1  0
 17 22  1  0
 17 18  2  0
 19 21  1  0
 19 20  2  0
 22 23  2  0
 22 24  1  0
 25 26  1  0
 27 26  1  6
 27 29  1  0
 27 28  1  0
 28 30  1  0
 29 31  1  0
 30 33  1  0
 30 32  1  1
 31 34  1  0
 31 33  1  0
 34 35  1  0
M  END
>  <vina_dock>  (997) 
-9.104

$$$$
O14757_PocketFlow_idx-in-all-generaetd-30
     RDKit          3D

 18 19  0  0  0  0  0  0  0  0999 V2000
    3.2710   -4.6830   45.1920 C   0  0  0  0  0  0  0  0  0  0  0  0
    3.3880   -5.9640   44.6320 C   0  0  0  0  0  0  0  0  0  0  0  0
    2.3020   -6.8420   44.6310 C   0  0  0  0  0  0  0  0  0  0  0  0
    1.0830   -6.4590   45.2010 C   0  0  0  0  0  0  0  0  0  0  0  0
    0.9510   -5.1800   45.7510 C   0  0  0  0  0  0  0  0  0  0  0  0
    2.0410   -4.3020   45.7520 C   0  0  0  0  0  0  0  0  0  0  0  0
    4.4700   -3.7380   45.1890 C   0  0  2  0  0  0  0  0  0  0  0  0
    4.8450   -3.3780   46.6350 C   0  0  0  0  0  0  0  0  0  0  0  0
    4.2830   -2.5500   44.2480 C   0  0  0  0  0  0  0  0  0  0  0  0
    3.1670   -1.3890   42.4220 C   0  0  0  0  0  0  0  0  0  0  0  0
    4.0400   -0.3120   42.5530 C   0  0  0  0  0  0  0  0  0  0  0  0
    3.2870   -2.5000   43.2610 C   0  0  0  0  0  0  0  0  0  0  0  0
    5.0370   -0.3440   43.5230 C   0  0  0  0  0  0  0  0  0  0  0  0
    5.1580   -1.4540   44.3630 C   0  0  0  0  0  0  0  0  0  0  0  0
   -0.0470   -7.4310   45.1750 C   0  0  0  0  0  0  0  0  0  0  0  0
   -0.0690   -8.3730   45.9570 O   0  0  0  0  0  0  0  0  0  0  0  0
   -1.0530   -7.1750   44.2650 N   0  0  0  0  0  0  0  0  0  0  0  0
   -2.2450   -7.9860   44.2480 C   0  0  0  0  0  0  0  0  0  0  0  0
  1  2  2  0
  1  7  1  0
  1  6  1  0
  2  3  1  0
  3  4  2  0
  4 15  1  0
  4  5  1  0
  5  6  2  0
  7  9  1  0
  7  8  1  1
  9 12  2  0
  9 14  1  0
 10 11  2  0
 10 12  1  0
 11 13  1  0
 13 14  2  0
 15 17  1  0
 15 16  2  0
 17 18  1  0
M  END
>  <vina_dock>  (998) 
-7.978

$$$$
O14757_PocketFlow_idx-in-all-generaetd-882
     RDKit          3D

 10 10  0  0  0  0  0  0  0  0999 V2000
    1.0970   -2.8450   42.4890 C   0  0  0  0  0  0  0  0  0  0  0  0
   -0.0740   -2.9590   41.5540 C   0  0  0  0  0  0  0  0  0  0  0  0
   -1.0660   -2.2390   41.6230 O   0  0  0  0  0  0  0  0  0  0  0  0
    2.0570   -1.7790   41.9770 C   0  0  0  0  0  0  0  0  0  0  0  0
    3.3270   -1.7400   42.7880 C   0  0  0  0  0  0  0  0  0  0  0  0
    3.6710   -2.8090   43.6250 C   0  0  0  0  0  0  0  0  0  0  0  0
    4.1660   -0.6200   42.7340 C   0  0  0  0  0  0  0  0  0  0  0  0
    4.8380   -2.7610   44.3890 C   0  0  0  0  0  0  0  0  0  0  0  0
    5.3340   -0.5740   43.4980 C   0  0  0  0  0  0  0  0  0  0  0  0
    5.6690   -1.6440   44.3240 C   0  0  0  0  0  0  0  0  0  0  0  0
  1  2  1  0
  1  4  1  0
  2  3  2  0
  4  5  1  0
  5  7  2  0
  5  6  1  0
  6  8  2  0
  7  9  1  0
  8 10  1  0
  9 10  2  0
M  END
>  <vina_dock>  (999) 
-5.469

$$$$
O14757_PocketFlow_idx-in-all-generaetd-454
     RDKit          3D

 28 31  0  0  0  0  0  0  0  0999 V2000
    1.2530   -4.1650   44.0890 C   0  0  0  0  0  0  0  0  0  0  0  0
    2.5820   -3.9330   44.5000 C   0  0  0  0  0  0  0  0  0  0  0  0
    3.3410   -2.9500   43.8360 C   0  0  0  0  0  0  0  0  0  0  0  0
    2.8070   -2.2320   42.7690 C   0  0  0  0  0  0  0  0  0  0  0  0
    1.5010   -2.4740   42.3610 C   0  0  0  0  0  0  0  0  0  0  0  0
    0.7250   -3.4310   43.0200 C   0  0  0  0  0  0  0  0  0  0  0  0
    0.5560   -5.1020   44.8090 O   0  0  0  0  0  0  0  0  0  0  0  0
    0.1880   -6.3340   44.1820 C   0  0  0  0  0  0  0  0  0  0  0  0
   -0.8580   -7.1280   44.9350 C   0  0  0  0  0  0  0  0  0  0  0  0
   -0.8870   -7.1760   46.3360 C   0  0  0  0  0  0  0  0  0  0  0  0
   -1.8380   -7.9420   47.0120 C   0  0  0  0  0  0  0  0  0  0  0  0
   -2.8060   -8.6470   46.2990 C   0  0  0  0  0  0  0  0  0  0  0  0
   -1.8580   -7.8290   44.2340 C   0  0  0  0  0  0  0  0  0  0  0  0
   -2.8200   -8.5840   44.9090 C   0  0  0  0  0  0  0  0  0  0  0  0
   -0.0020   -6.4960   47.1250 O   0  0  0  0  0  0  0  0  0  0  0  0
    3.1820   -4.6690   45.6840 C   0  0  0  0  0  0  0  0  0  0  0  0
    4.5310   -4.1510   46.1440 C   0  0  0  0  0  0  0  0  0  0  0  0
    5.2190   -3.1880   45.3970 C   0  0  0  0  0  0  0  0  0  0  0  0
    5.1160   -4.6370   47.3170 C   0  0  0  0  0  0  0  0  0  0  0  0
    6.4640   -2.6960   45.8130 C   0  0  0  0  0  0  0  0  0  0  0  0
    6.3660   -4.1710   47.7650 C   0  0  0  0  0  0  0  0  0  0  0  0
    7.1230   -1.7190   45.0470 C   0  0  0  0  0  0  0  0  0  0  0  0
    7.0560   -3.1800   47.0070 C   0  0  0  0  0  0  0  0  0  0  0  0
    8.3600   -1.2100   45.4390 C   0  0  0  0  0  0  0  0  0  0  0  0
    8.3120   -2.6440   47.3770 C   0  0  0  0  0  0  0  0  0  0  0  0
    8.9540   -1.6720   46.6040 C   0  0  0  0  0  0  0  0  0  0  0  0
    6.9620   -4.7150   49.0460 C   0  0  0  0  0  0  0  0  0  0  0  0
    6.6500   -3.9180   50.1860 O   0  0  0  0  0  0  0  0  0  0  0  0
  1  6  2  0
  1  2  1  0
  1  7  1  0
  2  3  2  0
  2 16  1  0
  3  4  1  0
  4  5  2  0
  5  6  1  0
  7  8  1  0
  8  9  1  0
  9 13  1  0
  9 10  2  0
 10 11  1  0
 10 15  1  0
 11 12  2  0
 12 14  1  0
 13 14  2  0
 16 17  1  0
 17 18  2  0
 17 19  1  0
 18 20  1  0
 19 21  2  0
 20 22  2  0
 20 23  1  0
 21 23  1  0
 21 27  1  0
 22 24  1  0
 23 25  2  0
 24 26  2  0
 25 26  1  0
 27 28  1  0
M  END
>  <vina_dock>  (1000) 
-9.619

$$$$
