O14757_PocketFlow_idx-in-all-generaetd-0
     RDKit          3D

 35 40  0  0  0  0  0  0  0  0999 V2000
   -0.6395   -2.0713   41.4947 C   0  0  0  0  0  0  0  0  0  0  0  0
    0.6719   -2.2449   41.7518 C   0  0  0  0  0  0  0  0  0  0  0  0
    1.5951   -1.1948   41.6106 C   0  0  2  0  0  0  0  0  0  0  0  0
    2.8936   -1.2860   42.2441 C   0  0  0  0  0  0  0  0  0  0  0  0
    3.0768   -1.4473   43.4477 C   0  0  0  0  0  0  0  0  0  0  0  0
    4.4318   -1.2251   44.0354 C   0  0  0  0  0  0  0  0  0  0  0  0
   -1.5193   -3.1903   41.4031 C   0  0  0  0  0  0  0  0  0  0  0  0
   -0.8409   -4.3977   41.4450 N   0  0  0  0  0  0  0  0  0  0  0  0
    4.9553   -2.2201   44.8472 C   0  0  0  0  0  0  0  0  0  0  0  0
    6.2783   -2.1147   45.3814 C   0  0  0  0  0  0  0  0  0  0  0  0
    6.8221   -3.1337   46.1883 C   0  0  0  0  0  0  0  0  0  0  0  0
    8.1713   -3.0443   46.6775 C   0  0  0  0  0  0  0  0  0  0  0  0
    8.8741   -1.8866   46.3298 C   0  0  0  0  0  0  0  0  0  0  0  0
    8.3235   -0.8510   45.5519 C   0  0  0  0  0  0  0  0  0  0  0  0
    7.0984   -0.9504   45.1353 C   0  0  0  0  0  0  0  0  0  0  0  0
    4.0546   -3.1094   45.4675 C   0  0  0  0  0  0  0  0  0  0  0  0
    4.3769   -3.7996   46.6332 C   0  0  0  0  0  0  0  0  0  0  0  0
    5.9000   -4.0025   46.9102 C   0  0  0  0  0  0  0  0  0  0  0  0
    0.7587   -3.4227   42.4765 C   0  0  0  0  0  0  0  0  0  0  0  0
    1.9655   -3.5761   43.2818 N   0  0  0  0  0  0  0  0  0  0  0  0
    0.0530   -4.4860   42.3331 C   0  0  0  0  0  0  0  0  0  0  0  0
    2.8689   -2.6750   43.7291 C   0  0  0  0  0  0  0  0  0  0  0  0
    3.5173   -3.1878   44.7906 N   0  0  0  0  0  0  0  0  0  0  0  0
    1.1201   -0.0350   40.9722 C   0  0  0  0  0  0  0  0  0  0  0  0
    6.3072   -4.8834   48.0064 C   0  0  1  0  0  0  0  0  0  0  0  0
    6.4942   -4.4074   49.1001 O   0  0  0  0  0  0  0  0  0  0  0  0
    6.1918   -6.0794   47.7884 F   0  0  0  0  0  0  0  0  0  0  0  0
   10.3213   -1.8276   46.8605 C   0  0  0  0  0  0  0  0  0  0  0  0
   11.2202   -2.5179   46.3079 C   0  0  0  0  0  0  0  0  0  0  0  0
   12.3537   -2.7026   46.7137 C   0  0  0  0  0  0  0  0  0  0  0  0
   12.8608   -1.9934   47.8613 C   0  0  0  0  0  0  0  0  0  0  0  0
   11.8881   -1.2278   48.5664 C   0  0  0  0  0  0  0  0  0  0  0  0
   10.5739   -1.1159   48.1039 C   0  0  0  0  0  0  0  0  0  0  0  0
   -2.6573   -3.0242   40.6463 N   0  0  0  0  0  0  0  0  0  0  0  0
    7.7480   -4.4333   49.8352 C   0  0  0  0  0  0  0  0  0  0  0  0
  2  3  1  0
  3  4  1  0
  4  5  2  0
  5  6  1  0
  6  9  1  0
 19 20  1  0
  5 22  1  0
 20 22  2  0
 16 23  1  0
 22 23  1  0
  3 24  1  1
 18 25  1  0
 25 26  1  0
 25 27  1  1
 13 28  1  0
  7 34  1  0
 26 35  1  0
 28 29  2  0
 29 30  1  0
 30 31  2  0
 31 32  1  0
 32 33  2  0
 33 28  1  0
  9 10  2  0
 11 18  2  0
 18 17  1  0
 17 16  2  0
 16  9  1  0
  1  2  2  0
  2 19  1  0
 19 21  2  0
 21  8  1  0
  8  7  2  0
  7  1  1  0
 10 11  1  0
 11 12  1  0
 12 13  2  0
 13 14  1  0
 14 15  2  0
 15 10  1  0
M  END
$$$$
O14757_PocketFlow_idx-in-all-generaetd-1
     RDKit          3D

 31 34  0  0  0  0  0  0  0  0999 V2000
   -0.6395   -2.0713   41.4947 C   0  0  0  0  0  0  0  0  0  0  0  0
    0.1859   -1.1027   41.5970 C   0  0  0  0  0  0  0  0  0  0  0  0
    1.5858   -1.4431   41.9548 C   0  0  0  0  0  0  0  0  0  0  0  0
    1.8933   -1.7989   43.0657 C   0  0  0  0  0  0  0  0  0  0  0  0
    3.2900   -1.9767   43.4687 C   0  0  0  0  0  0  0  0  0  0  0  0
    3.7853   -3.0356   44.2382 C   0  0  0  0  0  0  0  0  0  0  0  0
    4.9928   -2.9213   44.9085 C   0  0  0  0  0  0  0  0  0  0  0  0
    5.4181   -3.8381   45.9255 C   0  0  0  0  0  0  0  0  0  0  0  0
    6.5358   -3.5133   46.8336 C   0  0  0  0  0  0  0  0  0  0  0  0
    6.9054   -4.3086   47.8924 C   0  0  0  0  0  0  0  0  0  0  0  0
    8.0650   -4.0165   48.6092 C   0  0  0  0  0  0  0  0  0  0  0  0
    8.9391   -3.0285   48.1448 C   0  0  0  0  0  0  0  0  0  0  0  0
    8.5948   -2.2861   46.9974 C   0  0  0  0  0  0  0  0  0  0  0  0
    7.4568   -2.5393   46.3042 C   0  0  0  0  0  0  0  0  0  0  0  0
    4.2313   -0.9817   43.0660 C   0  0  0  0  0  0  0  0  0  0  0  0
   -2.0559   -1.8979   41.3123 C   0  0  0  0  0  0  0  0  0  0  0  0
    5.4688   -0.8220   43.7611 C   0  0  0  0  0  0  0  0  0  0  0  0
    5.8112   -1.7030   44.6629 C   0  0  0  0  0  0  0  0  0  0  0  0
    7.0808   -1.6328   45.4291 C   0  0  0  0  0  0  0  0  0  0  0  0
   -2.4062   -1.5275   40.2320 O   0  0  0  0  0  0  0  0  0  0  0  0
    6.0152   -5.3670   48.4294 C   0  0  0  0  0  0  0  0  0  0  0  0
    6.2971   -6.5797   48.1633 O   0  0  0  0  0  0  0  0  0  0  0  0
    5.4376   -7.6188   48.3495 C   0  0  2  0  0  0  0  0  0  0  0  0
    5.2877   -8.0824   49.6200 C   0  0  0  0  0  0  0  0  0  0  0  0
    5.3758   -7.0267   50.3820 F   0  0  0  0  0  0  0  0  0  0  0  0
    6.3117   -8.8561   50.0291 F   0  0  0  0  0  0  0  0  0  0  0  0
    5.8891   -8.6779   47.4236 N   0  0  0  0  0  0  0  0  0  0  0  0
    4.1383   -8.7108   49.8896 F   0  0  0  0  0  0  0  0  0  0  0  0
    3.1504   -4.2783   44.3179 C   0  0  0  0  0  0  0  0  0  0  0  0
    1.7211   -4.2947   44.2925 C   0  0  0  0  0  0  0  0  0  0  0  0
    1.1734   -3.1701   43.3690 C   0  0  0  0  0  0  0  0  0  0  0  0
  1  2  1  0
  2  3  1  0
  3  4  1  0
  1 16  1  0
 16 20  1  0
 10 21  1  0
 21 22  1  0
 22 23  1  0
 23 24  1  0
 24 25  1  0
 24 26  1  0
 23 27  1  6
 24 28  1  0
  9 10  2  0
 10 11  1  0
 11 12  2  0
 12 13  1  0
 13 14  2  0
  7  8  2  0
  8  9  1  0
  9 14  1  0
 14 19  1  0
 19 18  2  0
  4  5  2  0
  6 29  2  0
 29 30  1  0
 30 31  2  0
 31  4  1  0
  5  6  1  0
  6  7  1  0
  7 18  1  0
 18 17  1  0
 17 15  2  0
 15  5  1  0
M  END
$$$$
O14757_PocketFlow_idx-in-all-generaetd-2
     RDKit          3D

 30 32  0  0  0  0  0  0  0  0999 V2000
    0.2881   -2.9111   42.4378 C   0  0  0  0  0  0  0  0  0  0  0  0
    1.3023   -2.0648   42.1981 C   0  0  0  0  0  0  0  0  0  0  0  0
    2.5313   -2.2887   42.6989 C   0  0  0  0  0  0  0  0  0  0  0  0
    3.5902   -1.3681   42.6298 C   0  0  0  0  0  0  0  0  0  0  0  0
    4.8714   -1.6160   43.2849 C   0  0  0  0  0  0  0  0  0  0  0  0
    0.5674   -4.0093   43.2620 C   0  0  0  0  0  0  0  0  0  0  0  0
    1.7193   -4.0624   44.0235 C   0  0  0  0  0  0  0  0  0  0  0  0
    2.7656   -3.1701   43.8038 C   0  0  0  0  0  0  0  0  0  0  0  0
    5.7995   -0.5248   43.3971 C   0  0  0  0  0  0  0  0  0  0  0  0
    5.3574    0.7282   42.7770 C   0  0  0  0  0  0  0  0  0  0  0  0
    4.0674    0.8625   42.2292 C   0  0  0  0  0  0  0  0  0  0  0  0
    3.2437   -0.0943   42.2345 C   0  0  0  0  0  0  0  0  0  0  0  0
   -0.8192   -2.9112   41.7791 F   0  0  0  0  0  0  0  0  0  0  0  0
    1.8774   -5.1889   45.0061 C   0  0  1  0  0  0  0  0  0  0  0  0
    2.4881   -4.8127   46.1156 C   0  0  0  0  0  0  0  0  0  0  0  0
    1.3630   -6.4198   44.8003 C   0  0  0  0  0  0  0  0  0  0  0  0
    0.0121   -6.7424   44.7164 C   0  0  0  0  0  0  0  0  0  0  0  0
   -0.4254   -7.3062   45.9961 C   0  0  0  0  0  0  0  0  0  0  0  0
   -1.6124   -8.0775   45.9132 C   0  0  0  0  0  0  0  0  0  0  0  0
   -1.9667   -8.9660   46.9552 C   0  0  0  0  0  0  0  0  0  0  0  0
   -1.2257   -8.8660   48.1450 C   0  0  0  0  0  0  0  0  0  0  0  0
   -0.0975   -8.0561   48.2271 C   0  0  0  0  0  0  0  0  0  0  0  0
    0.3265   -7.3545   47.1336 C   0  0  0  0  0  0  0  0  0  0  0  0
   -2.4076   -8.2041   44.6898 C   0  0  0  0  0  0  0  0  0  0  0  0
   -1.9167   -7.8582   43.6465 F   0  0  0  0  0  0  0  0  0  0  0  0
   -3.7154   -8.6919   44.7278 C   0  0  0  0  0  0  0  0  0  0  0  0
   -4.6015   -8.3263   44.3659 C   0  0  0  0  0  0  0  0  0  0  0  0
   -5.9774   -8.9193   44.2740 C   0  0  0  0  0  0  0  0  0  0  0  0
   -6.1089  -10.0864   44.9202 C   0  0  0  0  0  0  0  0  0  0  0  0
   -5.0467  -10.6133   45.5931 C   0  0  0  0  0  0  0  0  0  0  0  0
  1 13  1  0
  7 14  1  0
 14 15  1  1
 14 16  1  0
 16 17  1  0
 17 18  1  0
 19 24  1  0
 24 25  1  0
 24 26  1  0
 26 27  2  3
 27 28  1  0
 28 29  2  3
 29 30  1  0
  3  4  1  0
 18 19  2  0
 19 20  1  0
 20 21  2  0
 21 22  1  0
 22 23  2  0
 23 18  1  0
  1  2  2  0
  2  3  1  0
  3  8  2  0
  8  7  1  0
  7  6  2  0
  6  1  1  0
  4  5  2  0
  5  9  1  0
  9 10  2  0
 10 11  1  0
 11 12  2  0
 12  4  1  0
M  END
$$$$
O14757_PocketFlow_idx-in-all-generaetd-3
     RDKit          3D

 21 22  0  0  0  0  0  0  0  0999 V2000
    0.2881   -2.9111   42.4378 C   0  0  0  0  0  0  0  0  0  0  0  0
    1.1784   -3.4293   42.9321 C   0  0  0  0  0  0  0  0  0  0  0  0
    2.4696   -2.7231   42.8997 C   0  0  0  0  0  0  0  0  0  0  0  0
    3.6320   -3.1839   43.6508 C   0  0  0  0  0  0  0  0  0  0  0  0
    4.7810   -2.3542   43.7528 C   0  0  0  0  0  0  0  0  0  0  0  0
    0.3948   -1.7688   41.5591 C   0  0  0  0  0  0  0  0  0  0  0  0
    4.7418   -1.1156   43.0950 C   0  0  0  0  0  0  0  0  0  0  0  0
    3.5849   -0.7353   42.4357 C   0  0  0  0  0  0  0  0  0  0  0  0
    2.4711   -1.4319   42.4022 C   0  0  0  0  0  0  0  0  0  0  0  0
    1.4666   -1.0034   41.6356 C   0  0  0  0  0  0  0  0  0  0  0  0
    3.6894   -4.4478   44.3761 C   0  0  0  0  0  0  0  0  0  0  0  0
    2.6355   -4.5885   45.1448 F   0  0  0  0  0  0  0  0  0  0  0  0
    4.8160   -4.4950   45.1537 F   0  0  0  0  0  0  0  0  0  0  0  0
    3.7150   -5.4836   43.5537 F   0  0  0  0  0  0  0  0  0  0  0  0
    1.5098    0.1693   41.0036 O   0  0  0  0  0  0  0  0  0  0  0  0
   -0.8278   -1.3177   41.0199 O   0  0  0  0  0  0  0  0  0  0  0  0
   -2.0890   -1.7443   41.6064 C   0  0  0  0  0  0  0  0  0  0  0  0
   -3.1920   -1.1100   40.8118 C   0  0  0  0  0  0  0  0  0  0  0  0
   -3.8401   -1.9381   40.0193 O   0  0  0  0  0  0  0  0  0  0  0  0
   -3.5950    0.0212   41.1266 O   0  0  0  0  0  0  0  0  0  0  0  0
    5.8226   -0.2688   43.2229 N   0  0  0  0  0  0  0  0  0  0  0  0
  4 11  1  0
 11 12  1  0
 11 13  1  0
 11 14  1  0
 10 15  1  0
  6 16  1  0
 16 17  1  0
 17 18  1  0
 18 19  2  0
 18 20  1  0
  7 21  1  0
  3  4  2  0
  4  5  1  0
  5  7  2  0
  7  8  1  0
  8  9  2  0
  1  2  2  0
  2  3  1  0
  3  9  1  0
  9 10  1  0
 10  6  2  0
  6  1  1  0
M  END
$$$$
O14757_PocketFlow_idx-in-all-generaetd-4
     RDKit          3D

 20 22  0  0  0  0  0  0  0  0999 V2000
   -0.6395   -2.0713   41.4947 C   0  0  0  0  0  0  0  0  0  0  0  0
   -0.2671   -3.2464   41.6546 C   0  0  0  0  0  0  0  0  0  0  0  0
    0.2277   -0.9875   41.6495 C   0  0  0  0  0  0  0  0  0  0  0  0
    1.6284   -1.2752   41.8841 C   0  0  0  0  0  0  0  0  0  0  0  0
    1.8971   -2.6873   42.1685 C   0  0  0  0  0  0  0  0  0  0  0  0
    0.9380   -3.6379   42.0922 C   0  0  0  0  0  0  0  0  0  0  0  0
    2.5765   -0.2838   42.1328 C   0  0  0  0  0  0  0  0  0  0  0  0
    3.8924   -0.5890   42.5973 C   0  0  0  0  0  0  0  0  0  0  0  0
    4.1834   -1.7503   43.3382 C   0  0  0  0  0  0  0  0  0  0  0  0
    5.2850   -1.9868   44.1222 C   0  0  0  0  0  0  0  0  0  0  0  0
    5.4247   -3.1930   44.8543 C   0  0  0  0  0  0  0  0  0  0  0  0
    4.4073   -4.0983   44.7855 C   0  0  0  0  0  0  0  0  0  0  0  0
    3.2961   -3.8703   44.0271 C   0  0  0  0  0  0  0  0  0  0  0  0
    3.1388   -2.6955   43.4122 C   0  0  0  0  0  0  0  0  0  0  0  0
    4.9436    0.4988   42.5866 C   0  0  0  0  0  0  0  0  0  0  0  0
   -2.2200   -1.6305   40.8692 Cl  0  0  0  0  0  0  0  0  0  0  0  0
    6.8550   -3.3883   45.7837 Cl  0  0  0  0  0  0  0  0  0  0  0  0
    4.5060   -5.3815   45.5585 C   0  0  0  0  0  0  0  0  0  0  0  0
    4.2119   -5.1781   46.9764 C   0  0  0  0  0  0  0  0  0  0  0  0
    5.5570   -4.8585   47.7453 C   0  0  0  0  0  0  0  0  0  0  0  0
  8 15  1  0
  1 16  1  0
 11 17  1  0
 12 18  1  0
 18 19  1  0
 19 20  1  0
  1  2  2  0
  2  6  1  0
  6  5  2  0
  4  3  2  0
  3  1  1  0
  4  5  1  0
  5 14  1  0
  9  8  1  0
  8  7  2  0
  7  4  1  0
  9 10  2  0
 10 11  1  0
 11 12  2  0
 12 13  1  0
 13 14  2  0
 14  9  1  0
M  END
$$$$
O14757_PocketFlow_idx-in-all-generaetd-5
     RDKit          3D

 18 18  0  0  0  0  0  0  0  0999 V2000
   -0.6395   -2.0713   41.4947 C   0  0  0  0  0  0  0  0  0  0  0  0
    0.1859   -1.1027   41.5970 C   0  0  0  0  0  0  0  0  0  0  0  0
    1.5836   -1.3270   41.4670 C   0  0  0  0  0  0  0  0  0  0  0  0
   -0.2462   -3.3905   41.2409 C   0  0  0  0  0  0  0  0  0  0  0  0
    2.0075   -2.6977   41.3341 C   0  0  0  0  0  0  0  0  0  0  0  0
    1.0655   -3.6470   41.1373 C   0  0  0  0  0  0  0  0  0  0  0  0
    2.5048   -0.3416   41.6826 N   0  0  0  0  0  0  0  0  0  0  0  0
    3.5415   -0.3915   42.5684 C   0  0  0  0  0  0  0  0  0  0  0  0
    3.5013   -1.1324   43.4833 F   0  0  0  0  0  0  0  0  0  0  0  0
    4.6221    0.4034   42.3529 N   0  0  0  0  0  0  0  0  0  0  0  0
   -2.0110   -1.6359   41.5505 O   0  0  0  0  0  0  0  0  0  0  0  0
   -2.4499   -0.6219   40.9045 C   0  0  0  0  0  0  0  0  0  0  0  0
   -3.9412   -0.5463   41.0545 C   0  0  0  0  0  0  0  0  0  0  0  0
   -4.5603   -1.4302   40.7235 O   0  0  0  0  0  0  0  0  0  0  0  0
   -4.3506    0.5192   41.7441 O   0  0  0  0  0  0  0  0  0  0  0  0
    5.6944    0.1725   43.2313 C   0  0  0  0  0  0  0  0  0  0  0  0
    5.5022   -1.0020   44.0817 C   0  0  0  0  0  0  0  0  0  0  0  0
    6.6587   -1.3907   45.0515 C   0  0  0  0  0  0  0  0  0  0  0  0
  3  7  1  0
  7  8  1  0
  8  9  1  0
  8 10  1  0
  1 11  1  0
 11 12  1  0
 12 13  1  0
 13 14  1  0
 13 15  2  0
 10 16  1  0
 16 17  1  0
 17 18  1  0
  1  2  2  0
  2  3  1  0
  3  5  2  0
  5  6  1  0
  6  4  2  0
  4  1  1  0
M  END
$$$$
O14757_PocketFlow_idx-in-all-generaetd-6
     RDKit          3D

 29 33  0  0  0  0  0  0  0  0999 V2000
    0.2881   -2.9111   42.4378 C   0  0  0  0  0  0  0  0  0  0  0  0
    1.3023   -2.0648   42.1981 C   0  0  0  0  0  0  0  0  0  0  0  0
    2.5313   -2.2887   42.6989 C   0  0  0  0  0  0  0  0  0  0  0  0
    3.5902   -1.3681   42.6298 C   0  0  0  0  0  0  0  0  0  0  0  0
    3.2847   -0.0585   42.1867 C   0  0  0  0  0  0  0  0  0  0  0  0
    0.6458   -3.9889   43.2092 N   0  0  0  0  0  0  0  0  0  0  0  0
    1.7186   -4.0966   43.9527 C   0  0  2  0  0  0  0  0  0  0  0  0
    2.7809   -3.2391   43.7713 C   0  0  0  0  0  0  0  0  0  0  0  0
    2.0166    0.2116   41.6175 C   0  0  0  0  0  0  0  0  0  0  0  0
    0.9859   -0.7543   41.7332 C   0  0  0  0  0  0  0  0  0  0  0  0
    1.8190   -5.2967   44.8254 C   0  0  0  0  0  0  0  0  0  0  0  0
    2.9832   -5.9588   44.9986 C   0  0  0  0  0  0  0  0  0  0  0  0
    0.6532   -5.7145   45.5168 C   0  0  0  0  0  0  0  0  0  0  0  0
    0.4328   -7.0932   45.6816 C   0  0  0  0  0  0  0  0  0  0  0  0
    1.6317   -7.8091   45.9461 C   0  0  0  0  0  0  0  0  0  0  0  0
    2.8774   -7.3644   45.3675 C   0  0  0  0  0  0  0  0  0  0  0  0
   -0.8122   -7.6128   46.1511 C   0  0  2  0  0  0  0  0  0  0  0  0
   -1.8385   -7.8131   45.2465 C   0  0  0  0  0  0  0  0  0  0  0  0
   -1.6462   -7.4011   43.8949 C   0  0  0  0  0  0  0  0  0  0  0  0
   -3.0535   -8.5678   45.4988 C   0  0  0  0  0  0  0  0  0  0  0  0
   -4.0729   -8.7638   44.6044 C   0  0  0  0  0  0  0  0  0  0  0  0
   -2.6271   -7.7491   42.9630 N   0  0  0  0  0  0  0  0  0  0  0  0
   -3.7081   -8.3475   43.2814 C   0  0  0  0  0  0  0  0  0  0  0  0
   -1.0481   -7.8515   47.5841 C   0  0  0  0  0  0  0  0  0  0  0  0
   -0.8102   -2.8984   41.9042 O   0  0  0  0  0  0  0  0  0  0  0  0
   -4.6171   -8.5151   42.2961 N   0  0  0  0  0  0  0  0  0  0  0  0
    4.9103   -1.5451   43.2286 C   0  0  0  0  0  0  0  0  0  0  0  0
    5.0937   -2.2566   44.4003 C   0  0  0  0  0  0  0  0  0  0  0  0
    3.9837   -3.3661   44.5377 C   0  0  0  0  0  0  0  0  0  0  0  0
  1  2  1  0
  1  6  1  0
  6  7  1  0
  7  8  1  0
  7 11  1  6
 14 17  1  0
 17 18  1  0
 17 24  1  1
  1 25  2  0
 23 26  1  0
  4 27  1  0
 27 28  2  0
 28 29  1  0
 29  8  2  0
  8  3  1  0
 11 12  2  0
 12 16  1  0
 16 15  2  0
 15 14  1  0
 14 13  2  0
 13 11  1  0
 18 19  2  0
 19 22  1  0
 22 23  2  0
 23 21  1  0
 21 20  2  0
 20 18  1  0
  2  3  2  0
  3  4  1  0
  4  5  2  0
  5  9  1  0
  9 10  2  0
 10  2  1  0
M  END
$$$$
O14757_PocketFlow_idx-in-all-generaetd-7
     RDKit          3D

  5  4  0  0  0  0  0  0  0  0999 V2000
   -0.8413   -1.9048   41.7918 F   0  0  0  0  0  0  0  0  0  0  0  0
   -0.4300   -2.8526   41.5038 C   0  0  0  0  0  0  0  0  0  0  0  0
   -1.2613   -3.8342   41.5789 F   0  0  0  0  0  0  0  0  0  0  0  0
    0.6927   -3.2501   42.2668 F   0  0  0  0  0  0  0  0  0  0  0  0
   -0.0099   -2.8435   40.1982 F   0  0  0  0  0  0  0  0  0  0  0  0
  1  2  1  0
  2  3  1  0
  2  4  1  0
  2  5  1  0
M  END
$$$$
O14757_PocketFlow_idx-in-all-generaetd-8
     RDKit          3D

 14 14  0  0  0  0  0  0  0  0999 V2000
   -0.6395   -2.0713   41.4947 C   0  0  0  0  0  0  0  0  0  0  0  0
    0.1859   -1.1027   41.5970 C   0  0  0  0  0  0  0  0  0  0  0  0
    1.5836   -1.3270   41.4670 C   0  0  0  0  0  0  0  0  0  0  0  0
   -0.2462   -3.3905   41.2409 C   0  0  0  0  0  0  0  0  0  0  0  0
    2.0075   -2.6977   41.3341 C   0  0  0  0  0  0  0  0  0  0  0  0
    1.0655   -3.6470   41.1373 C   0  0  0  0  0  0  0  0  0  0  0  0
    2.4774   -0.3939   41.6436 F   0  0  0  0  0  0  0  0  0  0  0  0
   -2.0461   -1.8343   41.5860 N   0  0  0  0  0  0  0  0  0  0  0  0
   -2.8787   -2.0628   40.5377 C   0  0  0  0  0  0  0  0  0  0  0  0
   -4.0414   -1.2279   40.4048 C   0  0  0  0  0  0  0  0  0  0  0  0
   -4.8940   -1.4786   39.4729 O   0  0  0  0  0  0  0  0  0  0  0  0
   -3.9873   -0.0956   40.9428 O   0  0  0  0  0  0  0  0  0  0  0  0
   -3.6651    1.1280   40.2956 C   0  0  0  0  0  0  0  0  0  0  0  0
   -2.8357   -3.1702   39.9283 O   0  0  0  0  0  0  0  0  0  0  0  0
  3  7  1  0
  1  8  1  0
  8  9  1  0
  9 10  1  0
 10 11  2  0
 10 12  1  0
 12 13  1  0
  9 14  2  0
  1  2  2  0
  2  3  1  0
  3  5  2  0
  5  6  1  0
  6  4  2  0
  4  1  1  0
M  END
$$$$
O14757_PocketFlow_idx-in-all-generaetd-9
     RDKit          3D

 35 38  0  0  0  0  0  0  0  0999 V2000
   -0.8794   -1.9236   41.9357 O   0  0  0  0  0  0  0  0  0  0  0  0
    0.3070   -1.6014   41.6735 C   0  0  0  0  0  0  0  0  0  0  0  0
    1.3011   -2.6668   41.5732 C   0  0  0  0  0  0  0  0  0  0  0  0
    0.7830   -0.3895   41.5690 O   0  0  0  0  0  0  0  0  0  0  0  0
    2.3655   -2.4347   42.2626 C   0  0  0  0  0  0  0  0  0  0  0  0
    2.9709   -3.3447   43.2337 C   0  0  0  0  0  0  0  0  0  0  0  0
    4.1619   -2.9068   43.9693 C   0  0  0  0  0  0  0  0  0  0  0  0
    4.7248   -3.7315   44.9939 C   0  0  0  0  0  0  0  0  0  0  0  0
    4.0898   -4.9741   45.1697 C   0  0  0  0  0  0  0  0  0  0  0  0
    2.9353   -5.2893   44.5641 C   0  0  0  0  0  0  0  0  0  0  0  0
    2.3411   -4.4598   43.6995 C   0  0  0  0  0  0  0  0  0  0  0  0
    4.5255   -1.5930   43.5006 C   0  0  2  0  0  0  0  0  0  0  0  0
    3.3161   -1.2444   42.2644 C   0  0  0  0  0  0  0  0  0  0  0  0
    5.5601   -0.7006   43.7426 C   0  0  0  0  0  0  0  0  0  0  0  0
    2.2274   -6.5856   44.8917 C   0  0  0  0  0  0  0  0  0  0  0  0
    0.7248   -6.8634   44.5386 Cl  0  0  0  0  0  0  0  0  0  0  0  0
    2.9592   -7.5347   45.4856 O   0  0  0  0  0  0  0  0  0  0  0  0
    6.0039   -3.3260   45.6116 C   0  0  0  0  0  0  0  0  0  0  0  0
    6.1961   -3.2050   46.9650 C   0  0  0  0  0  0  0  0  0  0  0  0
    7.4967   -3.2309   47.4928 C   0  0  0  0  0  0  0  0  0  0  0  0
    7.8970   -4.0194   48.5919 C   0  0  0  0  0  0  0  0  0  0  0  0
    6.7360   -4.2979   49.4759 C   0  0  0  0  0  0  0  0  0  0  0  0
    5.5582   -4.4446   48.8540 N   0  0  0  0  0  0  0  0  0  0  0  0
    5.3128   -3.8185   47.6805 C   0  0  0  0  0  0  0  0  0  0  0  0
    8.6258   -2.6227   46.6583 C   0  0  0  0  0  0  0  0  0  0  0  0
    9.3984   -1.6335   47.1320 C   0  0  0  0  0  0  0  0  0  0  0  0
   10.6575   -1.8195   47.2250 C   0  0  0  0  0  0  0  0  0  0  0  0
   11.2409   -2.4452   48.1117 C   0  0  0  0  0  0  0  0  0  0  0  0
   10.8016   -2.6521   49.2297 C   0  0  0  0  0  0  0  0  0  0  0  0
   11.4861   -3.3437   50.3477 C   0  0  0  0  0  0  0  0  0  0  0  0
   10.9341   -3.2756   51.6627 C   0  0  0  0  0  0  0  0  0  0  0  0
    9.6477   -2.6724   51.9328 C   0  0  0  0  0  0  0  0  0  0  0  0
    9.0752   -1.9110   50.9368 C   0  0  0  0  0  0  0  0  0  0  0  0
    9.6286   -1.8589   49.6999 C   0  0  0  0  0  0  0  0  0  0  0  0
   11.4803   -1.1203   46.0817 C   0  0  0  0  0  0  0  0  0  0  0  0
  1  2  2  0
  2  3  1  0
  2  4  1  0
  3  5  1  0
  5  6  1  0
  7 12  1  0
  5 13  1  0
 12 13  1  0
 12 14  1  6
 10 15  1  0
 15 16  1  0
 15 17  2  0
  8 18  1  0
 18 19  1  0
 20 25  1  0
 25 26  1  0
 26 27  1  0
 27 28  1  0
 27 35  1  0
 28 29  1  0
 29 30  2  0
 30 31  1  0
 31 32  2  0
 32 33  1  0
 33 34  2  0
 34 29  1  0
  6  7  2  0
  7  8  1  0
  8  9  2  0
  9 10  1  0
 10 11  2  0
 11  6  1  0
 19 20  1  0
 20 21  2  0
 21 22  1  0
 22 23  2  0
 23 24  1  0
 24 19  2  0
M  END
$$$$
O14757_PocketFlow_idx-in-all-generaetd-10
     RDKit          3D

 17 19  0  0  0  0  0  0  0  0999 V2000
    0.2881   -2.9111   42.4378 C   0  0  0  0  0  0  0  0  0  0  0  0
    1.1784   -3.4293   42.9321 C   0  0  0  0  0  0  0  0  0  0  0  0
    2.4696   -2.7231   42.8997 C   0  0  0  0  0  0  0  0  0  0  0  0
    2.5380   -1.5398   42.2487 C   0  0  0  0  0  0  0  0  0  0  0  0
    0.2254   -1.7181   41.6878 C   0  0  0  0  0  0  0  0  0  0  0  0
    1.4043   -1.0577   41.5785 C   0  0  0  0  0  0  0  0  0  0  0  0
    3.6662   -3.1326   43.6719 C   0  0  0  0  0  0  0  0  0  0  0  0
    3.7884   -4.3973   44.3006 C   0  0  0  0  0  0  0  0  0  0  0  0
    4.6550   -2.1409   43.9417 C   0  0  0  0  0  0  0  0  0  0  0  0
    5.7005   -2.4408   44.8467 C   0  0  0  0  0  0  0  0  0  0  0  0
    6.7512   -1.5169   45.0502 C   0  0  0  0  0  0  0  0  0  0  0  0
    5.7495   -3.7070   45.5126 C   0  0  0  0  0  0  0  0  0  0  0  0
    4.7793   -4.6449   45.2442 C   0  0  0  0  0  0  0  0  0  0  0  0
    6.9537   -0.0558   44.4453 Cl  0  0  0  0  0  0  0  0  0  0  0  0
    7.9735   -2.0006   45.8184 C   0  0  0  0  0  0  0  0  0  0  0  0
    8.0107   -3.0924   46.5537 C   0  0  0  0  0  0  0  0  0  0  0  0
    6.8834   -4.0142   46.3488 C   0  0  0  0  0  0  0  0  0  0  0  0
  3  7  1  0
 11 14  1  0
 10 11  1  0
 11 15  2  0
 15 16  1  0
 16 17  2  0
 17 12  1  0
  1  2  2  0
  2  3  1  0
  3  4  2  0
  4  6  1  0
  6  5  2  0
  5  1  1  0
  7  8  2  0
  8 13  1  0
 13 12  2  0
 12 10  1  0
 10  9  2  0
  9  7  1  0
M  END
$$$$
O14757_PocketFlow_idx-in-all-generaetd-11
     RDKit          3D

 22 26  0  0  0  0  0  0  0  0999 V2000
    0.2881   -2.9111   42.4378 C   0  0  0  0  0  0  0  0  0  0  0  0
   -0.0650   -2.5020   41.5798 C   0  0  0  0  0  0  0  0  0  0  0  0
    1.5111   -2.4518   43.1047 C   0  0  0  0  0  0  0  0  0  0  0  0
    2.1892   -1.4341   42.4770 C   0  0  0  0  0  0  0  0  0  0  0  0
    3.3839   -0.8722   43.0399 C   0  0  0  0  0  0  0  0  0  0  0  0
    4.0074   -1.6318   44.0733 C   0  0  0  0  0  0  0  0  0  0  0  0
    3.3693   -2.8221   44.5773 C   0  0  0  0  0  0  0  0  0  0  0  0
    2.1795   -3.2914   44.0877 C   0  0  0  0  0  0  0  0  0  0  0  0
    0.4731   -1.2415   40.9718 C   0  0  0  0  0  0  0  0  0  0  0  0
    1.6539   -0.7819   41.4621 C   0  0  0  0  0  0  0  0  0  0  0  0
    4.1230    0.2566   42.5609 C   0  0  0  0  0  0  0  0  0  0  0  0
    1.7471   -4.5283   44.6283 C   0  0  0  0  0  0  0  0  0  0  0  0
    2.4857   -5.4892   45.0441 C   0  0  0  0  0  0  0  0  0  0  0  0
    3.8567   -5.0325   45.5426 C   0  0  0  0  0  0  0  0  0  0  0  0
    4.3516   -3.8090   45.1902 C   0  0  0  0  0  0  0  0  0  0  0  0
    5.6675   -3.3598   45.6119 C   0  0  0  0  0  0  0  0  0  0  0  0
    6.4058   -3.9077   46.5587 C   0  0  0  0  0  0  0  0  0  0  0  0
    7.6892   -3.4562   46.9724 C   0  0  0  0  0  0  0  0  0  0  0  0
    8.2122   -2.3212   46.2610 C   0  0  0  0  0  0  0  0  0  0  0  0
    7.4292   -1.7179   45.2565 C   0  0  0  0  0  0  0  0  0  0  0  0
    6.2153   -2.1962   44.9425 C   0  0  0  0  0  0  0  0  0  0  0  0
    5.3422   -1.4104   44.1698 N   0  0  0  0  0  0  0  0  0  0  0  0
  5 11  1  0
 15 16  1  0
  6 22  1  0
 21 22  1  0
  4  5  2  0
  5  6  1  0
  6  7  2  0
  8  3  2  0
  7  8  1  0
  8 12  1  0
 12 13  2  0
 13 14  1  0
 14 15  2  0
 15  7  1  0
  1  2  2  0
  2  9  1  0
  9 10  2  0
 10  4  1  0
  4  3  1  0
  3  1  1  0
 16 17  2  0
 17 18  1  0
 18 19  2  0
 19 20  1  0
 20 21  2  0
 21 16  1  0
M  END
$$$$
O14757_PocketFlow_idx-in-all-generaetd-12
     RDKit          3D

 35 37  0  0  0  0  0  0  0  0999 V2000
   -0.6395   -2.0713   41.4947 C   0  0  0  0  0  0  0  0  0  0  0  0
    0.6719   -2.2449   41.7518 C   0  0  2  0  0  0  0  0  0  0  0  0
    1.5951   -1.1948   41.6106 C   0  0  1  0  0  0  0  0  0  0  0  0
    2.8936   -1.2860   42.2441 C   0  0  0  0  0  0  0  0  0  0  0  0
    3.7940   -0.2219   42.2897 C   0  0  0  0  0  0  0  0  0  0  0  0
   -1.5784   -3.1018   41.3985 C   0  0  0  0  0  0  0  0  0  0  0  0
    4.9967   -0.3723   43.0615 C   0  0  0  0  0  0  0  0  0  0  0  0
    5.0079   -1.3984   43.9745 C   0  0  0  0  0  0  0  0  0  0  0  0
    4.0987   -2.4588   43.9784 C   0  0  0  0  0  0  0  0  0  0  0  0
    2.9940   -2.3185   43.1780 C   0  0  0  0  0  0  0  0  0  0  0  0
   -0.9307   -4.3451   41.4048 N   0  0  0  0  0  0  0  0  0  0  0  0
    4.2972   -3.6416   44.8225 C   0  0  0  0  0  0  0  0  0  0  0  0
    5.0327   -3.6178   45.9711 C   0  0  0  0  0  0  0  0  0  0  0  0
    5.0485   -4.8147   46.7747 C   0  0  0  0  0  0  0  0  0  0  0  0
    4.2448   -5.8819   46.3408 C   0  0  0  0  0  0  0  0  0  0  0  0
    3.6363   -4.8493   44.6142 C   0  0  0  0  0  0  0  0  0  0  0  0
    3.7003   -5.9330   45.2250 C   0  0  0  0  0  0  0  0  0  0  0  0
    0.7307   -3.7207   41.8088 C   0  0  0  0  0  0  0  0  0  0  0  0
    1.3657   -0.1404   40.7398 C   0  0  0  0  0  0  0  0  0  0  0  0
    5.8729   -4.8176   48.0225 C   0  0  0  0  0  0  0  0  0  0  0  0
    6.4522   -3.8269   48.4746 O   0  0  0  0  0  0  0  0  0  0  0  0
    6.1553   -5.9953   48.6121 N   0  0  0  0  0  0  0  0  0  0  0  0
    6.9239   -6.1935   49.8106 C   0  0  0  0  0  0  0  0  0  0  0  0
    6.7113   -7.6495   50.1545 C   0  0  0  0  0  0  0  0  0  0  0  0
    5.9739   -7.7760   50.8550 N   0  0  0  0  0  0  0  0  0  0  0  0
    4.9227   -8.8567   50.8467 C   0  0  0  0  0  0  0  0  0  0  0  0
    4.0466   -8.9056   51.9419 C   0  0  0  0  0  0  0  0  0  0  0  0
    2.7947   -8.5581   51.6898 O   0  0  0  0  0  0  0  0  0  0  0  0
    2.8371   -7.0786   44.8043 C   0  0  0  0  0  0  0  0  0  0  0  0
    1.7859   -6.9121   44.2246 O   0  0  0  0  0  0  0  0  0  0  0  0
    0.5918   -7.0343   45.0099 C   0  0  0  0  0  0  0  0  0  0  0  0
    0.4793   -6.6697   46.2611 C   0  0  2  0  0  0  0  0  0  0  0  0
   -0.9630   -6.6930   46.7827 C   0  0  0  0  0  0  0  0  0  0  0  0
   -1.8691   -6.6566   45.8711 O   0  0  0  0  0  0  0  0  0  0  0  0
    0.7565   -5.1939   46.4695 O   0  0  0  0  0  0  0  0  0  0  0  0
  2  1  1  6
  2  3  1  0
  3  4  1  0
  1  6  2  0
  6 11  1  0
  9 12  1  0
  2 18  1  0
 11 18  2  0
  3 19  1  6
 14 20  1  0
 20 21  2  0
 20 22  1  0
 22 23  1  0
 23 24  1  0
 24 25  1  0
 25 26  1  0
 26 27  1  0
 27 28  1  0
 17 29  1  0
 29 30  1  0
 30 31  1  0
 31 32  1  0
 32 33  1  0
 33 34  1  0
 32 35  1  6
 12 13  2  0
 13 14  1  0
 14 15  2  0
 15 17  1  0
 17 16  2  0
 16 12  1  0
  4  5  2  0
  5  7  1  0
  7  8  2  0
  8  9  1  0
  9 10  2  0
 10  4  1  0
M  END
$$$$
O14757_PocketFlow_idx-in-all-generaetd-13
     RDKit          3D

 35 39  0  0  0  0  0  0  0  0999 V2000
   -0.6395   -2.0713   41.4947 C   0  0  0  0  0  0  0  0  0  0  0  0
    0.1859   -1.1027   41.5970 C   0  0  0  0  0  0  0  0  0  0  0  0
   -2.0077   -1.8651   41.2044 C   0  0  0  0  0  0  0  0  0  0  0  0
    1.5974   -1.2445   41.7640 C   0  0  0  0  0  0  0  0  0  0  0  0
    2.5563   -0.2262   41.8331 C   0  0  0  0  0  0  0  0  0  0  0  0
    3.8717   -0.4554   42.2584 C   0  0  0  0  0  0  0  0  0  0  0  0
    4.1299   -1.6986   42.9429 C   0  0  0  0  0  0  0  0  0  0  0  0
    3.1038   -2.6042   43.1230 C   0  0  0  0  0  0  0  0  0  0  0  0
    3.3112   -3.7553   43.8517 C   0  0  0  0  0  0  0  0  0  0  0  0
    1.8780   -2.3817   42.5945 C   0  0  0  0  0  0  0  0  0  0  0  0
    2.3497   -4.6781   44.3445 C   0  0  0  0  0  0  0  0  0  0  0  0
    2.5998   -5.7829   45.0879 C   0  0  0  0  0  0  0  0  0  0  0  0
    3.9751   -5.9412   45.5210 C   0  0  0  0  0  0  0  0  0  0  0  0
    4.9075   -4.9888   45.2368 C   0  0  0  0  0  0  0  0  0  0  0  0
    4.6417   -3.9518   44.4621 C   0  0  0  0  0  0  0  0  0  0  0  0
   -2.3336   -0.5224   40.9665 C   0  0  0  0  0  0  0  0  0  0  0  0
   -3.6817   -0.2767   40.7249 N   0  0  0  0  0  0  0  0  0  0  0  0
    0.9337   -4.5013   43.8888 C   0  0  1  0  0  0  0  0  0  0  0  0
    0.0405   -5.2465   44.2876 F   0  0  0  0  0  0  0  0  0  0  0  0
    0.7047   -3.3066   43.0758 C   0  0  0  0  0  0  0  0  0  0  0  0
   -0.3162   -3.3235   42.2538 C   0  0  0  0  0  0  0  0  0  0  0  0
    4.8297    0.3852   42.0787 F   0  0  0  0  0  0  0  0  0  0  0  0
   -2.7597   -2.8078   40.7412 O   0  0  0  0  0  0  0  0  0  0  0  0
    4.2360   -7.0033   46.3541 O   0  0  0  0  0  0  0  0  0  0  0  0
    3.4028   -8.1085   46.4738 C   0  0  0  0  0  0  0  0  0  0  0  0
    4.0347   -9.0904   47.3631 C   0  0  0  0  0  0  0  0  0  0  0  0
    3.2930  -10.2819   47.5412 C   0  0  0  0  0  0  0  0  0  0  0  0
    1.9207  -10.2264   47.0743 C   0  0  0  0  0  0  0  0  0  0  0  0
    1.3867   -9.2415   46.3629 C   0  0  0  0  0  0  0  0  0  0  0  0
    2.1782   -8.1586   46.1046 C   0  0  0  0  0  0  0  0  0  0  0  0
    5.4129   -9.0097   47.8210 C   0  0  0  0  0  0  0  0  0  0  0  0
    5.8163   -8.0754   48.3437 O   0  0  0  0  0  0  0  0  0  0  0  0
    6.4100   -8.1701   49.6244 C   0  0  0  0  0  0  0  0  0  0  0  0
    6.4488   -7.8488   50.6270 C   0  0  0  0  0  0  0  0  0  0  0  0
    7.6069   -9.2889   49.4365 C   0  0  0  0  0  0  0  0  0  0  0  0
  1  3  1  0
  8  9  1  0
  3 16  1  0
 16 17  2  3
 11 18  1  0
 18 19  1  1
 18 20  1  0
  6 22  1  0
  3 23  2  0
 13 24  1  0
 24 25  1  0
 26 31  1  0
 31 32  1  0
 32 33  1  0
 33 34  2  0
 33 35  1  0
  1  2  2  0
  2  4  1  0
 10 20  1  0
 20 21  2  0
 21  1  1  0
 25 26  2  0
 26 27  1  0
 27 28  2  0
 28 29  1  0
 29 30  2  0
 30 25  1  0
  9 11  2  0
 11 12  1  0
 12 13  2  0
 13 14  1  0
 14 15  2  0
 15  9  1  0
  4  5  2  0
  5  6  1  0
  6  7  2  0
  7  8  1  0
  8 10  2  0
 10  4  1  0
M  END
$$$$
O14757_PocketFlow_idx-in-all-generaetd-14
     RDKit          3D

  9  9  0  0  0  0  0  0  0  0999 V2000
   -0.6395   -2.0713   41.4947 C   0  0  0  0  0  0  0  0  0  0  0  0
    0.1859   -1.1027   41.5970 C   0  0  0  0  0  0  0  0  0  0  0  0
   -0.2410   -3.3795   41.5297 C   0  0  0  0  0  0  0  0  0  0  0  0
    1.6125   -1.3641   41.8466 C   0  0  0  0  0  0  0  0  0  0  0  0
    1.9568   -2.7213   42.1561 C   0  0  0  0  0  0  0  0  0  0  0  0
    0.9568   -3.6932   42.0424 C   0  0  0  0  0  0  0  0  0  0  0  0
    2.5419   -0.3107   42.1030 C   0  0  0  0  0  0  0  0  0  0  0  0
    3.8498   -0.5462   42.5716 C   0  0  0  0  0  0  0  0  0  0  0  0
    4.1597   -1.6999   43.3407 C   0  0  0  0  0  0  0  0  0  0  0  0
  4  7  1  0
  7  8  1  0
  8  9  2  0
  1  2  2  0
  2  4  1  0
  4  5  2  0
  5  6  1  0
  6  3  2  0
  3  1  1  0
M  END
$$$$
O14757_PocketFlow_idx-in-all-generaetd-15
     RDKit          3D

 13 14  0  0  0  0  0  0  0  0999 V2000
    0.2881   -2.9111   42.4378 C   0  0  0  0  0  0  0  0  0  0  0  0
    1.1784   -3.4293   42.9321 C   0  0  0  0  0  0  0  0  0  0  0  0
    2.4696   -2.7231   42.8997 C   0  0  0  0  0  0  0  0  0  0  0  0
    2.5380   -1.5398   42.2487 C   0  0  0  0  0  0  0  0  0  0  0  0
    0.2254   -1.7181   41.6878 C   0  0  0  0  0  0  0  0  0  0  0  0
    1.4043   -1.0577   41.5785 C   0  0  0  0  0  0  0  0  0  0  0  0
    3.7804   -2.9549   43.6084 C   0  0  0  0  0  0  0  0  0  0  0  0
    3.9773   -4.0346   44.4854 C   0  0  0  0  0  0  0  0  0  0  0  0
    3.2698   -5.1415   44.5501 C   0  0  0  0  0  0  0  0  0  0  0  0
    4.5664   -1.7899   43.7907 C   0  0  0  0  0  0  0  0  0  0  0  0
    5.7388   -1.9832   44.6189 C   0  0  0  0  0  0  0  0  0  0  0  0
    5.1203   -3.9865   45.4164 C   0  0  0  0  0  0  0  0  0  0  0  0
    6.0043   -2.9188   45.4014 C   0  0  0  0  0  0  0  0  0  0  0  0
  3  7  1  0
  9  8  1  0
  7  8  2  0
  8 12  1  0
 12 13  2  0
 13 11  1  0
 11 10  2  0
 10  7  1  0
  1  2  2  0
  2  3  1  0
  3  4  2  0
  4  6  1  0
  6  5  2  0
  5  1  1  0
M  END
$$$$
O14757_PocketFlow_idx-in-all-generaetd-16
     RDKit          3D

 35 39  0  0  0  0  0  0  0  0999 V2000
   -0.6395   -2.0713   41.4947 C   0  0  0  0  0  0  0  0  0  0  0  0
    0.6719   -2.2449   41.7518 C   0  0  0  0  0  0  0  0  0  0  0  0
    1.5951   -1.1948   41.6106 C   0  0  0  0  0  0  0  0  0  0  0  0
    2.8936   -1.2860   42.2441 C   0  0  0  0  0  0  0  0  0  0  0  0
    3.0768   -1.4473   43.4477 C   0  0  0  0  0  0  0  0  0  0  0  0
    4.4977   -1.3423   43.9839 C   0  0  0  0  0  0  0  0  0  0  0  0
    5.2872   -0.2693   43.6438 C   0  0  0  0  0  0  0  0  0  0  0  0
    4.9281   -2.3746   44.9105 C   0  0  0  0  0  0  0  0  0  0  0  0
    4.3198   -3.6065   45.0045 C   0  0  0  0  0  0  0  0  0  0  0  0
    3.8497   -4.3395   43.9878 C   0  0  0  0  0  0  0  0  0  0  0  0
    3.3162   -5.6144   44.1559 C   0  0  0  0  0  0  0  0  0  0  0  0
    4.5792   -4.3045   46.2234 C   0  0  0  0  0  0  0  0  0  0  0  0
    5.1670   -3.4977   47.3494 C   0  0  0  0  0  0  0  0  0  0  0  0
   -1.1574   -0.7854   41.4496 C   0  0  0  0  0  0  0  0  0  0  0  0
    4.0348   -5.5858   46.3722 C   0  0  0  0  0  0  0  0  0  0  0  0
    3.4525   -6.2126   45.4157 C   0  0  0  0  0  0  0  0  0  0  0  0
    6.0389   -1.8727   45.7576 C   0  0  0  0  0  0  0  0  0  0  0  0
    6.0959   -2.5349   47.0399 C   0  0  0  0  0  0  0  0  0  0  0  0
   -2.5105   -0.6704   41.2236 N   0  0  0  0  0  0  0  0  0  0  0  0
    2.8896   -7.5919   45.5510 C   0  0  0  0  0  0  0  0  0  0  0  0
    1.9506   -7.8704   46.3915 N   0  0  0  0  0  0  0  0  0  0  0  0
    1.5338   -9.0486   46.7316 C   0  0  0  0  0  0  0  0  0  0  0  0
    0.2225   -9.1455   47.3327 C   0  0  0  0  0  0  0  0  0  0  0  0
   -0.5765   -8.0119   47.0094 C   0  0  2  0  0  0  0  0  0  0  0  0
   -0.0130   -6.8456   46.5097 C   0  0  2  0  0  0  0  0  0  0  0  0
   -0.9276   -5.8315   46.3117 F   0  0  0  0  0  0  0  0  0  0  0  0
    1.2736   -6.9007   45.9441 C   0  0  0  0  0  0  0  0  0  0  0  0
   -3.2026   -1.6202   40.6689 C   0  0  0  0  0  0  0  0  0  0  0  0
   -2.6505   -2.8799   40.5665 N   0  0  0  0  0  0  0  0  0  0  0  0
   -1.4147   -3.0799   40.9806 C   0  0  0  0  0  0  0  0  0  0  0  0
   -4.4492   -1.5375   40.2606 N   0  0  0  0  0  0  0  0  0  0  0  0
    4.9305    0.3464   42.4144 N   0  0  0  0  0  0  0  0  0  0  0  0
    3.6725    0.0504   41.8854 C   0  0  0  0  0  0  0  0  0  0  0  0
    2.3296  -10.0406   46.9216 O   0  0  0  0  0  0  0  0  0  0  0  0
   -2.0301   -7.9848   47.5314 C   0  0  0  0  0  0  0  0  0  0  0  0
  1  2  1  0
  2  3  1  0
  3  4  1  0
  6  8  1  0
 16 20  1  0
 20 21  1  0
 21 22  1  0
 22 23  1  0
 23 24  1  0
 25 26  1  6
 21 27  1  0
 25 27  1  0
 28 31  1  0
 22 34  2  0
 24 35  1  1
 24 25  1  0
  1 14  2  0
 14 19  1  0
 19 28  2  0
 28 29  1  0
 29 30  2  0
 30  1  1  0
  9 10  2  0
 10 11  1  0
 11 16  2  0
 16 15  1  0
 15 12  2  0
  4  5  2  0
  5  6  1  0
  6  7  2  0
  7 32  1  0
 32 33  2  0
 33  4  1  0
  8  9  1  0
  9 12  1  0
 12 13  1  0
 13 18  2  0
 18 17  1  0
 17  8  2  0
M  END
$$$$
O14757_PocketFlow_idx-in-all-generaetd-17
     RDKit          3D

 21 22  0  0  0  0  0  0  0  0999 V2000
   -0.6395   -2.0713   41.4947 C   0  0  0  0  0  0  0  0  0  0  0  0
    0.6719   -2.2449   41.7518 C   0  0  0  0  0  0  0  0  0  0  0  0
    1.5951   -1.1948   41.6106 C   0  0  0  0  0  0  0  0  0  0  0  0
    2.9587   -1.3961   42.0240 C   0  0  0  0  0  0  0  0  0  0  0  0
    3.8815   -0.3441   42.0598 C   0  0  0  0  0  0  0  0  0  0  0  0
    5.0972   -0.5585   42.8399 C   0  0  0  0  0  0  0  0  0  0  0  0
    5.2535   -1.6826   43.6335 C   0  0  0  0  0  0  0  0  0  0  0  0
    4.2210   -2.6732   43.6342 C   0  0  0  0  0  0  0  0  0  0  0  0
    3.0784   -2.4692   42.9029 C   0  0  0  0  0  0  0  0  0  0  0  0
   -1.5003   -3.1795   41.5533 C   0  0  0  0  0  0  0  0  0  0  0  0
   -0.8815   -4.3736   41.6529 N   0  0  0  0  0  0  0  0  0  0  0  0
    4.3843   -3.8939   44.4314 C   0  0  0  0  0  0  0  0  0  0  0  0
    3.8355   -4.1471   45.4118 N   0  0  0  0  0  0  0  0  0  0  0  0
    3.2705   -5.3232   45.8648 C   0  0  0  0  0  0  0  0  0  0  0  0
    1.8996   -5.5791   45.3799 C   0  0  0  0  0  0  0  0  0  0  0  0
    0.9541   -4.5994   45.5864 C   0  0  0  0  0  0  0  0  0  0  0  0
    1.4808   -6.7558   44.7841 C   0  0  0  0  0  0  0  0  0  0  0  0
    0.1902   -6.9236   44.2985 C   0  0  0  0  0  0  0  0  0  0  0  0
   -0.4160   -4.6979   45.2519 C   0  0  0  0  0  0  0  0  0  0  0  0
   -0.7152   -5.9458   44.5902 C   0  0  0  0  0  0  0  0  0  0  0  0
   -1.0790   -0.6917   41.3513 C   0  0  0  0  0  0  0  0  0  0  0  0
  1  2  1  0
  2  3  2  3
  3  4  1  0
  1 10  2  3
 10 11  1  0
  8 12  1  0
 12 13  1  0
 13 14  1  0
 14 15  1  0
  1 21  1  0
 15 16  2  0
 16 19  1  0
 19 20  2  0
 20 18  1  0
 18 17  2  0
 17 15  1  0
  4  5  2  0
  5  6  1  0
  6  7  2  0
  7  8  1  0
  8  9  2  0
  9  4  1  0
M  END
$$$$
O14757_PocketFlow_idx-in-all-generaetd-18
     RDKit          3D

 35 38  0  0  0  0  0  0  0  0999 V2000
    0.2881   -2.9111   42.4378 C   0  0  0  0  0  0  0  0  0  0  0  0
    1.1784   -3.4293   42.9321 C   0  0  0  0  0  0  0  0  0  0  0  0
    2.4507   -2.7243   42.9621 C   0  0  0  0  0  0  0  0  0  0  0  0
    2.5762   -1.5430   42.3314 C   0  0  0  0  0  0  0  0  0  0  0  0
    0.2682   -1.7017   41.6882 C   0  0  0  0  0  0  0  0  0  0  0  0
    1.4524   -1.0424   41.6523 C   0  0  0  0  0  0  0  0  0  0  0  0
    3.7561   -3.0398   43.6850 C   0  0  0  0  0  0  0  0  0  0  0  0
    3.9126   -4.2524   44.4302 C   0  0  0  0  0  0  0  0  0  0  0  0
    5.0926   -4.3649   45.1605 C   0  0  0  0  0  0  0  0  0  0  0  0
    4.9444   -2.2514   43.5992 C   0  0  0  0  0  0  0  0  0  0  0  0
    5.9634   -2.2835   44.4598 C   0  0  0  0  0  0  0  0  0  0  0  0
    7.0585   -1.3053   44.5004 C   0  0  0  0  0  0  0  0  0  0  0  0
    6.0913   -3.4419   45.3272 C   0  0  0  0  0  0  0  0  0  0  0  0
   -0.8834   -1.2189   41.1137 O   0  0  0  0  0  0  0  0  0  0  0  0
   -2.0675   -1.9355   41.2867 C   0  0  0  0  0  0  0  0  0  0  0  0
   -3.2479   -1.4377   40.4895 C   0  0  0  0  0  0  0  0  0  0  0  0
   -3.8906   -2.2558   39.8288 O   0  0  0  0  0  0  0  0  0  0  0  0
   -3.5502   -0.2296   40.6320 O   0  0  0  0  0  0  0  0  0  0  0  0
    6.7129   -0.0447   44.6125 N   0  0  0  0  0  0  0  0  0  0  0  0
    7.8961   -1.5684   45.8495 C   0  0  0  0  0  0  0  0  0  0  0  0
    7.9282   -2.5702   46.6087 C   0  0  0  0  0  0  0  0  0  0  0  0
    6.9969   -3.5543   46.3904 C   0  0  0  0  0  0  0  0  0  0  0  0
    1.6059    0.1211   41.0304 F   0  0  0  0  0  0  0  0  0  0  0  0
    8.9523   -2.7536   47.6447 C   0  0  0  0  0  0  0  0  0  0  0  0
    8.6110   -3.3879   48.8278 C   0  0  0  0  0  0  0  0  0  0  0  0
    9.0789   -3.3258   49.8791 C   0  0  0  0  0  0  0  0  0  0  0  0
    9.2394   -2.5403   50.5162 C   0  0  0  0  0  0  0  0  0  0  0  0
    9.6449   -2.3605   51.9368 C   0  0  0  0  0  0  0  0  0  0  0  0
    9.6259   -3.5407   52.5704 C   0  0  0  0  0  0  0  0  0  0  0  0
    8.9734   -4.6319   50.7802 C   0  0  0  0  0  0  0  0  0  0  0  0
    8.6516   -5.7932   50.1147 N   0  0  0  0  0  0  0  0  0  0  0  0
    9.3179   -4.6481   52.0696 C   0  0  0  0  0  0  0  0  0  0  0  0
    9.5020   -6.4982   49.5561 C   0  0  0  0  0  0  0  0  0  0  0  0
    9.4723   -7.5482   49.1555 C   0  0  0  0  0  0  0  0  0  0  0  0
    8.2353   -8.3185   49.2410 C   0  0  0  0  0  0  0  0  0  0  0  0
  3  7  1  0
  5 14  1  0
 14 15  1  0
 15 16  1  0
 16 17  1  0
 16 18  2  0
 12 19  1  0
  6 23  1  0
 21 24  1  0
 24 25  2  3
 25 26  1  0
 30 31  1  0
 31 33  1  0
 33 34  2  3
 34 35  1  0
 11 12  1  0
 12 20  2  0
 20 21  1  0
 21 22  2  0
 22 13  1  0
  1  2  2  0
  2  3  1  0
  3  4  2  0
  4  6  1  0
  6  5  2  0
  5  1  1  0
 26 27  2  0
 27 28  1  0
 28 29  2  0
 29 32  1  0
 32 30  2  0
 30 26  1  0
  7  8  2  0
  8  9  1  0
  9 13  2  0
 13 11  1  0
 11 10  2  0
 10  7  1  0
M  END
$$$$
O14757_PocketFlow_idx-in-all-generaetd-19
     RDKit          3D

 32 37  0  0  0  0  0  0  0  0999 V2000
   -0.6395   -2.0713   41.4947 C   0  0  0  0  0  0  0  0  0  0  0  0
   -0.2671   -3.2464   41.6546 C   0  0  0  0  0  0  0  0  0  0  0  0
    0.2277   -0.9875   41.6495 C   0  0  0  0  0  0  0  0  0  0  0  0
    1.6284   -1.2752   41.8841 C   0  0  0  0  0  0  0  0  0  0  0  0
    1.9209   -2.6657   42.2361 C   0  0  0  0  0  0  0  0  0  0  0  0
    0.9459   -3.6290   42.1337 C   0  0  0  0  0  0  0  0  0  0  0  0
    2.5663   -0.2443   42.1477 C   0  0  0  0  0  0  0  0  0  0  0  0
    3.9004   -0.5388   42.5613 C   0  0  0  0  0  0  0  0  0  0  0  0
    4.8726    0.4822   42.8152 C   0  0  0  0  0  0  0  0  0  0  0  0
   -1.9680   -1.7814   41.0841 N   0  0  0  0  0  0  0  0  0  0  0  0
    4.2799   -1.8690   42.8748 C   0  0  0  0  0  0  0  0  0  0  0  0
    3.2944   -2.7092   42.8488 C   0  0  0  0  0  0  0  0  0  0  0  0
   -2.6163   -0.5816   41.2849 C   0  0  0  0  0  0  0  0  0  0  0  0
   -2.7589   -2.7229   40.4587 C   0  0  0  0  0  0  0  0  0  0  0  0
   -3.8219   -0.4336   40.7938 N   0  0  0  0  0  0  0  0  0  0  0  0
   -4.3767   -1.2958   40.0071 C   0  0  0  0  0  0  0  0  0  0  0  0
   -3.8777   -2.4659   39.9033 N   0  0  0  0  0  0  0  0  0  0  0  0
    5.8996    0.1101   43.5867 O   0  0  0  0  0  0  0  0  0  0  0  0
    5.9068   -1.0237   44.3581 C   0  0  0  0  0  0  0  0  0  0  0  0
    4.9886   -1.9349   44.2960 C   0  0  0  0  0  0  0  0  0  0  0  0
    7.0959   -1.1837   45.2311 C   0  0  0  0  0  0  0  0  0  0  0  0
    7.2854   -2.4751   45.9383 C   0  0  0  0  0  0  0  0  0  0  0  0
    8.4292   -2.7236   46.6735 C   0  0  0  0  0  0  0  0  0  0  0  0
    9.4720   -1.7829   46.7640 C   0  0  0  0  0  0  0  0  0  0  0  0
   10.5886   -1.9947   47.5939 C   0  0  0  0  0  0  0  0  0  0  0  0
   10.7292   -3.1635   48.2320 C   0  0  0  0  0  0  0  0  0  0  0  0
    9.7068   -4.1434   48.0823 C   0  0  0  0  0  0  0  0  0  0  0  0
    8.5814   -3.9504   47.3079 C   0  0  0  0  0  0  0  0  0  0  0  0
    6.2815   -3.4543   45.8783 C   0  0  0  0  0  0  0  0  0  0  0  0
    5.1559   -3.1499   44.8795 C   0  0  0  0  0  0  0  0  0  0  0  0
    4.1326   -4.1841   44.7638 C   0  0  0  0  0  0  0  0  0  0  0  0
    3.8434   -5.2465   45.6880 C   0  0  0  0  0  0  0  0  0  0  0  0
  8  9  1  0
  1 10  1  0
 10 13  1  0
 10 14  1  0
 13 15  1  0
 14 17  1  0
  9 18  1  0
 18 19  1  0
 11 20  1  0
 22 23  1  0
 30 31  1  0
 31 32  2  0
 15 16  1  0
 16 17  1  0
 23 24  2  0
 24 25  1  0
 25 26  2  0
 26 27  1  0
 27 28  2  0
 28 23  1  0
 19 20  2  0
 20 30  1  0
 30 29  2  0
 29 22  1  0
 22 21  2  0
 21 19  1  0
  1  2  2  0
  2  6  1  0
  6  5  2  0
  4  3  2  0
  3  1  1  0
  4  5  1  0
  5 12  1  0
 12 11  2  0
 11  8  1  0
  8  7  2  0
  7  4  1  0
M  END
$$$$
O14757_PocketFlow_idx-in-all-generaetd-20
     RDKit          3D

 17 18  0  0  0  0  0  0  0  0999 V2000
   -0.6395   -2.0713   41.4947 C   0  0  0  0  0  0  0  0  0  0  0  0
   -0.2671   -3.2464   41.6546 C   0  0  0  0  0  0  0  0  0  0  0  0
    0.2407   -0.9706   41.5952 C   0  0  0  0  0  0  0  0  0  0  0  0
    1.6195   -1.2958   41.8767 C   0  0  0  0  0  0  0  0  0  0  0  0
    1.9162   -2.6816   42.2016 C   0  0  0  0  0  0  0  0  0  0  0  0
    0.9422   -3.6324   42.1156 C   0  0  0  0  0  0  0  0  0  0  0  0
    2.6088   -0.2775   42.1300 C   0  0  0  0  0  0  0  0  0  0  0  0
    3.5975   -0.3645   43.1012 C   0  0  0  0  0  0  0  0  0  0  0  0
    4.9165    0.1322   42.8110 C   0  0  0  0  0  0  0  0  0  0  0  0
   -2.2816   -1.7059   40.9650 Cl  0  0  0  0  0  0  0  0  0  0  0  0
    5.8951   -0.2581   43.8078 C   0  0  0  0  0  0  0  0  0  0  0  0
    5.6899   -1.2150   44.8257 C   0  0  0  0  0  0  0  0  0  0  0  0
    4.3924   -1.7744   44.8981 C   0  0  0  0  0  0  0  0  0  0  0  0
    3.5071   -1.4209   44.0444 C   0  0  0  0  0  0  0  0  0  0  0  0
    6.9855   -1.5958   45.8294 Cl  0  0  0  0  0  0  0  0  0  0  0  0
    2.4978    0.7702   41.3871 O   0  0  0  0  0  0  0  0  0  0  0  0
    4.1562   -2.9839   46.1152 Cl  0  0  0  0  0  0  0  0  0  0  0  0
  4  7  1  0
  7  8  1  0
  1 10  1  0
 12 15  1  0
  7 16  2  0
 13 17  1  0
  1  2  2  0
  2  6  1  0
  6  5  2  0
  5  4  1  0
  4  3  2  0
  3  1  1  0
  8  9  2  0
  9 11  1  0
 11 12  2  0
 12 13  1  0
 13 14  2  0
 14  8  1  0
M  END
$$$$
O14757_PocketFlow_idx-in-all-generaetd-21
     RDKit          3D

 25 28  0  0  0  0  0  0  0  0999 V2000
   -0.6395   -2.0713   41.4947 C   0  0  0  0  0  0  0  0  0  0  0  0
   -0.2671   -3.2464   41.6546 C   0  0  0  0  0  0  0  0  0  0  0  0
    0.2277   -0.9875   41.6495 C   0  0  0  0  0  0  0  0  0  0  0  0
    1.6284   -1.2752   41.8841 C   0  0  0  0  0  0  0  0  0  0  0  0
    1.8971   -2.6873   42.1685 C   0  0  0  0  0  0  0  0  0  0  0  0
    0.9380   -3.6379   42.0922 C   0  0  0  0  0  0  0  0  0  0  0  0
    2.7163   -0.4446   42.1633 C   0  0  0  0  0  0  0  0  0  0  0  0
    3.9551   -0.7433   42.6411 C   0  0  0  0  0  0  0  0  0  0  0  0
    4.9529    0.2021   42.9204 C   0  0  0  0  0  0  0  0  0  0  0  0
   -2.0614   -1.7343   41.0703 C   0  0  0  0  0  0  0  0  0  0  0  0
   -2.8145   -2.6636   40.5375 N   0  0  0  0  0  0  0  0  0  0  0  0
   -2.6754   -0.5963   41.4888 N   0  0  0  0  0  0  0  0  0  0  0  0
    4.2438   -2.0792   42.9913 C   0  0  0  0  0  0  0  0  0  0  0  0
    3.1685   -2.9518   42.8293 C   0  0  0  0  0  0  0  0  0  0  0  0
   -3.8718   -0.5442   40.8350 C   0  0  0  0  0  0  0  0  0  0  0  0
   -4.0261   -1.8176   40.2107 C   0  0  0  0  0  0  0  0  0  0  0  0
    5.9150   -0.0356   43.7615 O   0  0  0  0  0  0  0  0  0  0  0  0
    5.1219    1.1291   42.0282 O   0  0  0  0  0  0  0  0  0  0  0  0
    5.2193   -2.5248   43.7127 O   0  0  0  0  0  0  0  0  0  0  0  0
    5.1138   -2.7580   45.0409 C   0  0  0  0  0  0  0  0  0  0  0  0
    4.2393   -3.5805   45.6690 C   0  0  0  0  0  0  0  0  0  0  0  0
    4.4243   -3.8845   47.0049 C   0  0  0  0  0  0  0  0  0  0  0  0
    6.2066   -2.2265   45.9001 C   0  0  0  0  0  0  0  0  0  0  0  0
    6.5006   -2.7269   47.1431 C   0  0  0  0  0  0  0  0  0  0  0  0
    5.5463   -3.5214   47.7258 C   0  0  0  0  0  0  0  0  0  0  0  0
  8  9  1  0
  1 10  1  0
 10 11  1  0
 10 12  2  0
 12 15  1  0
 11 16  1  0
 15 16  2  0
  9 17  1  0
  9 18  2  0
 13 19  1  0
 19 20  1  0
  1  2  2  0
  2  6  1  0
  6  5  2  0
  4  3  2  0
  3  1  1  0
 20 21  2  0
 21 22  1  0
 22 25  2  0
 25 24  1  0
 24 23  2  0
 23 20  1  0
  4  5  1  0
  5 14  1  0
 14 13  2  0
 13  8  1  0
  8  7  2  0
  7  4  1  0
M  END
$$$$
O14757_PocketFlow_idx-in-all-generaetd-22
     RDKit          3D

 15 16  0  0  0  0  0  0  0  0999 V2000
    0.2881   -2.9111   42.4378 C   0  0  0  0  0  0  0  0  0  0  0  0
   -0.0650   -2.5021   41.5798 C   0  0  0  0  0  0  0  0  0  0  0  0
    1.6108   -3.5167   42.6657 C   0  0  0  0  0  0  0  0  0  0  0  0
    2.0262   -4.1022   43.9169 C   0  0  0  0  0  0  0  0  0  0  0  0
    0.9628   -4.5654   44.7705 C   0  0  0  0  0  0  0  0  0  0  0  0
    1.0204   -4.9444   45.6975 C   0  0  0  0  0  0  0  0  0  0  0  0
    0.9323   -1.6999   40.7432 C   0  0  0  0  0  0  0  0  0  0  0  0
   -0.1897   -5.3790   46.4442 C   0  0  0  0  0  0  0  0  0  0  0  0
    2.2532   -1.7268   41.2515 C   0  0  0  0  0  0  0  0  0  0  0  0
    2.5559   -2.4768   42.3790 C   0  0  0  0  0  0  0  0  0  0  0  0
    3.3139   -4.3698   44.2431 C   0  0  0  0  0  0  0  0  0  0  0  0
    3.5658   -5.1604   45.4705 C   0  0  0  0  0  0  0  0  0  0  0  0
    2.3412   -5.4499   46.3020 C   0  0  0  0  0  0  0  0  0  0  0  0
   -1.3365   -2.3880   41.0902 N   0  0  0  0  0  0  0  0  0  0  0  0
   -0.3100   -6.6141   46.6963 O   0  0  0  0  0  0  0  0  0  0  0  0
  3  4  1  0
  2 14  1  0
  8 15  1  0
  8  6  1  0
  1  2  2  0
  2  7  1  0
  7  9  2  0
  9 10  1  0
 10  3  2  0
  3  1  1  0
  4  5  2  0
  5  6  1  0
  6 13  2  0
 13 12  1  0
 12 11  2  0
 11  4  1  0
M  END
$$$$
O14757_PocketFlow_idx-in-all-generaetd-23
     RDKit          3D

 14 15  0  0  0  0  0  0  0  0999 V2000
   -0.8794   -1.9236   41.9357 O   0  0  0  0  0  0  0  0  0  0  0  0
    0.3070   -1.6014   41.6735 C   0  0  0  0  0  0  0  0  0  0  0  0
    0.7891   -0.3588   41.5614 N   0  0  0  0  0  0  0  0  0  0  0  0
    2.1313   -0.1012   41.7576 C   0  0  0  0  0  0  0  0  0  0  0  0
    2.8612   -1.1825   42.1024 N   0  0  0  0  0  0  0  0  0  0  0  0
    2.4642   -2.0642   42.8093 C   0  0  2  0  0  0  0  0  0  0  0  0
    3.2369   -3.0889   43.3506 C   0  0  0  0  0  0  0  0  0  0  0  0
    1.0441   -2.5700   42.6315 C   0  0  2  0  0  0  0  0  0  0  0  0
    4.5630   -2.5988   43.9320 C   0  0  0  0  0  0  0  0  0  0  0  0
    5.2751   -3.2650   44.9109 C   0  0  0  0  0  0  0  0  0  0  0  0
    4.7363   -4.4804   45.3812 C   0  0  0  0  0  0  0  0  0  0  0  0
    2.8565   -4.0855   44.3095 C   0  0  0  0  0  0  0  0  0  0  0  0
    3.4660   -4.8167   45.1453 C   0  0  0  0  0  0  0  0  0  0  0  0
    0.4970   -3.7401   42.9471 C   0  0  0  0  0  0  0  0  0  0  0  0
  1  2  2  0
  2  3  1  0
  3  4  1  0
  4  5  1  0
  5  6  1  0
  6  7  1  6
  2  8  1  0
  6  8  1  0
  8 14  1  6
  7  9  2  0
  9 10  1  0
 10 11  2  0
 11 13  1  0
 13 12  2  0
 12  7  1  0
M  END
$$$$
O14757_PocketFlow_idx-in-all-generaetd-24
     RDKit          3D

 10 10  0  0  0  0  0  0  0  0999 V2000
    0.2881   -2.9111   42.4378 C   0  0  0  0  0  0  0  0  0  0  0  0
   -0.0650   -2.5021   41.5798 C   0  0  0  0  0  0  0  0  0  0  0  0
    1.6108   -3.5167   42.6657 C   0  0  0  0  0  0  0  0  0  0  0  0
    2.0262   -4.1022   43.9169 C   0  0  0  0  0  0  0  0  0  0  0  0
    3.3116   -4.3084   44.3274 C   0  0  0  0  0  0  0  0  0  0  0  0
    3.6450   -5.1190   45.4311 C   0  0  0  0  0  0  0  0  0  0  0  0
   -1.4394   -2.0612   41.3929 C   0  0  0  0  0  0  0  0  0  0  0  0
    2.5476   -5.6667   46.0877 C   0  0  0  0  0  0  0  0  0  0  0  0
    1.2661   -5.5240   45.7305 C   0  0  0  0  0  0  0  0  0  0  0  0
    0.9667   -4.7252   44.5486 C   0  0  0  0  0  0  0  0  0  0  0  0
  1  2  2  3
  1  3  1  0
  3  4  1  0
  2  7  1  0
  4  5  2  0
  5  6  1  0
  6  8  2  0
  8  9  1  0
  9 10  2  0
 10  4  1  0
M  END
$$$$
O14757_PocketFlow_idx-in-all-generaetd-25
     RDKit          3D

 35 38  0  0  0  0  0  0  0  0999 V2000
   -0.6395   -2.0713   41.4947 C   0  0  0  0  0  0  0  0  0  0  0  0
    0.1859   -1.1027   41.5970 C   0  0  0  0  0  0  0  0  0  0  0  0
    1.5836   -1.3270   41.4670 C   0  0  0  0  0  0  0  0  0  0  0  0
   -0.2462   -3.3905   41.2409 C   0  0  0  0  0  0  0  0  0  0  0  0
    2.5675   -0.3473   41.7943 C   0  0  0  0  0  0  0  0  0  0  0  0
    3.8546   -0.6776   42.2362 C   0  0  2  0  0  0  0  0  0  0  0  0
    4.0126   -1.8382   43.0706 C   0  0  0  0  0  0  0  0  0  0  0  0
    5.0976   -2.0692   43.9469 C   0  0  0  0  0  0  0  0  0  0  0  0
    5.1390   -3.2028   44.7700 C   0  0  0  0  0  0  0  0  0  0  0  0
    4.1210   -4.2158   44.5930 C   0  0  0  0  0  0  0  0  0  0  0  0
    2.9865   -3.9078   43.8234 C   0  0  0  0  0  0  0  0  0  0  0  0
    2.9293   -2.7349   43.0940 C   0  0  0  0  0  0  0  0  0  0  0  0
    1.6878   -2.4625   42.3476 C   0  0  0  0  0  0  0  0  0  0  0  0
    0.9249   -3.6868   41.7286 C   0  0  0  0  0  0  0  0  0  0  0  0
   -2.1530   -1.7556   41.3912 C   0  0  0  0  0  0  0  0  0  0  0  0
   -2.4625   -0.6965   41.9188 F   0  0  0  0  0  0  0  0  0  0  0  0
   -2.5605   -2.0162   40.1391 F   0  0  0  0  0  0  0  0  0  0  0  0
    6.2931   -3.4189   45.6607 C   0  0  0  0  0  0  0  0  0  0  0  0
    7.2090   -2.3352   45.8328 C   0  0  0  0  0  0  0  0  0  0  0  0
    8.2858   -2.5665   46.7016 C   0  0  0  0  0  0  0  0  0  0  0  0
    8.3578   -3.6796   47.5440 C   0  0  0  0  0  0  0  0  0  0  0  0
    7.2629   -4.5797   47.4479 C   0  0  0  0  0  0  0  0  0  0  0  0
    6.2693   -4.3980   46.6142 C   0  0  0  0  0  0  0  0  0  0  0  0
    4.7569    0.2811   42.3498 F   0  0  0  0  0  0  0  0  0  0  0  0
    9.3865   -1.5462   46.6989 C   0  0  0  0  0  0  0  0  0  0  0  0
    9.9450   -1.3712   47.7618 O   0  0  0  0  0  0  0  0  0  0  0  0
    9.6452   -0.8582   45.6478 O   0  0  0  0  0  0  0  0  0  0  0  0
    9.5074   -1.3238   48.9766 C   0  0  0  0  0  0  0  0  0  0  0  0
   10.5625   -1.0805   50.0553 C   0  0  0  0  0  0  0  0  0  0  0  0
   11.2971   -0.1933   49.9549 N   0  0  0  0  0  0  0  0  0  0  0  0
   11.4586    0.7960   50.8719 C   0  0  0  0  0  0  0  0  0  0  0  0
   12.7031   -0.5663   49.5770 C   0  0  0  0  0  0  0  0  0  0  0  0
    7.3584   -5.7459   48.3870 C   0  0  0  0  0  0  0  0  0  0  0  0
    6.4564   -6.5890   48.3890 O   0  0  0  0  0  0  0  0  0  0  0  0
    8.2834   -5.8163   49.2907 O   0  0  0  0  0  0  0  0  0  0  0  0
  3  5  1  0
  5  6  1  0
  6  7  1  0
 12 13  1  0
  1 15  1  0
 15 16  1  0
 15 17  1  0
  9 18  1  0
  6 24  1  1
 20 25  1  0
 25 26  1  0
 25 27  2  0
 26 28  1  0
 28 29  1  0
 29 30  1  0
 30 31  1  0
 30 32  1  0
 22 33  1  0
 33 34  1  0
 33 35  2  0
 18 19  2  0
 19 20  1  0
 20 21  2  0
 21 22  1  0
 22 23  2  0
 23 18  1  0
  1  2  2  0
  2  3  1  0
  3 13  2  0
 13 14  1  0
 14  4  2  0
  4  1  1  0
  7  8  2  0
  8  9  1  0
  9 10  2  0
 10 11  1  0
 11 12  2  0
 12  7  1  0
M  END
$$$$
O14757_PocketFlow_idx-in-all-generaetd-26
     RDKit          3D

 14 15  0  0  0  0  0  0  0  0999 V2000
   -0.6395   -2.0713   41.4947 C   0  0  0  0  0  0  0  0  0  0  0  0
   -0.2671   -3.2464   41.6546 C   0  0  0  0  0  0  0  0  0  0  0  0
    0.2277   -0.9875   41.6495 C   0  0  0  0  0  0  0  0  0  0  0  0
    1.6284   -1.2752   41.8841 C   0  0  0  0  0  0  0  0  0  0  0  0
    1.8971   -2.6873   42.1685 C   0  0  0  0  0  0  0  0  0  0  0  0
    0.9380   -3.6379   42.0922 C   0  0  0  0  0  0  0  0  0  0  0  0
    2.7454   -0.1174   42.1854 Cl  0  0  0  0  0  0  0  0  0  0  0  0
   -2.2524   -1.6571   40.9576 Cl  0  0  0  0  0  0  0  0  0  0  0  0
    3.2118   -2.9076   42.8309 C   0  0  0  0  0  0  0  0  0  0  0  0
    3.3557   -3.9989   43.7083 C   0  0  0  0  0  0  0  0  0  0  0  0
    4.5182   -4.0483   44.5340 C   0  0  0  0  0  0  0  0  0  0  0  0
    5.4456   -2.9873   44.5085 C   0  0  0  0  0  0  0  0  0  0  0  0
    5.1826   -1.8092   43.6915 C   0  0  0  0  0  0  0  0  0  0  0  0
    4.0452   -1.7534   42.9465 C   0  0  0  0  0  0  0  0  0  0  0  0
  4  7  1  0
  1  8  1  0
  5  9  1  0
  1  2  2  0
  2  6  1  0
  6  5  2  0
  5  4  1  0
  4  3  2  0
  3  1  1  0
  9 10  2  0
 10 11  1  0
 11 12  2  0
 12 13  1  0
 13 14  2  0
 14  9  1  0
M  END
$$$$
O14757_PocketFlow_idx-in-all-generaetd-27
     RDKit          3D

 17 17  0  0  0  0  0  0  0  0999 V2000
    0.2881   -2.9111   42.4378 C   0  0  0  0  0  0  0  0  0  0  0  0
   -0.0650   -2.5021   41.5798 C   0  0  0  0  0  0  0  0  0  0  0  0
    1.6108   -3.5167   42.6657 C   0  0  0  0  0  0  0  0  0  0  0  0
    2.0262   -4.1022   43.9169 C   0  0  0  0  0  0  0  0  0  0  0  0
    3.3116   -4.3084   44.3274 C   0  0  0  0  0  0  0  0  0  0  0  0
    3.6450   -5.1190   45.4311 C   0  0  0  0  0  0  0  0  0  0  0  0
   -1.4394   -2.0612   41.3929 C   0  0  0  0  0  0  0  0  0  0  0  0
    4.9514   -5.1215   45.9119 C   0  0  0  0  0  0  0  0  0  0  0  0
    5.7243   -3.9244   45.6595 C   0  0  0  0  0  0  0  0  0  0  0  0
    5.2658   -2.9163   44.7851 C   0  0  0  0  0  0  0  0  0  0  0  0
    6.0795   -1.7696   44.4581 C   0  0  0  0  0  0  0  0  0  0  0  0
    4.1106   -3.0979   44.1844 C   0  0  0  0  0  0  0  0  0  0  0  0
    7.1497   -1.4748   45.3045 C   0  0  0  0  0  0  0  0  0  0  0  0
    0.8892   -4.4831   44.8001 C   0  0  0  0  0  0  0  0  0  0  0  0
    0.2299   -5.5872   44.3471 F   0  0  0  0  0  0  0  0  0  0  0  0
    0.0162   -3.4917   45.0693 F   0  0  0  0  0  0  0  0  0  0  0  0
    1.1128   -4.7938   46.1223 F   0  0  0  0  0  0  0  0  0  0  0  0
  1  2  2  3
  1  3  1  0
  3  4  1  0
  4  5  1  0
  2  7  1  0
 11 13  1  0
  4 14  1  0
 14 15  1  0
 14 16  1  0
 14 17  1  0
 11 10  1  0
  5  6  2  0
  6  8  1  0
  8  9  2  0
  9 10  1  0
 10 12  2  0
 12  5  1  0
M  END
$$$$
O14757_PocketFlow_idx-in-all-generaetd-28
     RDKit          3D

 23 22  0  0  0  0  0  0  0  0999 V2000
    0.2881   -2.9111   42.4378 C   0  0  0  0  0  0  0  0  0  0  0  0
   -0.0650   -2.5021   41.5798 C   0  0  0  0  0  0  0  0  0  0  0  0
    1.6108   -3.5167   42.6657 C   0  0  0  0  0  0  0  0  0  0  0  0
    2.0262   -4.1022   43.9169 C   0  0  0  0  0  0  0  0  0  0  0  0
    3.3116   -4.3084   44.3274 C   0  0  0  0  0  0  0  0  0  0  0  0
    3.6450   -5.1190   45.4311 C   0  0  0  0  0  0  0  0  0  0  0  0
    4.9256   -4.9481   45.9997 C   0  0  0  0  0  0  0  0  0  0  0  0
    5.0585   -3.6549   46.6573 C   0  0  0  0  0  0  0  0  0  0  0  0
    6.2627   -3.4516   47.4399 C   0  0  0  0  0  0  0  0  0  0  0  0
   -1.4026   -1.9612   41.4601 C   0  0  0  0  0  0  0  0  0  0  0  0
    7.3060   -4.3689   47.2621 C   0  0  0  0  0  0  0  0  0  0  0  0
    8.6439   -3.7128   46.9440 C   0  0  0  0  0  0  0  0  0  0  0  0
    8.6322   -2.3845   46.5825 C   0  0  0  0  0  0  0  0  0  0  0  0
    7.6142   -1.8318   45.8694 C   0  0  0  0  0  0  0  0  0  0  0  0
    6.7731   -2.3573   45.0261 C   0  0  0  0  0  0  0  0  0  0  0  0
    5.9158   -1.5430   44.1717 C   0  0  0  0  0  0  0  0  0  0  0  0
    0.9615   -4.5169   44.8620 C   0  0  0  0  0  0  0  0  0  0  0  0
    0.7680   -5.6933   44.9520 C   0  0  0  0  0  0  0  0  0  0  0  0
    0.4172   -6.6262   44.3972 C   0  0  0  0  0  0  0  0  0  0  0  0
   -0.7616   -7.2490   44.7113 C   0  0  0  0  0  0  0  0  0  0  0  0
   -0.8667   -8.0600   45.9276 C   0  0  0  0  0  0  0  0  0  0  0  0
    0.0744   -7.9502   46.7386 C   0  0  0  0  0  0  0  0  0  0  0  0
    1.1120   -7.0166   47.0235 C   0  0  0  0  0  0  0  0  0  0  0  0
  1  2  2  3
  1  3  1  0
  3  4  1  0
  4  5  1  0
  5  6  1  0
  6  7  1  0
  7  8  1  0
  8  9  2  3
  2 10  1  0
  9 11  1  0
 11 12  1  0
 12 13  1  0
 13 14  1  0
 14 15  1  0
 15 16  2  0
  4 17  1  0
 17 18  1  0
 18 19  3  0
 19 20  1  0
 20 21  1  0
 21 22  2  3
 22 23  1  0
M  END
$$$$
O14757_PocketFlow_idx-in-all-generaetd-29
     RDKit          3D

 32 37  0  0  0  0  0  0  0  0999 V2000
   -0.6395   -2.0713   41.4947 C   0  0  0  0  0  0  0  0  0  0  0  0
    0.6719   -2.2449   41.7518 C   0  0  0  0  0  0  0  0  0  0  0  0
    1.5850   -1.2291   41.6969 C   0  0  0  0  0  0  0  0  0  0  0  0
    2.9399   -1.4295   42.0894 C   0  0  0  0  0  0  0  0  0  0  0  0
    3.1871   -2.3857   43.1294 C   0  0  0  0  0  0  0  0  0  0  0  0
    4.5067   -2.5065   43.7143 C   0  0  0  0  0  0  0  0  0  0  0  0
    4.6586   -3.3770   44.8086 C   0  0  0  0  0  0  0  0  0  0  0  0
    5.8005   -3.4010   45.6338 C   0  0  0  0  0  0  0  0  0  0  0  0
    5.9144   -4.3239   46.6981 C   0  0  0  0  0  0  0  0  0  0  0  0
    4.8487   -4.6518   47.1880 C   0  0  0  0  0  0  0  0  0  0  0  0
    3.5839   -4.6912   46.5079 C   0  0  0  0  0  0  0  0  0  0  0  0
    3.5151   -3.8706   45.4074 C   0  0  0  0  0  0  0  0  0  0  0  0
   -1.4903   -3.1821   41.4695 C   0  0  0  0  0  0  0  0  0  0  0  0
   -0.8311   -4.3891   41.5157 N   0  0  0  0  0  0  0  0  0  0  0  0
    2.0583   -3.2148   43.5166 C   0  0  0  0  0  0  0  0  0  0  0  0
    0.8300   -3.0324   42.8364 C   0  0  0  0  0  0  0  0  0  0  0  0
    2.2279   -3.9304   44.7432 C   0  0  0  0  0  0  0  0  0  0  0  0
    0.1328   -4.3910   42.5669 C   0  0  0  0  0  0  0  0  0  0  0  0
    7.2460   -4.3033   47.4253 C   0  0  0  0  0  0  0  0  0  0  0  0
    7.4974   -5.1171   48.4777 C   0  0  0  0  0  0  0  0  0  0  0  0
    8.7277   -5.2135   49.1099 C   0  0  0  0  0  0  0  0  0  0  0  0
    8.3877   -3.5027   47.0168 C   0  0  0  0  0  0  0  0  0  0  0  0
    9.6190   -3.6137   47.5833 C   0  0  0  0  0  0  0  0  0  0  0  0
    9.7894   -4.4467   48.6606 C   0  0  0  0  0  0  0  0  0  0  0  0
    1.3819   -0.0457   40.8032 C   0  0  0  0  0  0  0  0  0  0  0  0
    1.1956   -4.4749   45.2278 O   0  0  0  0  0  0  0  0  0  0  0  0
   10.7259   -2.8016   47.0326 C   0  0  0  0  0  0  0  0  0  0  0  0
   11.1934   -1.7259   47.7776 C   0  0  0  0  0  0  0  0  0  0  0  0
   12.2365   -0.9185   47.2855 C   0  0  0  0  0  0  0  0  0  0  0  0
   12.8114   -1.2666   46.0448 C   0  0  0  0  0  0  0  0  0  0  0  0
   12.2827   -2.2884   45.3384 C   0  0  0  0  0  0  0  0  0  0  0  0
   11.3132   -3.0745   45.8319 C   0  0  0  0  0  0  0  0  0  0  0  0
  5  6  1  0
 12 17  1  0
 15 17  1  0
  9 19  1  0
  3 25  1  0
 17 26  2  0
 23 27  1  0
  7  6  1  0
  1  2  2  0
 16 18  2  0
 18 14  1  0
 14 13  2  0
 13  1  1  0
  7  8  2  0
  8  9  1  0
  9 10  2  0
 10 11  1  0
 11 12  2  0
 12  7  1  0
  2  3  1  0
  3  4  2  0
  4  5  1  0
  5 15  2  0
 15 16  1  0
 16  2  1  0
 27 28  2  0
 28 29  1  0
 29 30  2  0
 30 31  1  0
 31 32  2  0
 32 27  1  0
 19 20  2  0
 20 21  1  0
 21 24  2  0
 24 23  1  0
 23 22  2  0
 22 19  1  0
M  END
$$$$
O14757_PocketFlow_idx-in-all-generaetd-30
     RDKit          3D

 18 19  0  0  0  0  0  0  0  0999 V2000
    0.2881   -2.9111   42.4378 C   0  0  0  0  0  0  0  0  0  0  0  0
   -0.0650   -2.5021   41.5798 C   0  0  0  0  0  0  0  0  0  0  0  0
    1.5584   -2.5265   43.0885 C   0  0  0  0  0  0  0  0  0  0  0  0
    2.2571   -1.5118   42.4661 C   0  0  0  0  0  0  0  0  0  0  0  0
    1.6539   -0.8478   41.4018 C   0  0  0  0  0  0  0  0  0  0  0  0
    0.4946   -1.2904   40.8784 C   0  0  0  0  0  0  0  0  0  0  0  0
    3.5517   -1.1172   43.0717 C   0  0  2  0  0  0  0  0  0  0  0  0
    4.1363   -1.7913   44.1249 C   0  0  0  0  0  0  0  0  0  0  0  0
    3.8801   -3.0606   44.5513 C   0  0  0  0  0  0  0  0  0  0  0  0
    4.5790   -3.7357   45.5102 C   0  0  0  0  0  0  0  0  0  0  0  0
    5.7185   -3.0707   46.0111 C   0  0  0  0  0  0  0  0  0  0  0  0
    6.1750   -1.8769   45.4988 C   0  0  0  0  0  0  0  0  0  0  0  0
    5.4834   -1.2685   44.5530 C   0  0  0  0  0  0  0  0  0  0  0  0
    4.1302    0.1040   42.5578 C   0  0  0  0  0  0  0  0  0  0  0  0
    6.5776   -3.8031   47.0454 C   0  0  0  0  0  0  0  0  0  0  0  0
    7.8044   -3.6697   47.0452 O   0  0  0  0  0  0  0  0  0  0  0  0
    5.9763   -4.2433   48.1909 N   0  0  0  0  0  0  0  0  0  0  0  0
    6.7414   -4.7588   49.3063 C   0  0  0  0  0  0  0  0  0  0  0  0
  4  7  1  0
  7 14  1  1
 11 15  1  0
 15 16  2  0
 15 17  1  0
 17 18  1  0
  7  8  1  0
  1  2  2  0
  2  6  1  0
  6  5  2  0
  5  4  1  0
  4  3  2  0
  3  1  1  0
  8  9  2  0
  9 10  1  0
 10 11  2  0
 11 12  1  0
 12 13  2  0
 13  8  1  0
M  END
$$$$
O14757_PocketFlow_idx-in-all-generaetd-31
     RDKit          3D

 27 30  0  0  0  0  0  0  0  0999 V2000
   -0.6395   -2.0713   41.4947 C   0  0  2  0  0  0  0  0  0  0  0  0
    0.1859   -1.1027   41.5970 C   0  0  0  0  0  0  0  0  0  0  0  0
    1.5836   -1.3270   41.4669 C   0  0  0  0  0  0  0  0  0  0  0  0
    2.5750   -0.4224   42.0442 C   0  0  0  0  0  0  0  0  0  0  0  0
    3.7629   -0.7735   42.6336 C   0  0  0  0  0  0  0  0  0  0  0  0
    3.8949   -1.9668   43.3369 C   0  0  0  0  0  0  0  0  0  0  0  0
    5.0348   -2.2851   44.1042 C   0  0  0  0  0  0  0  0  0  0  0  0
    6.0255   -1.3682   44.3443 C   0  0  0  0  0  0  0  0  0  0  0  0
   -2.0388   -1.9610   41.4921 C   0  0  0  0  0  0  0  0  0  0  0  0
    7.1209   -1.8034   45.1766 C   0  0  0  0  0  0  0  0  0  0  0  0
    7.1538   -3.0297   45.8374 C   0  0  0  0  0  0  0  0  0  0  0  0
    6.0110   -3.8180   45.6897 C   0  0  0  0  0  0  0  0  0  0  0  0
    4.9641   -3.4781   44.8724 C   0  0  0  0  0  0  0  0  0  0  0  0
   -2.5290   -1.3639   40.2082 C   0  0  0  0  0  0  0  0  0  0  0  0
    8.0931   -3.4014   46.8435 C   0  0  0  0  0  0  0  0  0  0  0  0
    8.0767   -2.9299   48.0459 C   0  0  0  0  0  0  0  0  0  0  0  0
    9.0003   -3.2080   49.1358 C   0  0  0  0  0  0  0  0  0  0  0  0
    9.9718   -4.1325   48.8510 C   0  0  0  0  0  0  0  0  0  0  0  0
    9.1882   -4.3311   46.5392 C   0  0  0  0  0  0  0  0  0  0  0  0
   10.1127   -4.6821   47.4925 C   0  0  0  0  0  0  0  0  0  0  0  0
   -4.0157   -1.7182   40.0394 C   0  0  0  0  0  0  0  0  0  0  0  0
    2.8626   -2.9151   43.1290 C   0  0  0  0  0  0  0  0  0  0  0  0
    1.6398   -2.6028   42.9090 C   0  0  0  0  0  0  0  0  0  0  0  0
   -0.0503   -3.0387   42.7089 C   0  0  0  0  0  0  0  0  0  0  0  0
    8.8215   -2.6568   50.3083 F   0  0  0  0  0  0  0  0  0  0  0  0
    4.7222    0.1476   42.6911 O   0  0  0  0  0  0  0  0  0  0  0  0
   -0.2612   -4.0468   43.2735 O   0  0  0  0  0  0  0  0  0  0  0  0
  1  2  1  0
  2  3  1  0
  6  7  1  0
  1  9  1  1
  9 14  1  0
 11 15  1  0
 14 21  1  0
  1 24  1  0
 23 24  1  0
 17 25  1  0
  5 26  1  0
 24 27  2  0
 15 16  2  0
 16 17  1  0
 17 18  2  0
 18 20  1  0
 20 19  2  0
 19 15  1  0
  7  8  2  0
  8 10  1  0
 10 11  2  0
 11 12  1  0
 12 13  2  0
 13  7  1  0
  3  4  2  0
  4  5  1  0
  5  6  2  0
  6 22  1  0
 22 23  2  0
 23  3  1  0
M  END
$$$$
O14757_PocketFlow_idx-in-all-generaetd-32
     RDKit          3D

 35 36  0  0  0  0  0  0  0  0999 V2000
   -0.8794   -1.9236   41.9357 O   0  0  0  0  0  0  0  0  0  0  0  0
    0.3182   -2.2442   41.7073 C   0  0  0  0  0  0  0  0  0  0  0  0
    1.3766   -1.3498   41.6019 C   0  0  0  0  0  0  0  0  0  0  0  0
    2.6423   -1.6963   42.1387 C   0  0  0  0  0  0  0  0  0  0  0  0
    3.6323   -0.7168   42.3533 C   0  0  0  0  0  0  0  0  0  0  0  0
    4.7922   -0.9720   43.1722 C   0  0  0  0  0  0  0  0  0  0  0  0
    4.7658   -2.2037   43.9138 C   0  0  0  0  0  0  0  0  0  0  0  0
    4.0582   -2.4618   44.6455 C   0  0  0  0  0  0  0  0  0  0  0  0
    4.4873   -3.5797   45.5860 C   0  0  0  0  0  0  0  0  0  0  0  0
    4.8712   -3.2825   46.7230 C   0  0  0  0  0  0  0  0  0  0  0  0
    5.3333   -4.2785   47.7250 C   0  0  0  0  0  0  0  0  0  0  0  0
    5.1531   -5.6341   47.3785 C   0  0  0  0  0  0  0  0  0  0  0  0
    4.5112   -5.9334   46.1766 C   0  0  0  0  0  0  0  0  0  0  0  0
    4.2245   -4.9346   45.2162 C   0  0  0  0  0  0  0  0  0  0  0  0
    0.4835   -3.4344   41.1098 O   0  0  0  0  0  0  0  0  0  0  0  0
    5.5024   -6.6829   48.3178 C   0  0  0  0  0  0  0  0  0  0  0  0
    5.8528   -6.4052   49.4053 O   0  0  0  0  0  0  0  0  0  0  0  0
    5.7386   -7.9251   47.8594 N   0  0  0  0  0  0  0  0  0  0  0  0
    6.1330   -9.0487   48.7344 C   0  0  0  0  0  0  0  0  0  0  0  0
    5.0128   -9.6095   49.2240 C   0  0  0  0  0  0  0  0  0  0  0  0
    3.8180   -9.0026   49.3256 C   0  0  0  0  0  0  0  0  0  0  0  0
    2.6113   -9.8115   49.6997 C   0  0  0  0  0  0  0  0  0  0  0  0
    1.4073   -9.7450   49.2130 C   0  0  0  0  0  0  0  0  0  0  0  0
    1.1488   -8.6945   48.4121 C   0  0  0  0  0  0  0  0  0  0  0  0
   -0.2111   -8.4265   48.0228 C   0  0  0  0  0  0  0  0  0  0  0  0
   -0.5470   -7.3506   47.1837 C   0  0  0  0  0  0  0  0  0  0  0  0
   -0.8362   -7.5452   45.8509 C   0  0  2  0  0  0  0  0  0  0  0  0
   -0.0370   -6.9817   44.8236 C   0  0  0  0  0  0  0  0  0  0  0  0
    1.2262   -6.4958   45.2577 C   0  0  0  0  0  0  0  0  0  0  0  0
   -2.0561   -8.2384   45.4945 C   0  0  0  0  0  0  0  0  0  0  0  0
   -2.6624   -7.9837   44.2007 C   0  0  0  0  0  0  0  0  0  0  0  0
   -3.8831   -8.6257   43.9560 C   0  0  0  0  0  0  0  0  0  0  0  0
   -4.4250   -9.4898   44.8176 C   0  0  0  0  0  0  0  0  0  0  0  0
   -3.7983   -9.7607   46.0614 C   0  0  0  0  0  0  0  0  0  0  0  0
   -2.6615   -9.0626   46.4379 C   0  0  0  0  0  0  0  0  0  0  0  0
  1  2  1  0
  2  3  1  0
  3  4  1  0
  4  5  1  0
  5  6  1  0
  6  7  1  0
  7  8  2  3
  8  9  1  0
  2 15  2  0
 12 16  1  0
 16 17  2  0
 16 18  1  0
 18 19  1  0
 19 20  1  0
 20 21  1  0
 21 22  1  0
 22 23  1  0
 23 24  1  0
 24 25  2  3
 25 26  1  0
 27 26  1  1
 27 28  1  0
 28 29  2  0
 27 30  1  0
 30 31  2  0
 31 32  1  0
 32 33  2  0
 33 34  1  0
 34 35  2  0
 35 30  1  0
  9 10  2  0
 10 11  1  0
 11 12  2  0
 12 13  1  0
 13 14  2  0
 14  9  1  0
M  END
$$$$
O14757_PocketFlow_idx-in-all-generaetd-33
     RDKit          3D

 14 16  0  0  0  0  0  0  0  0999 V2000
   -0.6395   -2.0713   41.4947 C   0  0  0  0  0  0  0  0  0  0  0  0
   -0.2671   -3.2464   41.6546 C   0  0  0  0  0  0  0  0  0  0  0  0
   -2.0053   -1.6706   41.3987 C   0  0  0  0  0  0  0  0  0  0  0  0
   -2.2928   -0.3176   41.3208 C   0  0  0  0  0  0  0  0  0  0  0  0
   -1.1183    0.4291   41.3014 N   0  0  0  0  0  0  0  0  0  0  0  0
   -0.1078   -0.5944   41.4777 C   0  0  0  0  0  0  0  0  0  0  0  0
    1.3508   -0.3343   41.5211 C   0  0  0  0  0  0  0  0  0  0  0  0
    2.1822   -1.2941   42.0906 C   0  0  0  0  0  0  0  0  0  0  0  0
    3.5173   -0.8408   42.3576 C   0  0  0  0  0  0  0  0  0  0  0  0
    4.3861   -1.7111   43.0611 C   0  0  0  0  0  0  0  0  0  0  0  0
    3.9347   -2.8653   43.6772 C   0  0  0  0  0  0  0  0  0  0  0  0
    2.5773   -3.2076   43.4747 C   0  0  0  0  0  0  0  0  0  0  0  0
    1.7058   -2.3605   42.7896 C   0  0  0  0  0  0  0  0  0  0  0  0
    0.9196   -3.6230   41.9554 N   0  0  0  0  0  0  0  0  0  0  0  0
  1  2  1  0
  1  3  2  0
  3  4  1  0
  4  5  1  0
  1  6  1  0
  5  6  2  0
  6  7  1  0
  7  8  1  0
  2 14  1  0
 13 14  1  0
  8  9  2  0
  9 10  1  0
 10 11  2  0
 11 12  1  0
 12 13  2  0
 13  8  1  0
M  END
$$$$
O14757_PocketFlow_idx-in-all-generaetd-34
     RDKit          3D

 35 38  0  0  0  0  0  0  0  0999 V2000
   -0.8794   -1.9236   41.9357 O   0  0  0  0  0  0  0  0  0  0  0  0
    0.3070   -1.6014   41.6735 C   0  0  0  0  0  0  0  0  0  0  0  0
    0.8076   -0.3104   41.6588 C   0  0  0  0  0  0  0  0  0  0  0  0
    2.1558   -0.1129   41.4921 C   0  0  0  0  0  0  0  0  0  0  0  0
    3.0246   -0.6314   42.2949 C   0  0  0  0  0  0  0  0  0  0  0  0
    4.4137   -0.3012   42.1722 C   0  0  0  0  0  0  0  0  0  0  0  0
    0.7100   -2.7301   41.2326 F   0  0  0  0  0  0  0  0  0  0  0  0
    5.2061   -0.9080   43.2309 C   0  0  0  0  0  0  0  0  0  0  0  0
    4.7303   -1.7800   44.1945 C   0  0  0  0  0  0  0  0  0  0  0  0
    3.4133   -2.2127   44.1102 C   0  0  0  0  0  0  0  0  0  0  0  0
    2.6171   -1.6633   43.2120 C   0  0  0  0  0  0  0  0  0  0  0  0
    5.6327   -2.4279   45.1695 C   0  0  0  0  0  0  0  0  0  0  0  0
    5.3206   -3.6372   45.8159 C   0  0  0  0  0  0  0  0  0  0  0  0
    6.2769   -3.9718   46.8500 C   0  0  0  0  0  0  0  0  0  0  0  0
    7.5394   -3.3779   46.9547 C   0  0  0  0  0  0  0  0  0  0  0  0
    7.8762   -2.3110   46.1774 C   0  0  0  0  0  0  0  0  0  0  0  0
    6.9974   -1.8460   45.2808 C   0  0  0  0  0  0  0  0  0  0  0  0
    9.1863   -1.6964   46.2904 C   0  0  0  0  0  0  0  0  0  0  0  0
   10.3227   -2.3321   46.7266 C   0  0  0  0  0  0  0  0  0  0  0  0
   10.3618   -3.4162   47.1908 C   0  0  0  0  0  0  0  0  0  0  0  0
    9.4324   -4.4195   47.4793 C   0  0  0  0  0  0  0  0  0  0  0  0
    8.1829   -4.3357   47.2631 C   0  0  0  0  0  0  0  0  0  0  0  0
   -1.9094   -2.0399   40.9755 C   0  0  0  0  0  0  0  0  0  0  0  0
   11.3873   -1.4308   46.6253 O   0  0  0  0  0  0  0  0  0  0  0  0
   12.6321   -1.8768   46.3218 C   0  0  1  0  0  0  0  0  0  0  0  0
   13.4384   -1.0274   45.5695 C   0  0  0  0  0  0  0  0  0  0  0  0
   14.4713   -1.5810   45.1375 O   0  0  0  0  0  0  0  0  0  0  0  0
   15.4251   -1.6615   46.1321 C   0  0  1  0  0  0  0  0  0  0  0  0
   15.1040   -2.7693   47.0163 C   0  0  2  0  0  0  0  0  0  0  0  0
   13.6102   -2.5280   47.3812 C   0  0  0  0  0  0  0  0  0  0  0  0
   15.8906   -2.8513   48.1299 O   0  0  0  0  0  0  0  0  0  0  0  0
   16.8325   -1.9369   45.4350 C   0  0  0  0  0  0  0  0  0  0  0  0
   17.0251   -1.1908   44.6479 O   0  0  0  0  0  0  0  0  0  0  0  0
   13.1108   -2.8375   48.5199 O   0  0  0  0  0  0  0  0  0  0  0  0
   16.6860   -0.0900   44.4683 C   0  0  0  0  0  0  0  0  0  0  0  0
  1  2  1  0
  2  3  2  3
  3  4  1  0
  2  7  1  0
  9 12  1  0
 16 18  1  0
 18 19  1  0
 19 20  2  0
 20 21  1  0
 15 22  1  0
 21 22  2  0
  1 23  1  0
 19 24  1  0
 25 24  1  1
 25 26  1  0
 26 27  1  0
 27 28  1  0
 28 29  1  0
 25 30  1  0
 29 30  1  0
 29 31  1  1
 28 32  1  6
 32 33  1  0
 30 34  2  0
 33 35  1  0
  4  5  1  0
  5  6  2  0
  6  8  1  0
  8  9  2  0
  9 10  1  0
 10 11  2  0
 11  5  1  0
 12 13  2  0
 13 14  1  0
 14 15  2  0
 15 16  1  0
 16 17  2  0
 17 12  1  0
M  END
$$$$
O14757_PocketFlow_idx-in-all-generaetd-35
     RDKit          3D

 33 36  0  0  0  0  0  0  0  0999 V2000
   -0.6395   -2.0713   41.4947 C   0  0  0  0  0  0  0  0  0  0  0  0
    0.6719   -2.2449   41.7518 C   0  0  0  0  0  0  0  0  0  0  0  0
    1.5951   -1.1948   41.6106 C   0  0  0  0  0  0  0  0  0  0  0  0
    2.9587   -1.3961   42.0241 C   0  0  0  0  0  0  0  0  0  0  0  0
    3.1652   -2.3460   43.1085 C   0  0  0  0  0  0  0  0  0  0  0  0
    4.4747   -2.3727   43.7589 C   0  0  0  0  0  0  0  0  0  0  0  0
    5.3173   -1.3237   43.6654 C   0  0  0  0  0  0  0  0  0  0  0  0
    4.9878   -0.2735   42.7194 C   0  0  0  0  0  0  0  0  0  0  0  0
    3.8591   -0.2499   42.0858 C   0  0  0  0  0  0  0  0  0  0  0  0
   -1.5206   -3.1791   41.5085 C   0  0  0  0  0  0  0  0  0  0  0  0
   -0.8715   -4.4041   41.5431 N   0  0  0  0  0  0  0  0  0  0  0  0
    4.6925   -3.5091   44.6647 C   0  0  0  0  0  0  0  0  0  0  0  0
    5.3814   -3.3649   45.8032 N   0  0  0  0  0  0  0  0  0  0  0  0
    5.2421   -4.2107   46.8881 C   0  0  0  0  0  0  0  0  0  0  0  0
    4.5907   -5.2938   46.9478 C   0  0  0  0  0  0  0  0  0  0  0  0
    3.7594   -5.5187   45.7717 C   0  0  0  0  0  0  0  0  0  0  0  0
    3.8182   -4.6144   44.5895 C   0  0  0  0  0  0  0  0  0  0  0  0
    6.1070   -3.8504   48.0261 N   0  0  0  0  0  0  0  0  0  0  0  0
    0.7768   -3.7079   41.8646 C   0  0  0  0  0  0  0  0  0  0  0  0
    1.3636   -0.2829   40.8664 F   0  0  0  0  0  0  0  0  0  0  0  0
    7.1890   -4.5771   48.4371 C   0  0  0  0  0  0  0  0  0  0  0  0
    8.2957   -4.2851   48.4555 C   0  0  0  0  0  0  0  0  0  0  0  0
    8.7302   -2.9645   48.3713 C   0  0  0  0  0  0  0  0  0  0  0  0
    9.6969   -2.5156   47.9632 C   0  0  0  0  0  0  0  0  0  0  0  0
    9.9414   -1.0242   47.7658 C   0  0  0  0  0  0  0  0  0  0  0  0
   10.8205   -3.3026   47.4035 C   0  0  0  0  0  0  0  0  0  0  0  0
   10.5634   -4.6807   47.4090 C   0  0  0  0  0  0  0  0  0  0  0  0
    9.2742   -5.1474   47.8534 C   0  0  0  0  0  0  0  0  0  0  0  0
    2.9477   -6.7271   45.6666 C   0  0  0  0  0  0  0  0  0  0  0  0
    1.9601   -6.7672   46.2612 O   0  0  0  0  0  0  0  0  0  0  0  0
    0.8722   -6.3881   45.6041 C   0  0  0  0  0  0  0  0  0  0  0  0
    0.1478   -5.3159   45.9408 C   0  0  0  0  0  0  0  0  0  0  0  0
    0.4046   -7.0745   44.4969 C   0  0  0  0  0  0  0  0  0  0  0  0
  1  2  1  0
  2  3  2  3
  3  4  1  0
  1 10  2  0
 10 11  1  0
  6 12  1  0
 14 18  1  0
  2 19  1  0
 11 19  2  0
  3 20  1  0
 18 21  1  0
 21 22  1  0
 24 25  1  0
 16 29  1  0
 29 30  1  0
 30 31  1  0
 31 32  1  0
 31 33  1  0
 12 13  2  0
 13 14  1  0
 14 15  2  0
 15 16  1  0
 16 17  2  0
 17 12  1  0
 22 23  2  0
 23 24  1  0
 24 26  2  0
 26 27  1  0
 27 28  2  0
 28 22  1  0
  4  5  2  0
  5  6  1  0
  6  7  2  0
  7  8  1  0
  8  9  2  0
  9  4  1  0
M  END
$$$$
O14757_PocketFlow_idx-in-all-generaetd-36
     RDKit          3D

 11 11  0  0  0  0  0  0  0  0999 V2000
    0.2881   -2.9111   42.4378 C   0  0  0  0  0  0  0  0  0  0  0  0
   -0.0650   -2.5021   41.5798 C   0  0  0  0  0  0  0  0  0  0  0  0
    1.6221   -3.4772   42.5980 C   0  0  0  0  0  0  0  0  0  0  0  0
    2.0419   -3.9563   43.9086 C   0  0  0  0  0  0  0  0  0  0  0  0
    1.0575   -4.5472   44.7632 C   0  0  0  0  0  0  0  0  0  0  0  0
   -1.4476   -2.0422   41.3247 C   0  0  0  0  0  0  0  0  0  0  0  0
    1.4883   -5.0157   46.0915 C   0  0  0  0  0  0  0  0  0  0  0  0
    3.3781   -3.9719   44.3250 C   0  0  0  0  0  0  0  0  0  0  0  0
    3.8041   -4.5427   45.5496 C   0  0  0  0  0  0  0  0  0  0  0  0
    2.8503   -5.0256   46.4356 C   0  0  0  0  0  0  0  0  0  0  0  0
   -1.8946   -1.4727   40.2509 N   0  0  0  0  0  0  0  0  0  0  0  0
  1  2  1  0
  1  3  1  0
  3  4  1  0
  2  6  1  0
  6 11  2  3
  4  5  2  0
  5  7  1  0
  7 10  2  0
 10  9  1  0
  9  8  2  0
  8  4  1  0
M  END
$$$$
O14757_PocketFlow_idx-in-all-generaetd-37
     RDKit          3D

 35 39  0  0  0  0  0  0  0  0999 V2000
   -0.8794   -1.9236   41.9357 O   0  0  0  0  0  0  0  0  0  0  0  0
    0.3070   -1.6014   41.6735 C   0  0  2  0  0  0  0  0  0  0  0  0
    1.2548   -2.6723   41.5755 C   0  0  0  0  0  0  0  0  0  0  0  0
    2.4147   -2.3743   42.2522 C   0  0  0  0  0  0  0  0  0  0  0  0
    3.0010   -1.1176   42.2444 C   0  0  0  0  0  0  0  0  0  0  0  0
    2.1565   -0.0150   42.1020 C   0  0  0  0  0  0  0  0  0  0  0  0
    0.7615   -0.3101   41.9641 C   0  0  0  0  0  0  0  0  0  0  0  0
    4.3753   -0.8953   42.6895 C   0  0  0  0  0  0  0  0  0  0  0  0
    5.0190   -1.7137   43.6784 C   0  0  1  0  0  0  0  0  0  0  0  0
    5.9953   -1.2544   44.5186 C   0  0  0  0  0  0  0  0  0  0  0  0
    6.5091   -2.1470   45.4821 C   0  0  0  0  0  0  0  0  0  0  0  0
    5.9643   -3.4159   45.6582 C   0  0  0  0  0  0  0  0  0  0  0  0
    4.5829   -2.9667   44.2048 C   0  0  0  0  0  0  0  0  0  0  0  0
    4.9695   -3.7588   45.0330 C   0  0  0  0  0  0  0  0  0  0  0  0
    4.9291    0.2879   42.5303 O   0  0  0  0  0  0  0  0  0  0  0  0
    7.8285   -1.6842   46.1846 C   0  0  0  0  0  0  0  0  0  0  0  0
    8.5229   -2.4618   47.1031 C   0  0  0  0  0  0  0  0  0  0  0  0
    9.6364   -1.9964   47.7691 C   0  0  0  0  0  0  0  0  0  0  0  0
   10.1360   -2.6014   48.8919 C   0  0  0  0  0  0  0  0  0  0  0  0
    9.5169   -3.7867   49.3139 C   0  0  0  0  0  0  0  0  0  0  0  0
    8.4131   -4.2680   48.6846 C   0  0  0  0  0  0  0  0  0  0  0  0
    7.8871   -3.6028   47.6589 C   0  0  0  0  0  0  0  0  0  0  0  0
    8.5296   -0.4955   45.7126 C   0  0  0  0  0  0  0  0  0  0  0  0
   -1.6172   -2.5318   40.8891 C   0  0  0  0  0  0  0  0  0  0  0  0
    7.6652   -5.4420   49.2384 C   0  0  0  0  0  0  0  0  0  0  0  0
    6.4447   -5.5971   49.0332 O   0  0  0  0  0  0  0  0  0  0  0  0
    8.1472   -6.0283   50.2965 O   0  0  0  0  0  0  0  0  0  0  0  0
    5.6554   -5.3662   48.1116 C   0  0  0  0  0  0  0  0  0  0  0  0
   11.3422   -2.0437   49.5799 C   0  0  0  0  0  0  0  0  0  0  0  0
   12.1090   -1.3065   49.0861 C   0  0  0  0  0  0  0  0  0  0  0  0
   11.9807   -0.8213   47.7942 C   0  0  0  0  0  0  0  0  0  0  0  0
   10.7089   -1.1146   47.1192 C   0  0  2  0  0  0  0  0  0  0  0  0
    9.9379   -0.3682   46.1143 C   0  0  0  0  0  0  0  0  0  0  0  0
    5.4996   -6.6224   47.2064 C   0  0  0  0  0  0  0  0  0  0  0  0
    4.0701   -6.8923   46.9377 C   0  0  0  0  0  0  0  0  0  0  0  0
  2  1  1  1
  2  3  1  0
  3  4  1  0
  4  5  1  0
  5  6  2  0
  2  7  1  0
  6  7  1  0
  5  8  1  0
  9  8  1  1
  9 10  1  0
 10 11  2  0
 11 12  1  0
  9 13  1  0
 12 14  2  0
 13 14  2  0
  8 15  2  0
 11 16  1  0
 16 17  2  0
 17 18  1  0
 18 19  2  0
 19 20  1  0
 20 21  2  0
 17 22  1  0
 21 22  1  0
 16 23  1  0
  1 24  1  0
 21 25  1  0
 25 26  1  0
 25 27  2  0
 26 28  1  0
 19 29  1  0
 29 30  2  0
 30 31  1  0
 18 32  1  0
 32 31  1  1
 23 33  1  0
 32 33  1  0
 28 34  1  0
 34 35  1  0
M  END
$$$$
O14757_PocketFlow_idx-in-all-generaetd-38
     RDKit          3D

 35 40  0  0  0  0  0  0  0  0999 V2000
   -0.6395   -2.0713   41.4947 C   0  0  0  0  0  0  0  0  0  0  0  0
   -0.2671   -3.2464   41.6546 C   0  0  0  0  0  0  0  0  0  0  0  0
    0.2407   -0.9706   41.5952 C   0  0  0  0  0  0  0  0  0  0  0  0
    1.6195   -1.2958   41.8767 C   0  0  0  0  0  0  0  0  0  0  0  0
    2.6583   -0.3517   42.0703 C   0  0  0  0  0  0  0  0  0  0  0  0
    3.7100   -0.6048   42.9733 C   0  0  0  0  0  0  0  0  0  0  0  0
    3.9332   -1.9315   43.3907 C   0  0  0  0  0  0  0  0  0  0  0  0
    5.0343   -2.3401   44.1686 C   0  0  0  0  0  0  0  0  0  0  0  0
    6.1030   -1.5875   44.4233 C   0  0  0  0  0  0  0  0  0  0  0  0
    1.0600   -3.6663   41.9893 C   0  0  0  0  0  0  0  0  0  0  0  0
    1.9861   -2.5856   42.2508 C   0  0  0  0  0  0  0  0  0  0  0  0
    3.0487   -2.8431   42.9970 N   0  0  0  0  0  0  0  0  0  0  0  0
    5.0050   -3.6280   44.8657 C   0  0  0  0  0  0  0  0  0  0  0  0
    7.1669   -1.9412   45.3591 C   0  0  0  0  0  0  0  0  0  0  0  0
    7.0865   -3.1641   45.9893 C   0  0  0  0  0  0  0  0  0  0  0  0
    5.9946   -3.9342   45.7706 C   0  0  0  0  0  0  0  0  0  0  0  0
    8.1805   -3.4176   46.9399 C   0  0  0  0  0  0  0  0  0  0  0  0
    7.8813   -4.1567   48.1247 C   0  0  0  0  0  0  0  0  0  0  0  0
    6.5795   -4.6147   48.4321 C   0  0  0  0  0  0  0  0  0  0  0  0
    5.6030   -4.5237   47.8272 C   0  0  0  0  0  0  0  0  0  0  0  0
    5.2927   -4.3949   46.5459 C   0  0  0  0  0  0  0  0  0  0  0  0
   -1.8538   -1.7605   41.0704 F   0  0  0  0  0  0  0  0  0  0  0  0
    4.6522    0.3190   43.1490 F   0  0  0  0  0  0  0  0  0  0  0  0
    9.0313   -4.3183   49.0477 C   0  0  0  0  0  0  0  0  0  0  0  0
    8.9862   -4.7862   50.0164 C   0  0  0  0  0  0  0  0  0  0  0  0
   10.1060   -4.9144   50.9655 C   0  0  0  0  0  0  0  0  0  0  0  0
   11.2580   -4.3695   50.5968 C   0  0  0  0  0  0  0  0  0  0  0  0
   10.2314   -3.6089   48.5381 C   0  0  0  0  0  0  0  0  0  0  0  0
   11.3819   -3.6966   49.4049 C   0  0  0  0  0  0  0  0  0  0  0  0
    9.4290   -2.9229   46.6425 C   0  0  0  0  0  0  0  0  0  0  0  0
   10.3871   -2.9505   47.3547 C   0  0  0  0  0  0  0  0  0  0  0  0
   11.7000   -2.3559   47.0037 C   0  0  0  0  0  0  0  0  0  0  0  0
   11.9358   -1.0292   47.4697 C   0  0  0  0  0  0  0  0  0  0  0  0
   12.2424   -0.6393   48.4890 C   0  0  0  0  0  0  0  0  0  0  0  0
   13.5184   -0.4714   48.9875 C   0  0  0  0  0  0  0  0  0  0  0  0
  7  8  1  0
 15 17  1  0
 18 19  1  0
 19 20  2  0
 16 21  1  0
 20 21  1  0
  1 22  1  0
  6 23  1  0
 31 32  1  0
 32 33  1  0
 33 34  1  0
 34 35  1  0
  8  9  2  0
  9 14  1  0
 14 15  2  0
 15 16  1  0
 16 13  2  0
 13  8  1  0
 24 25  2  0
 25 26  1  0
 26 27  2  0
 27 29  1  0
 29 28  2  0
  1  2  2  0
  2 10  1  0
 10 11  2  0
  4  3  2  0
  3  1  1  0
 17 18  2  0
 18 24  1  0
 24 28  1  0
 28 31  1  0
 31 30  2  0
 30 17  1  0
  4  5  1  0
  5  6  2  0
  6  7  1  0
  7 12  2  0
 12 11  1  0
 11  4  1  0
M  END
$$$$
O14757_PocketFlow_idx-in-all-generaetd-39
     RDKit          3D

 16 17  0  0  0  0  0  0  0  0999 V2000
    0.2881   -2.9111   42.4378 C   0  0  0  0  0  0  0  0  0  0  0  0
   -0.0650   -2.5021   41.5798 C   0  0  0  0  0  0  0  0  0  0  0  0
    1.5111   -2.4518   43.1047 C   0  0  0  0  0  0  0  0  0  0  0  0
    2.1892   -1.4341   42.4770 C   0  0  0  0  0  0  0  0  0  0  0  0
    1.5990   -0.8333   41.3694 C   0  0  0  0  0  0  0  0  0  0  0  0
    0.4724   -1.3248   40.8538 C   0  0  0  0  0  0  0  0  0  0  0  0
    3.5012   -0.8816   42.8546 C   0  0  1  0  0  0  0  0  0  0  0  0
    4.0126    0.2997   42.6923 C   0  0  0  0  0  0  0  0  0  0  0  0
    4.3642   -1.8657   43.6146 C   0  0  0  0  0  0  0  0  0  0  0  0
    5.4099   -1.4419   44.4035 C   0  0  0  0  0  0  0  0  0  0  0  0
    6.0551   -2.3784   45.2262 C   0  0  0  0  0  0  0  0  0  0  0  0
    5.6130   -3.6955   45.3932 C   0  0  0  0  0  0  0  0  0  0  0  0
    4.4167   -4.0040   44.6803 C   0  0  0  0  0  0  0  0  0  0  0  0
    3.8154   -3.1484   43.8607 C   0  0  2  0  0  0  0  0  0  0  0  0
    2.5176   -3.3104   43.5144 N   0  0  0  0  0  0  0  0  0  0  0  0
    4.3759   -3.5876   42.7766 O   0  0  0  0  0  0  0  0  0  0  0  0
  4  7  1  0
  7  8  1  1
  7  9  1  0
  9 10  2  0
 10 11  1  0
 11 12  2  0
 12 13  1  0
 13 14  1  0
  3 15  1  0
 14 15  1  0
 14 16  1  6
  1  2  2  0
  2  6  1  0
  6  5  2  0
  5  4  1  0
  4  3  2  0
  3  1  1  0
M  END
$$$$
O14757_PocketFlow_idx-in-all-generaetd-40
     RDKit          3D

 35 39  0  0  0  0  0  0  0  0999 V2000
   -0.6395   -2.0713   41.4947 C   0  0  0  0  0  0  0  0  0  0  0  0
   -0.2671   -3.2464   41.6546 C   0  0  0  0  0  0  0  0  0  0  0  0
    0.2407   -0.9706   41.5952 C   0  0  0  0  0  0  0  0  0  0  0  0
    1.6195   -1.2958   41.8767 C   0  0  0  0  0  0  0  0  0  0  0  0
    2.6583   -0.3517   42.0703 C   0  0  0  0  0  0  0  0  0  0  0  0
    3.9275   -0.7702   42.5387 C   0  0  0  0  0  0  0  0  0  0  0  0
    4.9444    0.0409   42.9168 C   0  0  0  0  0  0  0  0  0  0  0  0
    1.0282   -3.6847   42.0176 C   0  0  0  0  0  0  0  0  0  0  0  0
    1.9403   -2.6206   42.1877 C   0  0  0  0  0  0  0  0  0  0  0  0
   -1.9158   -1.7989   41.1209 F   0  0  0  0  0  0  0  0  0  0  0  0
    5.6895   -0.6039   44.0745 C   0  0  0  0  0  0  0  0  0  0  0  0
    5.4147   -1.9399   44.3007 C   0  0  0  0  0  0  0  0  0  0  0  0
    4.4862   -2.6862   43.7625 C   0  0  0  0  0  0  0  0  0  0  0  0
    3.7442   -2.0565   43.0583 C   0  0  0  0  0  0  0  0  0  0  0  0
    2.6893   -2.7751   42.6675 N   0  0  0  0  0  0  0  0  0  0  0  0
    6.3823   -2.6744   45.3271 C   0  0  0  0  0  0  0  0  0  0  0  0
    7.6458   -2.1978   45.6910 C   0  0  0  0  0  0  0  0  0  0  0  0
    8.4012   -2.9308   46.5816 C   0  0  0  0  0  0  0  0  0  0  0  0
    7.8492   -4.0781   47.1797 C   0  0  0  0  0  0  0  0  0  0  0  0
    5.9535   -3.7800   46.0733 C   0  0  0  0  0  0  0  0  0  0  0  0
    6.6190   -4.4025   46.9764 C   0  0  0  0  0  0  0  0  0  0  0  0
    9.7823   -2.4546   46.8650 C   0  0  0  0  0  0  0  0  0  0  0  0
   10.0540   -1.3005   46.4610 F   0  0  0  0  0  0  0  0  0  0  0  0
    9.9981   -2.4465   48.2483 F   0  0  0  0  0  0  0  0  0  0  0  0
   10.8311   -3.4272   46.3198 C   0  0  0  0  0  0  0  0  0  0  0  0
   12.1521   -3.0516   46.2902 C   0  0  0  0  0  0  0  0  0  0  0  0
   13.0306   -3.8376   47.0630 C   0  0  0  0  0  0  0  0  0  0  0  0
   14.4090   -3.5213   47.0542 C   0  0  0  0  0  0  0  0  0  0  0  0
   14.8461   -2.3612   46.3822 C   0  0  0  0  0  0  0  0  0  0  0  0
   13.9321   -1.5764   45.6388 C   0  0  0  0  0  0  0  0  0  0  0  0
   12.6314   -1.9323   45.6204 C   0  0  0  0  0  0  0  0  0  0  0  0
   14.4264   -0.3779   44.9107 C   0  0  0  0  0  0  0  0  0  0  0  0
   15.6129   -0.0985   44.8323 N   0  0  0  0  0  0  0  0  0  0  0  0
   16.1890    0.8755   44.3894 C   0  0  0  0  0  0  0  0  0  0  0  0
   15.3952    1.8404   43.7152 C   0  0  0  0  0  0  0  0  0  0  0  0
  1 10  1  0
 12 16  1  0
 18 22  1  0
 22 23  1  0
 22 24  1  0
 22 25  1  0
 25 26  1  0
 30 32  1  0
 32 33  1  0
 33 34  2  3
 34 35  1  0
  4  5  1  0
  5  6  2  0
 14 15  2  0
 15  9  1  0
 16 17  2  0
 17 18  1  0
 18 19  2  0
 19 21  1  0
 21 20  2  0
 20 16  1  0
  6  7  1  0
  7 11  2  0
 11 12  1  0
 12 13  2  0
 13 14  1  0
 14  6  1  0
 26 27  2  0
 27 28  1  0
 28 29  2  0
 29 30  1  0
 30 31  2  0
 31 26  1  0
  1  2  2  0
  2  8  1  0
  8  9  2  0
  9  4  1  0
  4  3  2  0
  3  1  1  0
M  END
$$$$
O14757_PocketFlow_idx-in-all-generaetd-41
     RDKit          3D

  9  9  0  0  0  0  0  0  0  0999 V2000
   -0.8794   -1.9236   41.9357 O   0  0  0  0  0  0  0  0  0  0  0  0
    0.3182   -2.2442   41.7073 C   0  0  0  0  0  0  0  0  0  0  0  0
    1.3766   -1.3498   41.6019 C   0  0  0  0  0  0  0  0  0  0  0  0
    2.6423   -1.6963   42.1387 C   0  0  0  0  0  0  0  0  0  0  0  0
    2.7982   -2.6860   43.1645 C   0  0  0  0  0  0  0  0  0  0  0  0
    4.0488   -2.9601   43.7372 C   0  0  0  0  0  0  0  0  0  0  0  0
    5.0639   -1.9490   43.5981 C   0  0  0  0  0  0  0  0  0  0  0  0
    4.7933   -0.8190   42.7922 C   0  0  0  0  0  0  0  0  0  0  0  0
    3.5452   -0.6466   42.2164 C   0  0  0  0  0  0  0  0  0  0  0  0
  1  2  1  0
  2  3  1  0
  3  4  1  0
  4  5  2  0
  5  6  1  0
  6  7  2  0
  7  8  1  0
  8  9  2  0
  9  4  1  0
M  END
$$$$
O14757_PocketFlow_idx-in-all-generaetd-42
     RDKit          3D

 15 15  0  0  0  0  0  0  0  0999 V2000
   -0.6395   -2.0713   41.4947 C   0  0  0  0  0  0  0  0  0  0  0  0
   -0.2671   -3.2464   41.6546 C   0  0  0  0  0  0  0  0  0  0  0  0
    0.2407   -0.9706   41.5952 C   0  0  0  0  0  0  0  0  0  0  0  0
    1.6195   -1.2958   41.8767 C   0  0  0  0  0  0  0  0  0  0  0  0
    1.9162   -2.6816   42.2016 C   0  0  0  0  0  0  0  0  0  0  0  0
    0.9422   -3.6324   42.1156 C   0  0  0  0  0  0  0  0  0  0  0  0
    2.6136   -0.2815   42.1191 C   0  0  1  0  0  0  0  0  0  0  0  0
    2.5116    1.0203   41.8369 C   0  0  0  0  0  0  0  0  0  0  0  0
    3.8116   -0.6898   42.9025 C   0  0  0  0  0  0  0  0  0  0  0  0
    4.9234    0.1451   43.0416 C   0  0  0  0  0  0  0  0  0  0  0  0
   -1.8857   -1.7250   41.1124 F   0  0  0  0  0  0  0  0  0  0  0  0
    1.4951    1.3892   41.2459 F   0  0  0  0  0  0  0  0  0  0  0  0
    6.0045   -0.4568   43.6667 C   0  0  0  0  0  0  0  0  0  0  0  0
    5.9639   -1.6621   44.3368 C   0  0  0  0  0  0  0  0  0  0  0  0
    4.8159   -2.4509   44.1833 C   0  0  0  0  0  0  0  0  0  0  0  0
  4  7  1  0
  7  8  1  1
  7  9  1  0
  9 10  2  3
  1 11  1  0
  8 12  1  0
 10 13  1  0
 13 14  2  3
 14 15  1  0
  1  2  2  0
  2  6  1  0
  6  5  2  0
  5  4  1  0
  4  3  2  0
  3  1  1  0
M  END
$$$$
O14757_PocketFlow_idx-in-all-generaetd-43
     RDKit          3D

 11 10  0  0  0  0  0  0  0  0999 V2000
   -0.6395   -2.0713   41.4947 C   0  0  0  0  0  0  0  0  0  0  0  0
    0.1859   -1.1027   41.5970 C   0  0  0  0  0  0  0  0  0  0  0  0
    1.5836   -1.3270   41.4669 C   0  0  0  0  0  0  0  0  0  0  0  0
   -0.2462   -3.3905   41.2409 C   0  0  0  0  0  0  0  0  0  0  0  0
    2.5788   -0.3160   41.7511 C   0  0  0  0  0  0  0  0  0  0  0  0
    3.8805   -0.6481   42.0316 C   0  0  0  0  0  0  0  0  0  0  0  0
    4.1051   -1.8083   42.8599 C   0  0  0  0  0  0  0  0  0  0  0  0
    5.3550   -2.0356   43.5047 C   0  0  0  0  0  0  0  0  0  0  0  0
    5.3406   -1.7435   44.8269 C   0  0  0  0  0  0  0  0  0  0  0  0
    5.7971   -2.8118   45.7469 C   0  0  0  0  0  0  0  0  0  0  0  0
    6.5629   -3.2335   46.3094 C   0  0  0  0  0  0  0  0  0  0  0  0
  1  2  1  0
  2  3  2  3
  1  4  2  0
  3  5  1  0
  5  6  2  3
  6  7  1  0
  7  8  1  0
  8  9  1  0
  9 10  1  0
 10 11  3  0
M  END
$$$$
O14757_PocketFlow_idx-in-all-generaetd-44
     RDKit          3D

 13 14  0  0  0  0  0  0  0  0999 V2000
    0.2881   -2.9111   42.4378 C   0  0  0  0  0  0  0  0  0  0  0  0
   -0.0650   -2.5021   41.5798 C   0  0  0  0  0  0  0  0  0  0  0  0
    1.5111   -2.4518   43.1047 C   0  0  0  0  0  0  0  0  0  0  0  0
    2.1892   -1.4341   42.4770 C   0  0  0  0  0  0  0  0  0  0  0  0
    3.3839   -0.8722   43.0399 C   0  0  0  0  0  0  0  0  0  0  0  0
    4.0272    0.2093   42.4724 C   0  0  0  0  0  0  0  0  0  0  0  0
   -1.3706   -3.0068   40.9365 C   0  0  0  0  0  0  0  0  0  0  0  0
    1.6432   -0.9884   41.2351 C   0  0  0  0  0  0  0  0  0  0  0  0
    0.5008   -1.4374   40.8352 C   0  0  0  0  0  0  0  0  0  0  0  0
    4.1369   -1.5945   44.0795 C   0  0  0  0  0  0  0  0  0  0  0  0
    5.3038   -1.0984   44.6616 C   0  0  0  0  0  0  0  0  0  0  0  0
    5.2869    0.6647   43.1268 C   0  0  0  0  0  0  0  0  0  0  0  0
    5.9032   -0.0141   44.0678 C   0  0  0  0  0  0  0  0  0  0  0  0
  4  5  1  0
  2  7  1  0
  5  6  2  0
  6 12  1  0
 12 13  2  0
 13 11  1  0
 11 10  2  0
 10  5  1  0
  1  2  2  0
  2  9  1  0
  9  8  2  0
  8  4  1  0
  4  3  2  0
  3  1  1  0
M  END
$$$$
O14757_PocketFlow_idx-in-all-generaetd-45
     RDKit          3D

 35 39  0  0  0  0  0  0  0  0999 V2000
    0.2881   -2.9111   42.4378 C   0  0  0  0  0  0  0  0  0  0  0  0
   -0.0650   -2.5021   41.5798 C   0  0  0  0  0  0  0  0  0  0  0  0
    1.5111   -2.4518   43.1047 C   0  0  0  0  0  0  0  0  0  0  0  0
    2.1892   -1.4341   42.4770 C   0  0  0  0  0  0  0  0  0  0  0  0
    1.5990   -0.8333   41.3694 C   0  0  0  0  0  0  0  0  0  0  0  0
    0.4724   -1.3248   40.8538 C   0  0  0  0  0  0  0  0  0  0  0  0
    3.4529   -0.9652   43.0489 C   0  0  0  0  0  0  0  0  0  0  0  0
    4.2358   -0.0413   42.4733 C   0  0  0  0  0  0  0  0  0  0  0  0
    4.0577   -1.7586   44.1233 C   0  0  0  0  0  0  0  0  0  0  0  0
    5.2728   -1.3572   44.7073 C   0  0  0  0  0  0  0  0  0  0  0  0
    5.4184    0.3498   43.1201 N   0  0  0  0  0  0  0  0  0  0  0  0
    5.8821   -2.0965   45.7468 C   0  0  0  0  0  0  0  0  0  0  0  0
    5.9744   -0.3006   44.0688 C   0  0  0  0  0  0  0  0  0  0  0  0
    7.2493   -2.3555   45.8707 C   0  0  0  0  0  0  0  0  0  0  0  0
    7.8508   -3.2109   46.7507 C   0  0  0  0  0  0  0  0  0  0  0  0
    9.2173   -3.4225   46.9659 C   0  0  0  0  0  0  0  0  0  0  0  0
    9.6651   -4.5378   47.6352 C   0  0  0  0  0  0  0  0  0  0  0  0
    8.7459   -5.4034   48.2594 C   0  0  0  0  0  0  0  0  0  0  0  0
    7.0843   -4.3236   47.3534 C   0  0  0  0  0  0  0  0  0  0  0  0
    5.6038   -4.0599   47.2444 C   0  0  0  0  0  0  0  0  0  0  0  0
    7.4948   -5.2886   48.1897 C   0  0  0  0  0  0  0  0  0  0  0  0
    5.0639   -3.0299   46.3790 C   0  0  0  0  0  0  0  0  0  0  0  0
   -1.5748   -3.0144   40.7792 Cl  0  0  0  0  0  0  0  0  0  0  0  0
    6.5521   -6.1787   48.8414 C   0  0  0  0  0  0  0  0  0  0  0  0
    6.5010   -6.2853   50.1909 C   0  0  0  0  0  0  0  0  0  0  0  0
    5.8187   -7.0528   47.9756 C   0  0  0  0  0  0  0  0  0  0  0  0
    5.6020   -7.3780   50.6961 C   0  0  0  0  0  0  0  0  0  0  0  0
    5.0014   -8.0683   48.4790 C   0  0  0  0  0  0  0  0  0  0  0  0
    4.9016   -8.1713   49.8335 C   0  0  0  0  0  0  0  0  0  0  0  0
    4.0148   -9.2030   50.4317 C   0  0  0  0  0  0  0  0  0  0  0  0
    2.9457   -9.2325   49.7821 F   0  0  0  0  0  0  0  0  0  0  0  0
    4.5938  -10.4160   50.4796 F   0  0  0  0  0  0  0  0  0  0  0  0
    3.7099   -8.9311   51.7484 F   0  0  0  0  0  0  0  0  0  0  0  0
   10.1793   -2.4978   46.2745 C   0  0  0  0  0  0  0  0  0  0  0  0
   10.9437   -1.6904   47.2096 C   0  0  0  0  0  0  0  0  0  0  0  0
  4  7  1  0
 10 12  1  0
  2 23  1  0
 21 24  1  0
 29 30  1  0
 30 31  1  0
 30 32  1  0
 30 33  1  0
 16 34  1  0
 34 35  1  0
 12 14  2  0
 14 15  1  0
 19 20  1  0
 20 22  2  0
 22 12  1  0
 24 25  2  0
 25 27  1  0
 27 29  2  0
 29 28  1  0
 28 26  2  0
 26 24  1  0
 15 16  2  0
 16 17  1  0
 17 18  2  0
 18 21  1  0
 21 19  2  0
 19 15  1  0
  7  8  2  0
  8 11  1  0
 11 13  2  0
 13 10  1  0
 10  9  2  0
  9  7  1  0
  1  2  2  0
  2  6  1  0
  6  5  2  0
  5  4  1  0
  4  3  2  0
  3  1  1  0
M  END
$$$$
O14757_PocketFlow_idx-in-all-generaetd-46
     RDKit          3D

 35 37  0  0  0  0  0  0  0  0999 V2000
   -0.6395   -2.0713   41.4947 C   0  0  0  0  0  0  0  0  0  0  0  0
    0.6719   -2.2449   41.7518 C   0  0  0  0  0  0  0  0  0  0  0  0
    1.5951   -1.1948   41.6106 C   0  0  0  0  0  0  0  0  0  0  0  0
    2.9587   -1.3961   42.0240 C   0  0  0  0  0  0  0  0  0  0  0  0
    3.1652   -2.3460   43.1085 C   0  0  0  0  0  0  0  0  0  0  0  0
    2.2115   -3.3199   43.4243 C   0  0  0  0  0  0  0  0  0  0  0  0
    0.9094   -3.1578   42.8194 C   0  0  0  0  0  0  0  0  0  0  0  0
    4.5516   -2.4042   43.5884 C   0  0  0  0  0  0  0  0  0  0  0  0
    5.2622   -1.2594   43.8998 C   0  0  0  0  0  0  0  0  0  0  0  0
    4.8998   -0.0595   43.4776 C   0  0  0  0  0  0  0  0  0  0  0  0
   -1.3536   -3.0651   41.0476 O   0  0  0  0  0  0  0  0  0  0  0  0
   -1.2536   -0.8815   41.4386 O   0  0  0  0  0  0  0  0  0  0  0  0
    6.4474   -1.4456   44.7735 C   0  0  0  0  0  0  0  0  0  0  0  0
    6.5813   -2.6732   45.5020 C   0  0  0  0  0  0  0  0  0  0  0  0
    7.6704   -2.8951   46.4334 C   0  0  0  0  0  0  0  0  0  0  0  0
    7.6711   -4.0612   47.1727 C   0  0  0  0  0  0  0  0  0  0  0  0
    6.3870   -4.6107   47.5095 C   0  0  0  0  0  0  0  0  0  0  0  0
    5.2446   -4.2186   46.7968 C   0  0  0  0  0  0  0  0  0  0  0  0
    5.3226   -3.1487   45.9273 C   0  0  0  0  0  0  0  0  0  0  0  0
    6.5277   -5.8044   48.3898 C   0  0  0  0  0  0  0  0  0  0  0  0
    5.5764   -5.9040   49.1463 O   0  0  0  0  0  0  0  0  0  0  0  0
    7.6043   -6.2524   48.6815 O   0  0  0  0  0  0  0  0  0  0  0  0
    2.4988   -4.3634   44.3433 C   0  0  0  0  0  0  0  0  0  0  0  0
    1.8324   -4.4674   45.5413 C   0  0  0  0  0  0  0  0  0  0  0  0
    1.1292   -5.7224   45.9013 C   0  0  0  0  0  0  0  0  0  0  0  0
   -0.2807   -5.6849   46.0762 C   0  0  0  0  0  0  0  0  0  0  0  0
   -0.7903   -6.0430   46.8622 C   0  0  0  0  0  0  0  0  0  0  0  0
   -0.5702   -7.5605   47.0757 C   0  0  0  0  0  0  0  0  0  0  0  0
    0.7761   -7.9543   46.8328 C   0  0  0  0  0  0  0  0  0  0  0  0
    1.7254   -6.9470   46.2586 C   0  0  0  0  0  0  0  0  0  0  0  0
   -1.4354   -8.4287   47.8366 C   0  0  0  0  0  0  0  0  0  0  0  0
   -1.8512   -9.3861   47.2820 O   0  0  0  0  0  0  0  0  0  0  0  0
   -2.7007   -9.4659   46.5535 C   0  0  0  0  0  0  0  0  0  0  0  0
   -2.7616   -8.5598   45.5017 C   0  0  0  0  0  0  0  0  0  0  0  0
   -3.6623   -8.6195   44.3681 C   0  0  0  0  0  0  0  0  0  0  0  0
  1  2  1  0
  5  8  1  0
  8  9  1  0
  9 10  1  0
  1 11  2  0
  1 12  1  0
  9 13  1  0
 17 20  1  0
 20 21  1  0
 20 22  2  0
  6 23  1  0
 23 24  1  0
 24 25  1  0
 28 31  1  0
 31 32  1  0
 32 33  1  0
 33 34  1  0
 34 35  2  0
 13 14  1  0
  2  3  2  0
  3  4  1  0
  4  5  2  0
  5  6  1  0
  6  7  2  0
  7  2  1  0
 25 26  2  0
 26 27  1  0
 27 28  2  0
 28 29  1  0
 29 30  2  0
 30 25  1  0
 14 15  2  0
 15 16  1  0
 16 17  2  0
 17 18  1  0
 18 19  2  0
 19 14  1  0
M  END
$$$$
O14757_PocketFlow_idx-in-all-generaetd-47
     RDKit          3D

 30 33  0  0  0  0  0  0  0  0999 V2000
   -0.8794   -1.9236   41.9357 O   0  0  0  0  0  0  0  0  0  0  0  0
    0.3182   -2.2442   41.7073 C   0  0  0  0  0  0  0  0  0  0  0  0
    1.3930   -1.3691   41.5725 C   0  0  0  0  0  0  0  0  0  0  0  0
    1.9066   -0.9190   42.7774 C   0  0  2  0  0  0  0  0  0  0  0  0
    3.1235   -0.0194   42.6707 C   0  0  0  0  0  0  0  0  0  0  0  0
    0.4291   -3.4940   41.0571 O   0  0  0  0  0  0  0  0  0  0  0  0
    4.4097   -0.5505   43.2099 C   0  0  2  0  0  0  0  0  0  0  0  0
    4.4567   -1.8369   43.7272 C   0  0  0  0  0  0  0  0  0  0  0  0
    5.4936   -2.2503   44.5885 C   0  0  0  0  0  0  0  0  0  0  0  0
    5.3928   -3.5091   45.3097 C   0  0  0  0  0  0  0  0  0  0  0  0
    5.9985   -3.6474   46.5661 C   0  0  0  0  0  0  0  0  0  0  0  0
    7.3689   -3.2391   46.7281 C   0  0  0  0  0  0  0  0  0  0  0  0
    7.6801   -2.0041   45.9532 C   0  0  0  0  0  0  0  0  0  0  0  0
    6.7416   -1.5375   44.8216 C   0  0  0  0  0  0  0  0  0  0  0  0
    8.1758   -3.5648   47.7915 C   0  0  0  0  0  0  0  0  0  0  0  0
    8.6596   -4.5873   47.8733 C   0  0  0  0  0  0  0  0  0  0  0  0
    9.4659   -5.0343   48.9983 C   0  0  0  0  0  0  0  0  0  0  0  0
    9.6005   -4.1313   50.0524 C   0  0  0  0  0  0  0  0  0  0  0  0
    8.9616   -2.8681   49.9972 C   0  0  0  0  0  0  0  0  0  0  0  0
    8.2739   -2.5791   48.8648 C   0  0  0  0  0  0  0  0  0  0  0  0
    9.0904   -1.8772   51.0916 C   0  0  0  0  0  0  0  0  0  0  0  0
   10.0581   -0.9036   51.0843 C   0  0  0  0  0  0  0  0  0  0  0  0
    8.1149   -1.9910   52.1827 C   0  0  0  0  0  0  0  0  0  0  0  0
   10.2428   -0.0635   52.2148 C   0  0  0  0  0  0  0  0  0  0  0  0
    8.2807   -1.0317   53.2617 C   0  0  0  0  0  0  0  0  0  0  0  0
    9.3779   -0.1130   53.2686 C   0  0  0  0  0  0  0  0  0  0  0  0
    8.8694   -1.2369   46.0889 C   0  0  0  0  0  0  0  0  0  0  0  0
    3.4969   -2.7388   43.3387 C   0  0  0  0  0  0  0  0  0  0  0  0
    2.2099   -2.0608   43.4461 N   0  0  0  0  0  0  0  0  0  0  0  0
    5.3169    0.4716   43.3980 N   0  0  0  0  0  0  0  0  0  0  0  0
  1  2  2  0
  2  3  1  0
  4  3  1  6
  4  5  1  0
  2  6  1  0
  5  7  1  0
  7  8  1  0
  8  9  1  0
 12 15  1  0
 19 21  1  0
 13 27  1  0
  8 28  1  0
  4 29  1  0
 28 29  1  0
  7 30  1  1
 15 16  2  0
 16 17  1  0
 17 18  2  0
 18 19  1  0
 19 20  2  0
 20 15  1  0
 21 22  2  0
 22 24  1  0
 24 26  2  0
 26 25  1  0
 25 23  2  0
 23 21  1  0
  9 10  2  0
 10 11  1  0
 11 12  2  0
 12 13  1  0
 13 14  2  0
 14  9  1  0
M  END
$$$$
O14757_PocketFlow_idx-in-all-generaetd-48
     RDKit          3D

 35 40  0  0  0  0  0  0  0  0999 V2000
   -0.6395   -2.0713   41.4947 C   0  0  0  0  0  0  0  0  0  0  0  0
   -0.2671   -3.2464   41.6546 C   0  0  0  0  0  0  0  0  0  0  0  0
    0.2277   -0.9875   41.6495 C   0  0  0  0  0  0  0  0  0  0  0  0
    1.6284   -1.2752   41.8841 C   0  0  0  0  0  0  0  0  0  0  0  0
    1.8971   -2.6873   42.1685 C   0  0  0  0  0  0  0  0  0  0  0  0
    0.9380   -3.6379   42.0922 C   0  0  0  0  0  0  0  0  0  0  0  0
    2.7163   -0.4446   42.1633 C   0  0  0  0  0  0  0  0  0  0  0  0
    3.9551   -0.7433   42.6411 C   0  0  0  0  0  0  0  0  0  0  0  0
    4.9696    0.1968   42.8800 C   0  0  0  0  0  0  0  0  0  0  0  0
   -1.9504   -1.5365   41.1041 N   0  0  0  0  0  0  0  0  0  0  0  0
    6.1119   -0.3433   43.5487 C   0  0  0  0  0  0  0  0  0  0  0  0
    6.0680   -1.5717   44.3212 C   0  0  0  0  0  0  0  0  0  0  0  0
    7.0564   -1.9758   45.1646 C   0  0  0  0  0  0  0  0  0  0  0  0
    8.1688   -1.3289   45.6006 C   0  0  0  0  0  0  0  0  0  0  0  0
    4.1691   -1.9520   43.4501 C   0  0  0  0  0  0  0  0  0  0  0  0
    5.1746   -2.3145   44.1428 C   0  0  0  0  0  0  0  0  0  0  0  0
    9.1353   -1.8135   46.5761 C   0  0  0  0  0  0  0  0  0  0  0  0
    8.9090   -3.0632   47.0997 C   0  0  0  0  0  0  0  0  0  0  0  0
    7.0232   -3.2477   45.8980 C   0  0  0  0  0  0  0  0  0  0  0  0
    7.8353   -3.7703   46.7383 C   0  0  0  0  0  0  0  0  0  0  0  0
   -2.4571   -0.3591   41.3803 C   0  0  0  0  0  0  0  0  0  0  0  0
   -2.8345   -2.5027   40.4881 C   0  0  0  0  0  0  0  0  0  0  0  0
   -3.7374    0.0144   40.9402 C   0  0  0  0  0  0  0  0  0  0  0  0
    3.1076   -2.7748   42.9425 N   0  0  0  0  0  0  0  0  0  0  0  0
   -4.0705   -2.0646   40.0463 C   0  0  0  0  0  0  0  0  0  0  0  0
   -4.0974    1.2822   41.2678 F   0  0  0  0  0  0  0  0  0  0  0  0
   -4.5199   -0.8381   40.2900 C   0  0  0  0  0  0  0  0  0  0  0  0
    9.9369   -3.5399   48.0676 C   0  0  1  0  0  0  0  0  0  0  0  0
   10.0304   -3.0904   49.2502 C   0  0  0  0  0  0  0  0  0  0  0  0
    9.2652   -2.1520   49.8002 C   0  0  0  0  0  0  0  0  0  0  0  0
    9.3103   -1.6271   51.1418 C   0  0  0  0  0  0  0  0  0  0  0  0
   10.2594   -2.2005   51.9397 C   0  0  0  0  0  0  0  0  0  0  0  0
   11.1062   -3.1584   51.5630 C   0  0  0  0  0  0  0  0  0  0  0  0
   11.0163   -3.5857   50.2182 C   0  0  0  0  0  0  0  0  0  0  0  0
   10.6973   -4.6271   47.5186 C   0  0  0  0  0  0  0  0  0  0  0  0
  4  7  1  0
  7  8  1  0
  1 10  1  0
 12 13  1  0
 10 21  1  0
 10 22  1  0
 21 23  1  0
  5 24  1  0
 15 24  1  0
 23 26  1  0
 23 27  1  0
 25 27  1  0
 18 28  1  0
 28 29  1  0
 28 35  1  1
 25 22  1  0
  8  9  2  0
  9 11  1  0
 11 12  2  0
 12 16  1  0
 16 15  2  0
 15  8  1  0
 13 14  2  0
 14 17  1  0
 17 18  2  0
 18 20  1  0
 20 19  2  0
 19 13  1  0
  1  2  2  0
  2  6  1  0
  6  5  2  0
  5  4  1  0
  4  3  2  0
  3  1  1  0
 29 30  2  0
 30 31  1  0
 31 32  2  0
 32 33  1  0
 33 34  2  0
 34 29  1  0
M  END
$$$$
O14757_PocketFlow_idx-in-all-generaetd-49
     RDKit          3D

  9  9  0  0  0  0  0  0  0  0999 V2000
   -0.6395   -2.0713   41.4947 C   0  0  0  0  0  0  0  0  0  0  0  0
   -0.2671   -3.2464   41.6546 C   0  0  0  0  0  0  0  0  0  0  0  0
    0.2407   -0.9706   41.5952 C   0  0  0  0  0  0  0  0  0  0  0  0
    1.5531   -1.3394   41.8399 C   0  0  0  0  0  0  0  0  0  0  0  0
    1.9123   -2.6863   42.1918 C   0  0  0  0  0  0  0  0  0  0  0  0
    0.9325   -3.6408   42.1137 C   0  0  0  0  0  0  0  0  0  0  0  0
    2.6063   -0.3010   42.0959 C   0  0  0  0  0  0  0  0  0  0  0  0
    3.8797   -0.6285   42.5811 C   0  0  0  0  0  0  0  0  0  0  0  0
    4.0577   -1.8996   43.2159 C   0  0  0  0  0  0  0  0  0  0  0  0
  4  7  1  0
  7  8  2  3
  8  9  1  0
  1  2  2  0
  2  6  1  0
  6  5  2  0
  5  4  1  0
  4  3  2  0
  3  1  1  0
M  END
$$$$
O14757_PocketFlow_idx-in-all-generaetd-50
     RDKit          3D

 19 21  0  0  0  0  0  0  0  0999 V2000
   -0.6395   -2.0713   41.4947 C   0  0  0  0  0  0  0  0  0  0  0  0
   -0.2671   -3.2464   41.6546 C   0  0  0  0  0  0  0  0  0  0  0  0
    0.2407   -0.9706   41.5952 C   0  0  0  0  0  0  0  0  0  0  0  0
    1.6195   -1.2958   41.8767 C   0  0  0  0  0  0  0  0  0  0  0  0
    1.9162   -2.6816   42.2016 C   0  0  0  0  0  0  0  0  0  0  0  0
    0.9422   -3.6324   42.1156 C   0  0  0  0  0  0  0  0  0  0  0  0
    2.6088   -0.2775   42.1300 C   0  0  0  0  0  0  0  0  0  0  0  0
    3.9059   -0.5876   42.5995 C   0  0  0  0  0  0  0  0  0  0  0  0
    4.1036   -1.8148   43.2659 C   0  0  0  0  0  0  0  0  0  0  0  0
    5.2154   -2.1376   44.0733 C   0  0  0  0  0  0  0  0  0  0  0  0
    6.0803   -1.1116   44.4834 C   0  0  0  0  0  0  0  0  0  0  0  0
    3.1488   -2.8374   42.9446 C   0  0  0  0  0  0  0  0  0  0  0  0
    7.2324   -1.4002   45.3573 C   0  0  0  0  0  0  0  0  0  0  0  0
    7.4236   -2.6801   45.9060 C   0  0  0  0  0  0  0  0  0  0  0  0
    8.4425   -3.0019   46.7828 C   0  0  0  0  0  0  0  0  0  0  0  0
    8.4735   -4.2855   47.3931 C   0  0  0  0  0  0  0  0  0  0  0  0
    5.3416   -3.3948   44.7213 C   0  0  0  0  0  0  0  0  0  0  0  0
    6.4107   -3.6410   45.6141 C   0  0  0  0  0  0  0  0  0  0  0  0
    9.6400   -4.7531   47.8310 C   0  0  0  0  0  0  0  0  0  0  0  0
  9 10  1  0
 14 15  1  0
 15 16  2  3
 16 19  1  0
 10 11  2  0
 11 13  1  0
 13 14  2  0
 14 18  1  0
 18 17  2  0
 17 10  1  0
  1  2  2  0
  2  6  1  0
  6  5  2  0
  4  3  2  0
  3  1  1  0
  4  5  1  0
  5 12  1  0
 12  9  2  0
  9  8  1  0
  8  7  2  0
  7  4  1  0
M  END
$$$$
O14757_PocketFlow_idx-in-all-generaetd-51
     RDKit          3D

 35 38  0  0  0  0  0  0  0  0999 V2000
   -0.8794   -1.9236   41.9357 O   0  0  0  0  0  0  0  0  0  0  0  0
    0.3070   -1.6014   41.6735 C   0  0  0  0  0  0  0  0  0  0  0  0
    1.3011   -2.6668   41.5732 C   0  0  0  0  0  0  0  0  0  0  0  0
    0.7830   -0.3895   41.5690 O   0  0  0  0  0  0  0  0  0  0  0  0
    2.3655   -2.4347   42.2626 C   0  0  0  0  0  0  0  0  0  0  0  0
    2.9866   -1.1894   42.3324 C   0  0  0  0  0  0  0  0  0  0  0  0
    2.0437   -0.1305   42.0813 C   0  0  0  0  0  0  0  0  0  0  0  0
    4.2667   -0.8699   42.8129 C   0  0  0  0  0  0  0  0  0  0  0  0
    4.6991   -0.9897   44.0671 C   0  0  0  0  0  0  0  0  0  0  0  0
    3.9421   -1.7140   45.0877 C   0  0  0  0  0  0  0  0  0  0  0  0
    4.6876   -2.0296   46.3085 C   0  0  0  0  0  0  0  0  0  0  0  0
    5.5442   -2.9979   46.2180 C   0  0  0  0  0  0  0  0  0  0  0  0
    5.7241   -3.9767   47.2117 C   0  0  0  0  0  0  0  0  0  0  0  0
    6.9307   -4.2197   47.9114 C   0  0  0  0  0  0  0  0  0  0  0  0
    8.1013   -3.7711   47.2263 C   0  0  0  0  0  0  0  0  0  0  0  0
    7.9800   -2.8368   46.1475 C   0  0  0  0  0  0  0  0  0  0  0  0
    6.7533   -2.4040   45.7469 C   0  0  0  0  0  0  0  0  0  0  0  0
    9.4215   -4.2253   47.6826 C   0  0  1  0  0  0  0  0  0  0  0  0
    9.8819   -5.3408   47.0271 C   0  0  0  0  0  0  0  0  0  0  0  0
    9.3349   -6.4711   46.9490 C   0  0  0  0  0  0  0  0  0  0  0  0
    9.9806   -7.6317   46.3070 C   0  0  0  0  0  0  0  0  0  0  0  0
   10.9356   -8.0149   46.7871 C   0  0  0  0  0  0  0  0  0  0  0  0
   11.9714   -6.9107   47.0685 C   0  0  0  0  0  0  0  0  0  0  0  0
   11.4723   -5.6116   47.2230 C   0  0  0  0  0  0  0  0  0  0  0  0
    6.1222   -0.6151   44.3192 C   0  0  0  0  0  0  0  0  0  0  0  0
    6.8378   -1.2546   44.6326 C   0  0  0  0  0  0  0  0  0  0  0  0
   10.1853   -3.3292   48.4668 C   0  0  0  0  0  0  0  0  0  0  0  0
   10.1481   -3.5175   49.8728 C   0  0  0  0  0  0  0  0  0  0  0  0
    9.5902   -3.9419   50.6093 C   0  0  0  0  0  0  0  0  0  0  0  0
    8.1648   -4.4427   50.3741 C   0  0  0  0  0  0  0  0  0  0  0  0
   10.9411   -2.3257   47.7507 C   0  0  0  0  0  0  0  0  0  0  0  0
   10.5152   -1.3813   47.0533 C   0  0  0  0  0  0  0  0  0  0  0  0
   11.3689   -0.4323   46.3880 C   0  0  0  0  0  0  0  0  0  0  0  0
   12.7484   -0.4633   46.6519 C   0  0  0  0  0  0  0  0  0  0  0  0
   12.4527   -2.3394   48.0552 C   0  0  0  0  0  0  0  0  0  0  0  0
  1  2  2  0
  2  3  1  0
  2  4  1  0
  3  5  1  0
  5  6  1  0
  4  7  1  0
  6  7  2  0
  6  8  1  0
  8  9  2  3
  9 10  1  0
 10 11  2  0
 11 12  1  0
 15 18  1  0
 18 19  1  0
  9 25  1  0
 17 26  1  0
 25 26  2  0
 18 27  1  6
 27 28  1  0
 28 29  2  3
 29 30  1  0
 27 31  1  0
 31 32  2  3
 32 33  1  0
 33 34  2  0
 31 35  1  0
 12 13  2  0
 13 14  1  0
 14 15  2  0
 15 16  1  0
 16 17  2  0
 17 12  1  0
 19 20  2  0
 20 21  1  0
 21 22  2  0
 22 23  1  0
 23 24  2  0
 24 19  1  0
M  END
$$$$
O14757_PocketFlow_idx-in-all-generaetd-52
     RDKit          3D

 14 15  0  0  0  0  0  0  0  0999 V2000
    0.2881   -2.9111   42.4378 C   0  0  0  0  0  0  0  0  0  0  0  0
   -0.0650   -2.5021   41.5798 C   0  0  0  0  0  0  0  0  0  0  0  0
    1.5584   -2.5265   43.0885 C   0  0  0  0  0  0  0  0  0  0  0  0
    2.2571   -1.5118   42.4661 C   0  0  0  0  0  0  0  0  0  0  0  0
    3.4613   -0.9848   43.0009 C   0  0  0  0  0  0  0  0  0  0  0  0
    4.0987   -1.7401   44.0258 C   0  0  0  0  0  0  0  0  0  0  0  0
    5.3226   -1.2619   44.6006 C   0  0  0  0  0  0  0  0  0  0  0  0
    0.4588   -1.3111   40.9511 C   0  0  0  0  0  0  0  0  0  0  0  0
    1.6851   -0.8093   41.4304 C   0  0  0  0  0  0  0  0  0  0  0  0
    5.8551   -2.1506   45.6677 C   0  0  0  0  0  0  0  0  0  0  0  0
    5.1881   -3.3599   46.0190 C   0  0  0  0  0  0  0  0  0  0  0  0
    4.0001   -3.6946   45.4000 C   0  0  0  0  0  0  0  0  0  0  0  0
    3.4767   -2.9276   44.4313 C   0  0  0  0  0  0  0  0  0  0  0  0
    2.2260   -3.3364   43.9207 C   0  0  0  0  0  0  0  0  0  0  0  0
  4  5  1  0
  5  6  1  0
  3 14  1  0
  1  2  2  0
  2  8  1  0
  8  9  2  0
  9  4  1  0
  4  3  2  0
  3  1  1  0
  6  7  2  0
  7 10  1  0
 10 11  2  0
 11 12  1  0
 12 13  2  0
 13  6  1  0
M  END
$$$$
O14757_PocketFlow_idx-in-all-generaetd-53
     RDKit          3D

  9  9  0  0  0  0  0  0  0  0999 V2000
   -0.6395   -2.0713   41.4947 C   0  0  0  0  0  0  0  0  0  0  0  0
    0.1859   -1.1027   41.5970 C   0  0  0  0  0  0  0  0  0  0  0  0
    1.5836   -1.3270   41.4670 C   0  0  0  0  0  0  0  0  0  0  0  0
   -0.2462   -3.3905   41.2409 C   0  0  0  0  0  0  0  0  0  0  0  0
    2.0075   -2.6977   41.3341 C   0  0  0  0  0  0  0  0  0  0  0  0
    1.0655   -3.6470   41.1373 C   0  0  0  0  0  0  0  0  0  0  0  0
    2.8492    0.0255   41.7855 Br  0  0  0  0  0  0  0  0  0  0  0  0
   -1.9798   -1.8446   41.6058 F   0  0  0  0  0  0  0  0  0  0  0  0
   -1.1695   -4.3179   41.1180 F   0  0  0  0  0  0  0  0  0  0  0  0
  3  7  1  0
  1  8  1  0
  4  9  1  0
  1  2  2  0
  2  3  1  0
  3  5  2  0
  5  6  1  0
  6  4  2  0
  4  1  1  0
M  END
$$$$
O14757_PocketFlow_idx-in-all-generaetd-54
     RDKit          3D

 26 27  0  0  0  0  0  0  0  0999 V2000
   -0.8794   -1.9236   41.9357 O   0  0  0  0  0  0  0  0  0  0  0  0
    0.3070   -1.6014   41.6735 C   0  0  0  0  0  0  0  0  0  0  0  0
    1.2548   -2.6723   41.5755 C   0  0  0  0  0  0  0  0  0  0  0  0
    1.4583   -3.1655   42.9015 C   0  0  0  0  0  0  0  0  0  0  0  0
    0.4840   -4.0028   43.4934 C   0  0  0  0  0  0  0  0  0  0  0  0
    0.7921   -5.3352   43.4565 C   0  0  0  0  0  0  0  0  0  0  0  0
    1.5901   -5.9274   44.4429 C   0  0  0  0  0  0  0  0  0  0  0  0
    1.0997   -7.0702   45.1347 C   0  0  0  0  0  0  0  0  0  0  0  0
    1.7675   -7.7268   46.0255 C   0  0  0  0  0  0  0  0  0  0  0  0
    3.2135   -7.3753   46.1101 C   0  0  0  0  0  0  0  0  0  0  0  0
    3.6903   -6.2213   45.4823 C   0  0  0  0  0  0  0  0  0  0  0  0
    2.8437   -5.5403   44.5868 C   0  0  0  0  0  0  0  0  0  0  0  0
    0.7856   -0.4062   41.8691 O   0  0  0  0  0  0  0  0  0  0  0  0
    4.1084   -8.0537   47.1118 C   0  0  0  0  0  0  0  0  0  0  0  0
    4.2322   -9.2877   47.2056 O   0  0  0  0  0  0  0  0  0  0  0  0
    4.9749   -7.2844   47.8075 O   0  0  0  0  0  0  0  0  0  0  0  0
    5.9568   -7.7755   48.5831 C   0  0  0  0  0  0  0  0  0  0  0  0
    5.9243   -7.4804   49.6858 C   0  0  2  0  0  0  0  0  0  0  0  0
    5.3573   -6.4101   50.0308 O   0  0  0  0  0  0  0  0  0  0  0  0
    7.3277   -7.3799   50.4074 C   0  0  0  0  0  0  0  0  0  0  0  0
    8.1050   -6.2378   49.9767 C   0  0  0  0  0  0  0  0  0  0  0  0
    9.1058   -5.9804   50.3864 C   0  0  0  0  0  0  0  0  0  0  0  0
    9.8526   -4.6955   49.9664 C   0  0  0  0  0  0  0  0  0  0  0  0
    9.3290   -3.8704   49.3400 C   0  0  0  0  0  0  0  0  0  0  0  0
    7.9174   -4.0961   48.8050 C   0  0  0  0  0  0  0  0  0  0  0  0
    7.3208   -5.2357   49.2428 C   0  0  0  0  0  0  0  0  0  0  0  0
  1  2  1  0
  2  3  1  0
  3  4  1  0
  4  5  1  0
  5  6  1  0
  6  7  1  0
  2 13  2  0
 10 14  1  0
 14 15  2  0
 14 16  1  0
 16 17  1  0
 17 18  1  0
 18 19  1  6
 18 20  1  0
 20 21  1  0
  7  8  2  0
  8  9  1  0
  9 10  2  0
 10 11  1  0
 11 12  2  0
 12  7  1  0
 21 22  2  0
 22 23  1  0
 23 24  2  0
 24 25  1  0
 25 26  2  0
 26 21  1  0
M  END
$$$$
O14757_PocketFlow_idx-in-all-generaetd-55
     RDKit          3D

 35 38  0  0  0  0  0  0  0  0999 V2000
   -0.6395   -2.0713   41.4947 C   0  0  0  0  0  0  0  0  0  0  0  0
    0.1859   -1.1027   41.5970 C   0  0  0  0  0  0  0  0  0  0  0  0
   -0.2410   -3.3795   41.5297 C   0  0  0  0  0  0  0  0  0  0  0  0
    1.6125   -1.3641   41.8466 C   0  0  0  0  0  0  0  0  0  0  0  0
    1.9568   -2.7213   42.1561 C   0  0  0  0  0  0  0  0  0  0  0  0
    3.2405   -2.9356   42.7549 C   0  0  0  0  0  0  0  0  0  0  0  0
    1.0096   -3.6953   41.9519 C   0  0  0  0  0  0  0  0  0  0  0  0
    3.3961   -2.4695   44.1421 C   0  0  0  0  0  0  0  0  0  0  0  0
    4.6415   -2.7303   44.8077 C   0  0  0  0  0  0  0  0  0  0  0  0
    4.9154   -3.6875   45.6432 C   0  0  0  0  0  0  0  0  0  0  0  0
    6.2016   -3.6283   46.3400 C   0  0  0  0  0  0  0  0  0  0  0  0
    7.0811   -2.5891   45.9681 C   0  0  0  0  0  0  0  0  0  0  0  0
    5.7140   -1.7506   44.5266 C   0  0  0  0  0  0  0  0  0  0  0  0
    6.8887   -1.7054   45.0831 C   0  0  0  0  0  0  0  0  0  0  0  0
   -1.9061   -1.8350   41.0881 F   0  0  0  0  0  0  0  0  0  0  0  0
    8.4950   -2.7228   46.6358 C   0  0  0  0  0  0  0  0  0  0  0  0
    9.0259   -3.8760   47.1263 C   0  0  0  0  0  0  0  0  0  0  0  0
   10.2977   -3.9148   47.6129 C   0  0  0  0  0  0  0  0  0  0  0  0
    9.3694   -1.6076   46.5852 C   0  0  0  0  0  0  0  0  0  0  0  0
   10.6220   -1.6046   47.1352 C   0  0  0  0  0  0  0  0  0  0  0  0
   11.1230   -2.7615   47.6554 C   0  0  0  0  0  0  0  0  0  0  0  0
    2.4973   -0.2093   42.0303 C   0  0  0  0  0  0  0  0  0  0  0  0
    3.8021   -0.2387   41.9575 N   0  0  0  0  0  0  0  0  0  0  0  0
    1.9776    0.9029   42.2383 O   0  0  0  0  0  0  0  0  0  0  0  0
    3.9702   -4.6872   46.0300 C   0  0  0  0  0  0  0  0  0  0  0  0
    4.4338   -5.8763   46.1791 N   0  0  0  0  0  0  0  0  0  0  0  0
    2.7468   -4.4523   46.0784 O   0  0  0  0  0  0  0  0  0  0  0  0
    3.5313   -7.0587   46.4194 C   0  0  0  0  0  0  0  0  0  0  0  0
    2.5816   -7.2582   45.4240 C   0  0  0  0  0  0  0  0  0  0  0  0
    1.5413   -8.1639   45.7725 C   0  0  0  0  0  0  0  0  0  0  0  0
    1.7398   -9.1113   46.8360 C   0  0  0  0  0  0  0  0  0  0  0  0
    2.9055   -8.9651   47.7004 C   0  0  0  0  0  0  0  0  0  0  0  0
    3.8400   -7.8910   47.5089 C   0  0  0  0  0  0  0  0  0  0  0  0
    4.9909   -7.7132   48.3663 C   0  0  0  0  0  0  0  0  0  0  0  0
    5.5697   -6.8931   48.6440 C   0  0  0  0  0  0  0  0  0  0  0  0
  5  6  1  0
  6  8  1  0
  1 15  1  0
 12 16  1  0
  4 22  1  0
 22 23  1  0
 22 24  2  0
 10 25  1  0
 25 26  1  0
 25 27  2  0
 26 28  1  0
 33 34  1  0
 34 35  2  0
  8  9  1  0
 28 29  2  0
 29 30  1  0
 30 31  2  0
 31 32  1  0
 32 33  2  0
 33 28  1  0
  1  2  2  0
  2  4  1  0
  4  5  2  0
  5  7  1  0
  7  3  2  0
  3  1  1  0
 16 17  2  0
 17 18  1  0
 18 21  2  0
 21 20  1  0
 20 19  2  0
 19 16  1  0
  9 10  1  0
 10 11  2  0
 11 12  1  0
 12 14  2  0
 14 13  1  0
 13  9  2  0
M  END
$$$$
O14757_PocketFlow_idx-in-all-generaetd-56
     RDKit          3D

 19 21  0  0  0  0  0  0  0  0999 V2000
   -0.6395   -2.0713   41.4947 C   0  0  0  0  0  0  0  0  0  0  0  0
    0.6719   -2.2449   41.7518 C   0  0  0  0  0  0  0  0  0  0  0  0
    1.5951   -1.1948   41.6106 C   0  0  0  0  0  0  0  0  0  0  0  0
    2.9587   -1.3961   42.0240 C   0  0  0  0  0  0  0  0  0  0  0  0
    3.1624   -1.7136   43.3240 C   0  0  0  0  0  0  0  0  0  0  0  0
    4.5092   -1.7118   43.8449 C   0  0  0  0  0  0  0  0  0  0  0  0
    4.9589   -2.5475   44.8441 C   0  0  0  0  0  0  0  0  0  0  0  0
    4.0786   -3.6122   45.2301 C   0  0  0  0  0  0  0  0  0  0  0  0
    2.7955   -3.7391   44.6026 C   0  0  0  0  0  0  0  0  0  0  0  0
    2.4465   -3.0018   43.6501 C   0  0  0  0  0  0  0  0  0  0  0  0
    1.0706   -3.1580   43.0425 C   0  0  0  0  0  0  0  0  0  0  0  0
    6.1997   -2.3527   45.5679 C   0  0  0  0  0  0  0  0  0  0  0  0
    6.7700   -3.3617   46.3471 C   0  0  0  0  0  0  0  0  0  0  0  0
    8.0390   -3.1823   46.9710 C   0  0  0  0  0  0  0  0  0  0  0  0
    8.7981   -2.0721   46.5675 C   0  0  0  0  0  0  0  0  0  0  0  0
    8.2762   -1.1264   45.6540 C   0  0  0  0  0  0  0  0  0  0  0  0
    7.0486   -1.2605   45.1826 C   0  0  0  0  0  0  0  0  0  0  0  0
   -1.3455   -1.0571   41.4233 O   0  0  0  0  0  0  0  0  0  0  0  0
   -1.2906   -3.1963   41.1039 O   0  0  0  0  0  0  0  0  0  0  0  0
  1  2  1  0
  7 12  1  0
  1 18  1  0
  1 19  2  0
 12 13  2  0
 13 14  1  0
 14 15  2  0
 15 16  1  0
 16 17  2  0
 17 12  1  0
  2  3  2  0
  3  4  1  0
  4  5  2  0
 10 11  2  0
 11  2  1  0
  5  6  1  0
  6  7  2  0
  7  8  1  0
  8  9  2  0
  9 10  1  0
 10  5  1  0
M  END
$$$$
O14757_PocketFlow_idx-in-all-generaetd-57
     RDKit          3D

 35 39  0  0  0  0  0  0  0  0999 V2000
   -0.6395   -2.0713   41.4947 C   0  0  0  0  0  0  0  0  0  0  0  0
    0.1859   -1.1027   41.5970 C   0  0  0  0  0  0  0  0  0  0  0  0
    1.5858   -1.4431   41.9548 C   0  0  0  0  0  0  0  0  0  0  0  0
   -0.3290   -3.4217   41.4987 C   0  0  0  0  0  0  0  0  0  0  0  0
    1.8802   -2.7764   42.3577 C   0  0  0  0  0  0  0  0  0  0  0  0
    0.8480   -3.7518   42.1496 C   0  0  0  0  0  0  0  0  0  0  0  0
    2.6048   -0.4381   42.2079 C   0  0  0  0  0  0  0  0  0  0  0  0
    3.8799   -0.7448   42.7161 C   0  0  0  0  0  0  0  0  0  0  0  0
    4.0037   -2.0007   43.3982 C   0  0  0  0  0  0  0  0  0  0  0  0
    5.1147   -2.3548   44.1612 C   0  0  0  0  0  0  0  0  0  0  0  0
    3.0095   -3.0133   43.0719 C   0  0  0  0  0  0  0  0  0  0  0  0
    5.1329   -3.4759   45.0592 C   0  0  0  0  0  0  0  0  0  0  0  0
    6.2000   -3.6144   45.9395 C   0  0  0  0  0  0  0  0  0  0  0  0
    7.2540   -2.6439   45.9856 C   0  0  0  0  0  0  0  0  0  0  0  0
    7.1883   -1.5251   45.1626 C   0  0  0  0  0  0  0  0  0  0  0  0
    6.1056   -1.3120   44.3367 C   0  0  0  0  0  0  0  0  0  0  0  0
   -2.0720   -1.6907   41.1041 C   0  0  0  0  0  0  0  0  0  0  0  0
    8.3991   -2.8547   46.8620 C   0  0  0  0  0  0  0  0  0  0  0  0
    9.5509   -2.1648   46.7631 C   0  0  0  0  0  0  0  0  0  0  0  0
   10.6686   -2.3432   47.5515 C   0  0  0  0  0  0  0  0  0  0  0  0
   10.6042   -3.3190   48.5205 C   0  0  0  0  0  0  0  0  0  0  0  0
    9.5080   -4.1369   48.5997 C   0  0  0  0  0  0  0  0  0  0  0  0
    8.3909   -3.9463   47.7899 C   0  0  0  0  0  0  0  0  0  0  0  0
   -2.8938   -2.5124   40.6530 O   0  0  0  0  0  0  0  0  0  0  0  0
   -2.4401   -0.4575   41.3069 O   0  0  0  0  0  0  0  0  0  0  0  0
    5.0170    0.5201   42.8620 Cl  0  0  0  0  0  0  0  0  0  0  0  0
    9.4296   -5.3101   49.5617 C   0  0  0  0  0  0  0  0  0  0  0  0
    9.4643   -6.5236   49.1147 C   0  0  0  0  0  0  0  0  0  0  0  0
    8.3829   -7.1230   48.7838 C   0  0  0  0  0  0  0  0  0  0  0  0
    8.3453   -8.4654   48.1371 C   0  0  0  0  0  0  0  0  0  0  0  0
    9.5626   -8.9491   47.7200 C   0  0  0  0  0  0  0  0  0  0  0  0
   10.7497   -8.3083   48.0315 C   0  0  0  0  0  0  0  0  0  0  0  0
   10.7182   -7.0597   48.6701 C   0  0  0  0  0  0  0  0  0  0  0  0
    8.3356   -5.0768   50.6935 C   0  0  0  0  0  0  0  0  0  0  0  0
   10.8184   -5.1181   50.5537 C   0  0  0  0  0  0  0  0  0  0  0  0
  9 10  1  0
  1 17  1  0
 14 18  1  0
 17 24  2  0
 17 25  1  0
  8 26  1  0
 22 27  1  0
 27 28  1  0
 27 34  1  0
 27 35  1  0
 18 19  2  0
 19 20  1  0
 20 21  2  0
 21 22  1  0
 22 23  2  0
 23 18  1  0
  1  2  2  0
  2  3  1  0
  5  6  1  0
  6  4  2  0
  4  1  1  0
  3  5  2  0
  5 11  1  0
 11  9  2  0
  9  8  1  0
  8  7  2  0
  7  3  1  0
 10 12  2  0
 12 13  1  0
 13 14  2  0
 14 15  1  0
 15 16  2  0
 16 10  1  0
 28 29  2  0
 29 30  1  0
 30 31  2  0
 31 32  1  0
 32 33  2  0
 33 28  1  0
M  END
$$$$
O14757_PocketFlow_idx-in-all-generaetd-58
     RDKit          3D

 29 32  0  0  0  0  0  0  0  0999 V2000
   -0.6395   -2.0713   41.4947 C   0  0  0  0  0  0  0  0  0  0  0  0
    0.1859   -1.1027   41.5970 C   0  0  0  0  0  0  0  0  0  0  0  0
    1.5858   -1.4430   41.9548 C   0  0  0  0  0  0  0  0  0  0  0  0
   -0.3290   -3.4217   41.4987 C   0  0  0  0  0  0  0  0  0  0  0  0
    2.5865   -0.4507   42.1596 C   0  0  1  0  0  0  0  0  0  0  0  0
    3.8762   -0.8377   42.4211 C   0  0  0  0  0  0  0  0  0  0  0  0
    4.2356   -1.1021   43.6767 C   0  0  0  0  0  0  0  0  0  0  0  0
    5.6382   -1.2852   44.0593 C   0  0  0  0  0  0  0  0  0  0  0  0
    1.0195   -3.7650   41.8660 C   0  0  0  0  0  0  0  0  0  0  0  0
    1.9325   -2.7512   42.1068 C   0  0  0  0  0  0  0  0  0  0  0  0
    6.2706   -0.6096   44.5058 C   0  0  0  0  0  0  0  0  0  0  0  0
   -2.0974   -1.7669   41.1235 C   0  0  0  0  0  0  0  0  0  0  0  0
   -2.6297   -0.5793   41.4321 N   0  0  0  0  0  0  0  0  0  0  0  0
   -2.9503   -2.6992   40.7065 N   0  0  0  0  0  0  0  0  0  0  0  0
    7.7058   -0.9494   44.8775 C   0  0  0  0  0  0  0  0  0  0  0  0
    7.9665   -1.8040   46.0757 C   0  0  0  0  0  0  0  0  0  0  0  0
    9.2366   -1.8884   46.5408 C   0  0  0  0  0  0  0  0  0  0  0  0
    9.6557   -3.0345   47.0941 C   0  0  0  0  0  0  0  0  0  0  0  0
    8.6870   -4.1260   47.2659 C   0  0  0  0  0  0  0  0  0  0  0  0
    7.3880   -3.9382   46.8105 C   0  0  0  0  0  0  0  0  0  0  0  0
    7.0646   -2.8529   46.0736 C   0  0  0  0  0  0  0  0  0  0  0  0
    5.8926   -2.7661   45.2734 C   0  0  0  0  0  0  0  0  0  0  0  0
   -3.8739   -0.5365   40.8788 C   0  0  0  0  0  0  0  0  0  0  0  0
   -4.0513   -1.8860   40.3780 C   0  0  0  0  0  0  0  0  0  0  0  0
    4.7988   -3.6960   45.2114 C   0  0  1  0  0  0  0  0  0  0  0  0
    4.4366   -4.4228   44.1310 C   0  0  0  0  0  0  0  0  0  0  0  0
    4.1142   -3.8508   46.4984 C   0  0  0  0  0  0  0  0  0  0  0  0
    3.1250   -4.6826   46.4670 O   0  0  0  0  0  0  0  0  0  0  0  0
    2.2916    0.8623   42.0277 N   0  0  0  0  0  0  0  0  0  0  0  0
  3  5  1  0
  5  6  1  0
  6  7  1  0
  7  8  1  0
  1 12  1  0
 12 13  2  0
 12 14  1  0
 13 23  1  0
 14 24  1  0
 23 24  1  0
 22 25  1  0
 25 26  1  1
 25 27  1  0
 27 28  2  0
  5 29  1  6
  8 11  2  0
 11 15  1  0
 15 16  2  0
 21 22  2  0
 22  8  1  0
  1  2  2  0
  2  3  1  0
  3 10  2  0
 10  9  1  0
  9  4  2  0
  4  1  1  0
 16 17  1  0
 17 18  2  0
 18 19  1  0
 19 20  2  0
 20 21  1  0
 21 16  1  0
M  END
$$$$
O14757_PocketFlow_idx-in-all-generaetd-59
     RDKit          3D

 10 10  0  0  0  0  0  0  0  0999 V2000
    0.2881   -2.9111   42.4378 C   0  0  0  0  0  0  0  0  0  0  0  0
    1.1784   -3.4293   42.9321 C   0  0  0  0  0  0  0  0  0  0  0  0
    2.4696   -2.7231   42.8997 C   0  0  0  0  0  0  0  0  0  0  0  0
    2.5380   -1.5398   42.2487 C   0  0  0  0  0  0  0  0  0  0  0  0
    0.2254   -1.7181   41.6878 C   0  0  0  0  0  0  0  0  0  0  0  0
    3.7411   -0.7335   42.1233 C   0  0  0  0  0  0  0  0  0  0  0  0
    1.3903   -1.0407   41.5821 C   0  0  0  0  0  0  0  0  0  0  0  0
    4.8221   -1.1471   43.0284 C   0  0  0  0  0  0  0  0  0  0  0  0
    5.8457   -0.2655   43.4116 C   0  0  0  0  0  0  0  0  0  0  0  0
    1.1738   -4.8517   43.9482 Cl  0  0  0  0  0  0  0  0  0  0  0  0
  4  6  1  0
  6  8  2  3
  8  9  1  0
  2 10  1  0
  1  2  2  0
  2  3  1  0
  3  4  2  0
  4  7  1  0
  7  5  2  0
  5  1  1  0
M  END
$$$$
O14757_PocketFlow_idx-in-all-generaetd-60
     RDKit          3D

 20 21  0  0  0  0  0  0  0  0999 V2000
   -0.6395   -2.0713   41.4947 C   0  0  0  0  0  0  0  0  0  0  0  0
    0.6719   -2.2449   41.7518 C   0  0  0  0  0  0  0  0  0  0  0  0
    1.3815   -1.6359   42.7231 C   0  0  0  0  0  0  0  0  0  0  0  0
   -1.3884   -2.9047   40.6798 C   0  0  0  0  0  0  0  0  0  0  0  0
    2.8449   -1.5590   42.5246 C   0  0  0  0  0  0  0  0  0  0  0  0
    3.6364   -2.2952   43.4902 C   0  0  0  0  0  0  0  0  0  0  0  0
    4.7882   -1.6879   44.0847 C   0  0  0  0  0  0  0  0  0  0  0  0
    5.1803   -0.4021   43.5444 C   0  0  0  0  0  0  0  0  0  0  0  0
    4.3193    0.3067   42.6839 C   0  0  0  0  0  0  0  0  0  0  0  0
    3.1376   -0.2477   42.3138 C   0  0  0  0  0  0  0  0  0  0  0  0
    5.5918   -2.4469   44.9838 C   0  0  0  0  0  0  0  0  0  0  0  0
    6.7740   -1.9663   45.5696 C   0  0  0  0  0  0  0  0  0  0  0  0
    7.5226   -2.7713   46.4595 C   0  0  0  0  0  0  0  0  0  0  0  0
    8.8227   -2.5669   46.9009 C   0  0  0  0  0  0  0  0  0  0  0  0
    9.3772   -1.3259   46.4413 C   0  0  0  0  0  0  0  0  0  0  0  0
    8.6170   -0.4305   45.6929 C   0  0  0  0  0  0  0  0  0  0  0  0
    7.4359   -0.7949   45.2154 C   0  0  0  0  0  0  0  0  0  0  0  0
    5.1697   -3.6514   45.2896 O   0  0  0  0  0  0  0  0  0  0  0  0
   -2.6304   -2.5272   40.4988 F   0  0  0  0  0  0  0  0  0  0  0  0
    2.2559    0.4281   41.5235 O   0  0  0  0  0  0  0  0  0  0  0  0
  1  2  1  0
  2  3  2  3
  1  4  1  0
  3  5  1  0
  7 11  1  0
 11 12  1  0
 11 18  2  0
  4 19  1  0
 10 20  1  0
 12 13  2  0
 13 14  1  0
 14 15  2  0
 15 16  1  0
 16 17  2  0
 17 12  1  0
  5  6  2  0
  6  7  1  0
  7  8  2  0
  8  9  1  0
  9 10  2  0
 10  5  1  0
M  END
$$$$
O14757_PocketFlow_idx-in-all-generaetd-61
     RDKit          3D

 35 38  0  0  0  0  0  0  0  0999 V2000
   -0.6395   -2.0713   41.4947 C   0  0  0  0  0  0  0  0  0  0  0  0
    0.6719   -2.2449   41.7518 C   0  0  0  0  0  0  0  0  0  0  0  0
    1.5951   -1.1948   41.6106 C   0  0  0  0  0  0  0  0  0  0  0  0
    2.9587   -1.3961   42.0240 C   0  0  0  0  0  0  0  0  0  0  0  0
    3.1624   -1.7136   43.3240 C   0  0  0  0  0  0  0  0  0  0  0  0
    4.4944   -1.5694   43.8944 C   0  0  0  0  0  0  0  0  0  0  0  0
    5.0614   -2.4305   44.8160 C   0  0  0  0  0  0  0  0  0  0  0  0
    4.3185   -3.5646   45.2236 C   0  0  0  0  0  0  0  0  0  0  0  0
    3.0648   -3.8470   44.5614 C   0  0  0  0  0  0  0  0  0  0  0  0
    2.6156   -3.1125   43.5918 C   0  0  0  0  0  0  0  0  0  0  0  0
    5.1998   -0.3744   43.4644 C   0  0  0  0  0  0  0  0  0  0  0  0
   -1.1047   -0.7698   41.3350 C   0  0  0  0  0  0  0  0  0  0  0  0
   -0.1203    0.2003   41.2497 N   0  0  0  0  0  0  0  0  0  0  0  0
    1.0969    0.0817   41.4404 C   0  0  0  0  0  0  0  0  0  0  0  0
    2.2133   -4.9586   45.0112 C   0  0  0  0  0  0  0  0  0  0  0  0
    0.8957   -4.9559   44.6870 C   0  0  0  0  0  0  0  0  0  0  0  0
    0.0071   -6.0687   45.0384 C   0  0  0  0  0  0  0  0  0  0  0  0
   -0.8329   -6.6602   43.8493 Cl  0  0  0  0  0  0  0  0  0  0  0  0
   -2.3745   -0.4361   41.1320 N   0  0  0  0  0  0  0  0  0  0  0  0
    0.8936   -7.1002   45.5158 F   0  0  0  0  0  0  0  0  0  0  0  0
   -0.7889   -5.7864   46.0940 F   0  0  0  0  0  0  0  0  0  0  0  0
    6.3226   -2.1505   45.5576 C   0  0  0  0  0  0  0  0  0  0  0  0
    6.7709   -2.9754   46.6360 C   0  0  0  0  0  0  0  0  0  0  0  0
    8.0823   -2.8274   47.1111 C   0  0  0  0  0  0  0  0  0  0  0  0
    8.5645   -3.7219   48.1262 C   0  0  0  0  0  0  0  0  0  0  0  0
    7.5868   -4.5995   48.7034 C   0  0  0  0  0  0  0  0  0  0  0  0
    6.2945   -4.6174   48.2869 C   0  0  0  0  0  0  0  0  0  0  0  0
    5.8888   -3.8263   47.2774 C   0  0  0  0  0  0  0  0  0  0  0  0
    4.6511   -4.1383   46.6406 N   0  0  0  0  0  0  0  0  0  0  0  0
    9.0882   -1.9418   46.4908 C   0  0  1  0  0  0  0  0  0  0  0  0
    8.7905   -0.7578   46.1089 N   0  0  0  0  0  0  0  0  0  0  0  0
   10.4520   -2.4103   46.3745 C   0  0  0  0  0  0  0  0  0  0  0  0
   -3.3777   -1.2562   40.9057 C   0  0  0  0  0  0  0  0  0  0  0  0
   -3.0484   -2.4941   40.2246 C   0  0  0  0  0  0  0  0  0  0  0  0
   -4.6485   -0.7584   40.6320 C   0  0  0  0  0  0  0  0  0  0  0  0
  3  4  1  0
  4  5  1  0
  6 11  1  0
  9 15  1  0
 15 16  1  0
 16 17  1  0
 17 18  1  0
 12 19  1  0
 17 20  1  0
 17 21  1  0
 24 30  1  0
 30 31  1  0
 30 32  1  1
 19 33  1  0
 33 34  1  0
 33 35  1  0
  1  2  2  0
  2  3  1  0
  3 14  2  0
 14 13  1  0
 13 12  2  0
 12  1  1  0
 23 24  1  0
 24 25  2  0
 25 26  1  0
 26 27  2  0
 27 28  1  0
  5  6  2  0
  6  7  1  0
  8  9  1  0
  9 10  2  0
 10  5  1  0
  7  8  2  0
  8 29  1  0
 29 28  2  0
 28 23  1  0
 23 22  2  0
 22  7  1  0
M  END
$$$$
O14757_PocketFlow_idx-in-all-generaetd-62
     RDKit          3D

 25 28  0  0  0  0  0  0  0  0999 V2000
   -0.6395   -2.0713   41.4947 C   0  0  0  0  0  0  0  0  0  0  0  0
   -0.2671   -3.2464   41.6546 C   0  0  0  0  0  0  0  0  0  0  0  0
    0.2407   -0.9706   41.5952 C   0  0  0  0  0  0  0  0  0  0  0  0
    1.6195   -1.2958   41.8767 C   0  0  0  0  0  0  0  0  0  0  0  0
    1.9162   -2.6816   42.2016 C   0  0  0  0  0  0  0  0  0  0  0  0
    3.2242   -2.9142   42.7890 C   0  0  0  0  0  0  0  0  0  0  0  0
    0.9779   -3.6270   42.0792 C   0  0  0  0  0  0  0  0  0  0  0  0
    3.3044   -3.7917   43.8997 C   0  0  0  0  0  0  0  0  0  0  0  0
    4.5482   -3.8441   44.6203 C   0  0  0  0  0  0  0  0  0  0  0  0
    5.4509   -2.7562   44.5681 C   0  0  0  0  0  0  0  0  0  0  0  0
    5.2318   -1.7282   43.6062 C   0  0  0  0  0  0  0  0  0  0  0  0
    4.1000   -1.7228   42.8298 C   0  0  0  0  0  0  0  0  0  0  0  0
   -2.0459   -1.7428   41.0443 C   0  0  0  0  0  0  0  0  0  0  0  0
   -2.7992   -2.6738   40.5359 N   0  0  0  0  0  0  0  0  0  0  0  0
   -2.5750   -0.5128   41.2321 N   0  0  0  0  0  0  0  0  0  0  0  0
    6.6673   -2.7091   45.4004 C   0  0  0  0  0  0  0  0  0  0  0  0
    7.0891   -3.7793   46.1864 C   0  0  0  0  0  0  0  0  0  0  0  0
    8.2170   -3.6213   47.0081 C   0  0  0  0  0  0  0  0  0  0  0  0
    8.9522   -2.4213   46.9603 C   0  0  0  0  0  0  0  0  0  0  0  0
    7.4447   -1.5037   45.4632 C   0  0  0  0  0  0  0  0  0  0  0  0
    8.5662   -1.3746   46.1828 C   0  0  0  0  0  0  0  0  0  0  0  0
   -3.7968   -0.1520   40.7869 C   0  0  0  0  0  0  0  0  0  0  0  0
   -4.0268   -2.3841   40.1354 N   0  0  0  0  0  0  0  0  0  0  0  0
   -4.5190   -1.1720   40.1738 C   0  0  0  0  0  0  0  0  0  0  0  0
   -4.1332    1.1166   40.9102 N   0  0  0  0  0  0  0  0  0  0  0  0
  5  6  1  0
  1 13  1  0
 10 16  1  0
 22 25  1  0
  1  2  2  0
  2  7  1  0
  7  5  2  0
  5  4  1  0
  4  3  2  0
  3  1  1  0
 13 14  2  0
 14 23  1  0
 23 24  2  0
 24 22  1  0
 22 15  2  0
 15 13  1  0
  6  8  2  0
  8  9  1  0
  9 10  2  0
 10 11  1  0
 11 12  2  0
 12  6  1  0
 16 17  2  0
 17 18  1  0
 18 19  2  0
 19 21  1  0
 21 20  2  0
 20 16  1  0
M  END
$$$$
O14757_PocketFlow_idx-in-all-generaetd-63
     RDKit          3D

 17 19  0  0  0  0  0  0  0  0999 V2000
    0.2881   -2.9111   42.4378 C   0  0  0  0  0  0  0  0  0  0  0  0
   -0.0650   -2.5020   41.5798 C   0  0  0  0  0  0  0  0  0  0  0  0
    0.3903   -4.2958   42.8988 C   0  0  0  0  0  0  0  0  0  0  0  0
    0.9283   -4.7375   44.0590 C   0  0  0  0  0  0  0  0  0  0  0  0
    0.6815   -5.8515   44.8068 C   0  0  0  0  0  0  0  0  0  0  0  0
    0.0668   -1.0249   41.3024 C   0  0  0  0  0  0  0  0  0  0  0  0
    1.2470   -0.3773   41.7795 C   0  0  0  0  0  0  0  0  0  0  0  0
    2.1322   -1.1953   42.5816 C   0  0  0  0  0  0  0  0  0  0  0  0
    1.7815   -2.5605   42.8250 C   0  0  0  0  0  0  0  0  0  0  0  0
   -0.5511   -6.1104   45.1930 C   0  0  0  0  0  0  0  0  0  0  0  0
   -0.7964   -7.4462   45.8532 C   0  0  0  0  0  0  0  0  0  0  0  0
    0.2817   -8.2123   46.2185 C   0  0  0  0  0  0  0  0  0  0  0  0
    1.5763   -7.8479   45.8976 C   0  0  0  0  0  0  0  0  0  0  0  0
    1.8297   -6.6647   45.1004 C   0  0  0  0  0  0  0  0  0  0  0  0
    2.0004   -3.7931   44.6297 C   0  0  0  0  0  0  0  0  0  0  0  0
    2.6986   -4.2202   45.7308 N   0  0  0  0  0  0  0  0  0  0  0  0
    2.3763   -2.7026   43.9065 C   0  0  0  0  0  0  0  0  0  0  0  0
  4  5  1  0
 15 16  1  0
  5 10  2  0
 10 11  1  0
 11 12  2  0
 12 13  1  0
 13 14  2  0
 14  5  1  0
  1  3  1  0
  3  4  2  0
  4 15  1  0
 15 17  2  0
 17  9  1  0
  1  2  2  0
  2  6  1  0
  6  7  2  0
  7  8  1  0
  8  9  2  0
  9  1  1  0
M  END
$$$$
O14757_PocketFlow_idx-in-all-generaetd-64
     RDKit          3D

 35 38  0  0  0  0  0  0  0  0999 V2000
   -0.6395   -2.0713   41.4947 C   0  0  0  0  0  0  0  0  0  0  0  0
    0.1859   -1.1027   41.5970 C   0  0  0  0  0  0  0  0  0  0  0  0
    1.5858   -1.4431   41.9548 C   0  0  0  0  0  0  0  0  0  0  0  0
   -0.3290   -3.4217   41.4987 C   0  0  0  0  0  0  0  0  0  0  0  0
    2.5755   -0.4653   42.0743 C   0  0  0  0  0  0  0  0  0  0  0  0
    3.8590   -0.7417   42.5241 C   0  0  0  0  0  0  0  0  0  0  0  0
    4.1514   -1.1220   43.7401 C   0  0  0  0  0  0  0  0  0  0  0  0
    3.6585   -2.0255   44.5318 C   0  0  0  0  0  0  0  0  0  0  0  0
    4.3734   -2.5106   45.6808 C   0  0  0  0  0  0  0  0  0  0  0  0
    0.9626   -3.7164   41.8681 N   0  0  0  0  0  0  0  0  0  0  0  0
    1.8746   -2.7477   42.0966 C   0  0  0  0  0  0  0  0  0  0  0  0
    5.3268   -2.9696   45.8148 C   0  0  0  0  0  0  0  0  0  0  0  0
    6.4440   -2.1468   45.0139 C   0  0  0  0  0  0  0  0  0  0  0  0
    5.8366   -1.3532   43.9754 C   0  0  0  0  0  0  0  0  0  0  0  0
   -2.0084   -1.8272   41.1158 N   0  0  0  0  0  0  0  0  0  0  0  0
    5.9715   -3.5962   47.0238 C   0  0  0  0  0  0  0  0  0  0  0  0
    5.2843   -4.8400   47.3686 C   0  0  0  0  0  0  0  0  0  0  0  0
    5.8433   -5.5420   48.4787 C   0  0  0  0  0  0  0  0  0  0  0  0
    7.0322   -5.0912   49.1137 C   0  0  0  0  0  0  0  0  0  0  0  0
    7.6666   -3.9738   48.6509 C   0  0  0  0  0  0  0  0  0  0  0  0
    7.1786   -3.2751   47.6495 C   0  0  0  0  0  0  0  0  0  0  0  0
   -2.8819   -2.6308   40.6025 C   0  0  0  0  0  0  0  0  0  0  0  0
   -2.4453   -0.3424   41.1451 C   0  0  0  0  0  0  0  0  0  0  0  0
   -3.8005   -0.1508   40.9213 C   0  0  0  0  0  0  0  0  0  0  0  0
    8.8699   -3.5167   49.3567 C   0  0  0  0  0  0  0  0  0  0  0  0
    9.3672   -2.5927   48.7327 F   0  0  0  0  0  0  0  0  0  0  0  0
    9.7994   -4.5385   49.5548 F   0  0  0  0  0  0  0  0  0  0  0  0
    8.4967   -3.1004   50.6362 F   0  0  0  0  0  0  0  0  0  0  0  0
   -4.1290    1.1576   41.0940 O   0  0  0  0  0  0  0  0  0  0  0  0
   -4.6232   -1.0465   40.6566 N   0  0  0  0  0  0  0  0  0  0  0  0
   -4.1646   -2.2544   40.4179 N   0  0  0  0  0  0  0  0  0  0  0  0
    2.2917    0.7483   41.8417 F   0  0  0  0  0  0  0  0  0  0  0  0
    5.2477   -6.6567   48.9286 O   0  0  0  0  0  0  0  0  0  0  0  0
    5.9070   -7.3554   49.8795 C   0  0  0  0  0  0  0  0  0  0  0  0
    5.7254   -8.8479   49.7033 C   0  0  0  0  0  0  0  0  0  0  0  0
  3  5  1  0
  5  6  2  3
  6  7  1  0
  1 15  1  0
 12 16  1  0
 15 22  1  0
 15 23  1  0
 23 24  1  0
 20 25  1  0
 25 26  1  0
 25 27  1  0
 25 28  1  0
 24 29  2  0
 24 30  1  0
 22 31  1  0
 30 31  1  0
  5 32  1  0
 18 33  1  0
 33 34  1  0
 34 35  1  0
  1  2  2  0
  2  3  1  0
  3 11  2  0
 11 10  1  0
 10  4  2  0
  4  1  1  0
  7  8  2  0
  8  9  1  0
  9 12  2  0
 12 13  1  0
 13 14  2  0
 14  7  1  0
 16 17  2  0
 17 18  1  0
 18 19  2  0
 19 20  1  0
 20 21  2  0
 21 16  1  0
M  END
$$$$
O14757_PocketFlow_idx-in-all-generaetd-65
     RDKit          3D

  6  5  0  0  0  0  0  0  0  0999 V2000
   -0.8794   -1.9236   41.9357 O   0  0  0  0  0  0  0  0  0  0  0  0
    0.3070   -1.6014   41.6735 C   0  0  0  0  0  0  0  0  0  0  0  0
    1.2672   -2.5849   41.5046 N   0  0  0  0  0  0  0  0  0  0  0  0
    1.0041   -0.0717   42.1407 Cl  0  0  0  0  0  0  0  0  0  0  0  0
    0.6936   -3.8886   41.2391 C   0  0  0  0  0  0  0  0  0  0  0  0
   -0.3759   -4.2354   42.2812 C   0  0  0  0  0  0  0  0  0  0  0  0
  1  2  2  0
  2  3  1  0
  2  4  1  0
  3  5  1  0
  5  6  1  0
M  END
$$$$
O14757_PocketFlow_idx-in-all-generaetd-66
     RDKit          3D

 13 13  0  0  0  0  0  0  0  0999 V2000
   -0.6395   -2.0713   41.4947 C   0  0  0  0  0  0  0  0  0  0  0  0
   -0.2671   -3.2464   41.6546 C   0  0  0  0  0  0  0  0  0  0  0  0
    0.2407   -0.9706   41.5952 C   0  0  0  0  0  0  0  0  0  0  0  0
    1.6195   -1.2958   41.8767 C   0  0  0  0  0  0  0  0  0  0  0  0
    1.9162   -2.6816   42.2016 C   0  0  0  0  0  0  0  0  0  0  0  0
    0.9422   -3.6324   42.1156 C   0  0  0  0  0  0  0  0  0  0  0  0
    2.6136   -0.2815   42.1191 C   0  0  0  0  0  0  0  0  0  0  0  0
    3.9096   -0.5773   42.5950 C   0  0  0  0  0  0  0  0  0  0  0  0
    4.0819   -1.8037   43.3231 C   0  0  0  0  0  0  0  0  0  0  0  0
    5.2017   -2.1063   44.1267 C   0  0  0  0  0  0  0  0  0  0  0  0
    5.2163   -3.2557   44.9064 C   0  0  0  0  0  0  0  0  0  0  0  0
    6.2551   -3.4300   45.9203 C   0  0  0  0  0  0  0  0  0  0  0  0
    6.2277   -4.4609   46.8548 C   0  0  0  0  0  0  0  0  0  0  0  0
  4  7  1  0
  7  8  2  3
  8  9  1  0
  9 10  2  3
 10 11  1  0
 11 12  1  0
 12 13  2  0
  1  2  2  0
  2  6  1  0
  6  5  2  0
  5  4  1  0
  4  3  2  0
  3  1  1  0
M  END
$$$$
O14757_PocketFlow_idx-in-all-generaetd-67
     RDKit          3D

 23 24  0  0  0  0  0  0  0  0999 V2000
   -0.6395   -2.0713   41.4947 C   0  0  0  0  0  0  0  0  0  0  0  0
    0.1859   -1.1027   41.5970 C   0  0  0  0  0  0  0  0  0  0  0  0
    1.5836   -1.3270   41.4670 C   0  0  0  0  0  0  0  0  0  0  0  0
   -0.2462   -3.3905   41.2409 C   0  0  0  0  0  0  0  0  0  0  0  0
    2.0075   -2.6977   41.3341 C   0  0  0  0  0  0  0  0  0  0  0  0
    1.0655   -3.6470   41.1373 C   0  0  0  0  0  0  0  0  0  0  0  0
    2.5627   -0.2735   41.7331 C   0  0  0  0  0  0  0  0  0  0  0  0
    3.2558   -0.1922   43.0355 C   0  0  0  0  0  0  0  0  0  0  0  0
    4.6194   -0.6938   43.0596 C   0  0  0  0  0  0  0  0  0  0  0  0
    5.1308   -1.1511   44.3042 C   0  0  0  0  0  0  0  0  0  0  0  0
    6.3237   -1.8622   44.3876 C   0  0  0  0  0  0  0  0  0  0  0  0
    6.4362   -2.8455   45.3897 C   0  0  0  0  0  0  0  0  0  0  0  0
    5.3421   -3.2972   46.1694 C   0  0  0  0  0  0  0  0  0  0  0  0
    4.0950   -2.6506   45.9630 C   0  0  0  0  0  0  0  0  0  0  0  0
    4.0401   -1.5550   45.2781 C   0  0  0  0  0  0  0  0  0  0  0  0
    5.5206   -4.3040   47.1821 C   0  0  0  0  0  0  0  0  0  0  0  0
    6.4075   -4.6009   47.7417 O   0  0  0  0  0  0  0  0  0  0  0  0
    4.3151   -4.8163   47.6045 O   0  0  0  0  0  0  0  0  0  0  0  0
   -2.0027   -1.7850   41.5855 O   0  0  0  0  0  0  0  0  0  0  0  0
   -2.7041   -1.3158   40.5026 C   0  0  0  0  0  0  0  0  0  0  0  0
    5.4399   -0.4386   42.1593 O   0  0  0  0  0  0  0  0  0  0  0  0
   -4.0043   -1.9903   40.4727 C   0  0  0  0  0  0  0  0  0  0  0  0
   -4.7588   -1.5285   39.5584 O   0  0  0  0  0  0  0  0  0  0  0  0
  3  7  1  0
  7  8  1  0
  8  9  1  0
  9 10  1  0
 13 16  1  0
 16 17  2  0
 16 18  1  0
  1 19  1  0
 19 20  1  0
  9 21  2  0
 20 22  1  0
 22 23  1  0
  1  2  2  0
  2  3  1  0
  3  5  2  0
  5  6  1  0
  6  4  2  0
  4  1  1  0
 10 11  2  0
 11 12  1  0
 12 13  2  0
 13 14  1  0
 14 15  2  0
 15 10  1  0
M  END
$$$$
O14757_PocketFlow_idx-in-all-generaetd-68
     RDKit          3D

 20 22  0  0  0  0  0  0  0  0999 V2000
   -0.6770   -2.0561   41.5845 Cl  0  0  0  0  0  0  0  0  0  0  0  0
    0.3848   -3.0618   41.9511 C   0  0  0  0  0  0  0  0  0  0  0  0
    1.6487   -2.6690   42.3503 C   0  0  0  0  0  0  0  0  0  0  0  0
    2.0740   -1.4696   42.1305 C   0  0  0  0  0  0  0  0  0  0  0  0
    3.3406   -0.9848   42.6236 C   0  0  0  0  0  0  0  0  0  0  0  0
    4.1202   -1.8197   43.4730 C   0  0  0  0  0  0  0  0  0  0  0  0
    3.5754   -3.0466   43.8489 C   0  0  0  0  0  0  0  0  0  0  0  0
    2.3512   -3.4984   43.3083 C   0  0  0  0  0  0  0  0  0  0  0  0
    5.4375   -1.4201   43.9814 C   0  0  0  0  0  0  0  0  0  0  0  0
    5.8968   -0.1735   43.9927 C   0  0  0  0  0  0  0  0  0  0  0  0
    5.7435   -2.0890   45.3690 C   0  0  0  0  0  0  0  0  0  0  0  0
    4.8441   -2.5569   46.2288 C   0  0  0  0  0  0  0  0  0  0  0  0
    3.7083   -3.3786   45.6076 C   0  0  0  0  0  0  0  0  0  0  0  0
    0.1200   -4.3744   41.8518 O   0  0  0  0  0  0  0  0  0  0  0  0
    7.1534   -2.3481   45.6946 C   0  0  0  0  0  0  0  0  0  0  0  0
    7.9682   -1.2670   46.0578 C   0  0  0  0  0  0  0  0  0  0  0  0
    7.5542   -3.6548   46.0653 C   0  0  0  0  0  0  0  0  0  0  0  0
    9.3476   -1.4351   46.5739 C   0  0  0  0  0  0  0  0  0  0  0  0
    8.8562   -3.8184   46.6281 C   0  0  0  0  0  0  0  0  0  0  0  0
    9.7128   -2.7417   46.8449 C   0  0  0  0  0  0  0  0  0  0  0  0
  1  2  1  0
  2  3  1  0
  9 10  1  0
  2 14  2  0
 11 15  1  0
  3  4  2  0
  4  5  1  0
  5  6  2  0
  7  8  2  0
  8  3  1  0
 15 16  2  0
 16 18  1  0
 18 20  2  0
 20 19  1  0
 19 17  2  0
 17 15  1  0
  6  7  1  0
  7 13  1  0
 13 12  2  0
 12 11  1  0
 11  9  2  0
  9  6  1  0
M  END
$$$$
O14757_PocketFlow_idx-in-all-generaetd-69
     RDKit          3D

 17 18  0  0  0  0  0  0  0  0999 V2000
   -0.6395   -2.0713   41.4947 C   0  0  0  0  0  0  0  0  0  0  0  0
   -0.2671   -3.2464   41.6546 C   0  0  0  0  0  0  0  0  0  0  0  0
    0.2277   -0.9875   41.6495 C   0  0  0  0  0  0  0  0  0  0  0  0
    1.6284   -1.2752   41.8841 C   0  0  0  0  0  0  0  0  0  0  0  0
    2.6421   -0.3335   42.0825 C   0  0  0  0  0  0  0  0  0  0  0  0
    3.8980   -0.6935   42.5215 C   0  0  0  0  0  0  0  0  0  0  0  0
    4.9125    0.2028   42.8756 C   0  0  0  0  0  0  0  0  0  0  0  0
    1.0599   -3.6657   41.9597 C   0  0  0  0  0  0  0  0  0  0  0  0
    1.9590   -2.5920   42.1652 C   0  0  0  0  0  0  0  0  0  0  0  0
   -2.0793   -1.7707   41.1289 C   0  0  0  0  0  0  0  0  0  0  0  0
   -2.8067   -2.6276   40.6357 O   0  0  0  0  0  0  0  0  0  0  0  0
   -2.5847   -0.6071   41.5422 O   0  0  0  0  0  0  0  0  0  0  0  0
    5.8614   -0.3702   43.6320 F   0  0  0  0  0  0  0  0  0  0  0  0
    4.0930   -2.0680   42.6092 C   0  0  0  0  0  0  0  0  0  0  0  0
    3.1491   -3.0201   42.6195 C   0  0  0  0  0  0  0  0  0  0  0  0
    4.3630    1.2230   43.7103 F   0  0  0  0  0  0  0  0  0  0  0  0
    5.3422    0.8224   41.8454 F   0  0  0  0  0  0  0  0  0  0  0  0
  6  7  1  0
  1 10  1  0
 10 11  2  0
 10 12  1  0
  7 13  1  0
  7 16  1  0
  7 17  1  0
  1  2  2  0
  2  8  1  0
  8  9  2  0
  4  3  2  0
  3  1  1  0
  4  5  1  0
  5  6  2  0
  6 14  1  0
 14 15  2  0
 15  9  1  0
  9  4  1  0
M  END
$$$$
O14757_PocketFlow_idx-in-all-generaetd-70
     RDKit          3D

 32 35  0  0  0  0  0  0  0  0999 V2000
   -0.6395   -2.0713   41.4947 C   0  0  0  0  0  0  0  0  0  0  0  0
    0.6719   -2.2449   41.7518 C   0  0  0  0  0  0  0  0  0  0  0  0
    1.5951   -1.1948   41.6106 C   0  0  0  0  0  0  0  0  0  0  0  0
    2.9587   -1.3961   42.0240 C   0  0  0  0  0  0  0  0  0  0  0  0
    3.8815   -0.3441   42.0598 C   0  0  0  0  0  0  0  0  0  0  0  0
    4.4886   -0.0976   43.3461 C   0  0  0  0  0  0  0  0  0  0  0  0
    4.8965   -1.1525   44.2224 C   0  0  0  0  0  0  0  0  0  0  0  0
    5.6731   -1.0856   45.3157 C   0  0  0  0  0  0  0  0  0  0  0  0
   -1.5440   -3.1420   41.4413 C   0  0  0  0  0  0  0  0  0  0  0  0
    4.2783   -2.3760   43.7705 C   0  0  0  0  0  0  0  0  0  0  0  0
    3.1844   -2.4376   42.9442 C   0  0  0  0  0  0  0  0  0  0  0  0
   -0.8843   -4.3841   41.4656 N   0  0  0  0  0  0  0  0  0  0  0  0
    4.4368   -3.5272   44.7274 C   0  0  0  0  0  0  0  0  0  0  0  0
    5.4056   -3.5648   45.7050 C   0  0  0  0  0  0  0  0  0  0  0  0
    5.9987   -2.4791   46.0466 C   0  0  0  0  0  0  0  0  0  0  0  0
    3.7820   -4.7708   44.3344 C   0  0  0  0  0  0  0  0  0  0  0  0
    2.6952   -5.3500   44.8641 C   0  0  0  0  0  0  0  0  0  0  0  0
    2.2890   -6.6308   44.6309 C   0  0  0  0  0  0  0  0  0  0  0  0
    1.1458   -7.2284   45.1939 C   0  0  0  0  0  0  0  0  0  0  0  0
    0.6897   -8.3647   45.1800 C   0  0  0  0  0  0  0  0  0  0  0  0
    0.2155   -6.0504   45.6434 C   0  0  0  0  0  0  0  0  0  0  0  0
    0.5634   -4.7335   45.7591 C   0  0  0  0  0  0  0  0  0  0  0  0
    1.8279   -4.3400   45.3499 C   0  0  0  0  0  0  0  0  0  0  0  0
   -1.0823   -6.5948   46.1541 C   0  0  0  0  0  0  0  0  0  0  0  0
   -1.5612   -7.8352   46.0719 C   0  0  0  0  0  0  0  0  0  0  0  0
   -0.5916   -8.7781   45.6649 C   0  0  0  0  0  0  0  0  0  0  0  0
   -2.8119   -8.2272   46.5805 C   0  0  2  0  0  0  0  0  0  0  0  0
   -3.0461   -8.6266   47.8414 C   0  0  0  0  0  0  0  0  0  0  0  0
   -3.8973   -8.3639   45.6477 C   0  0  0  0  0  0  0  0  0  0  0  0
   -3.8641   -7.7968   44.4510 C   0  0  0  0  0  0  0  0  0  0  0  0
   -4.8696   -8.0093   43.4461 C   0  0  0  0  0  0  0  0  0  0  0  0
   -5.7698   -8.5565   43.7629 C   0  0  0  0  0  0  0  0  0  0  0  0
  1  2  1  0
  2  3  2  3
  3  4  1  0
  1  9  2  3
  9 12  1  0
 13 16  1  0
 16 17  1  0
 25 27  1  0
 27 28  1  6
 27 29  1  0
 29 30  2  3
 30 31  1  0
 31 32  2  0
  4  5  2  0
  5  6  1  0
  6  7  2  0
 10 11  2  0
 11  4  1  0
 19 20  2  0
 20 26  1  0
 26 25  2  0
 25 24  1  0
 24 21  2  0
 17 18  2  0
 18 19  1  0
 19 21  1  0
 21 22  1  0
 22 23  2  0
 23 17  1  0
  7  8  1  0
  8 15  2  0
 15 14  1  0
 14 13  2  0
 13 10  1  0
 10  7  1  0
M  END
$$$$
O14757_PocketFlow_idx-in-all-generaetd-71
     RDKit          3D

 15 14  0  0  0  0  0  0  0  0999 V2000
   -0.6395   -2.0713   41.4947 C   0  0  0  0  0  0  0  0  0  0  0  0
   -0.2671   -3.2464   41.6546 C   0  0  0  0  0  0  0  0  0  0  0  0
   -2.0053   -1.6706   41.3987 C   0  0  0  0  0  0  0  0  0  0  0  0
   -2.2928   -0.3176   41.3208 C   0  0  0  0  0  0  0  0  0  0  0  0
   -3.5679   -0.0116   41.1750 N   0  0  0  0  0  0  0  0  0  0  0  0
    0.4132   -1.0390   41.4557 C   0  0  0  0  0  0  0  0  0  0  0  0
    1.7546   -1.3379   41.5356 C   0  0  0  0  0  0  0  0  0  0  0  0
    2.4167   -1.1821   42.7031 C   0  0  0  0  0  0  0  0  0  0  0  0
    3.3296   -1.4456   43.0817 C   0  0  0  0  0  0  0  0  0  0  0  0
    4.2817   -2.1332   42.8281 C   0  0  0  0  0  0  0  0  0  0  0  0
    5.3334   -2.4969   43.7213 C   0  0  0  0  0  0  0  0  0  0  0  0
    5.3426   -2.3913   44.7812 C   0  0  0  0  0  0  0  0  0  0  0  0
    6.4237   -2.9067   45.7170 C   0  0  0  0  0  0  0  0  0  0  0  0
    6.4523   -3.2034   46.7562 C   0  0  0  0  0  0  0  0  0  0  0  0
    5.1010   -3.1941   47.4601 C   0  0  0  0  0  0  0  0  0  0  0  0
  1  2  1  0
  1  3  2  3
  3  4  1  0
  4  5  1  0
  1  6  1  0
  6  7  1  0
  7  8  1  0
  8  9  2  3
  9 10  1  0
 10 11  1  0
 11 12  2  3
 12 13  1  0
 13 14  2  3
 14 15  1  0
M  END
$$$$
O14757_PocketFlow_idx-in-all-generaetd-72
     RDKit          3D

 28 31  0  0  0  0  0  0  0  0999 V2000
   -0.6395   -2.0713   41.4947 C   0  0  0  0  0  0  0  0  0  0  0  0
    0.1859   -1.1027   41.5970 C   0  0  0  0  0  0  0  0  0  0  0  0
   -2.0077   -1.8651   41.2044 C   0  0  0  0  0  0  0  0  0  0  0  0
    1.5974   -1.2445   41.7640 C   0  0  0  0  0  0  0  0  0  0  0  0
    2.5563   -0.2262   41.8331 C   0  0  0  0  0  0  0  0  0  0  0  0
   -2.4885   -0.5157   41.1785 C   0  0  0  0  0  0  0  0  0  0  0  0
    3.8524   -0.4692   42.1451 C   0  0  0  0  0  0  0  0  0  0  0  0
    4.7929    0.4590   42.5798 C   0  0  0  0  0  0  0  0  0  0  0  0
   -3.8641   -0.2932   40.9615 C   0  0  0  0  0  0  0  0  0  0  0  0
    0.0471   -3.3487   41.3794 C   0  0  0  0  0  0  0  0  0  0  0  0
    1.8869   -2.6030   42.0772 C   0  0  0  0  0  0  0  0  0  0  0  0
    1.1674   -3.5958   41.8161 N   0  0  0  0  0  0  0  0  0  0  0  0
    5.9535   -0.1046   43.2347 C   0  0  0  0  0  0  0  0  0  0  0  0
    5.8707   -1.3445   43.9564 C   0  0  0  0  0  0  0  0  0  0  0  0
    4.7614   -2.2310   43.6427 C   0  0  0  0  0  0  0  0  0  0  0  0
    3.7381   -1.7483   42.8763 C   0  0  0  0  0  0  0  0  0  0  0  0
    2.8179   -2.6686   42.6379 N   0  0  0  0  0  0  0  0  0  0  0  0
    7.0136   -1.7082   44.8048 C   0  0  0  0  0  0  0  0  0  0  0  0
    6.8980   -2.8195   45.7300 C   0  0  0  0  0  0  0  0  0  0  0  0
    5.8025   -3.5994   45.9867 C   0  0  0  0  0  0  0  0  0  0  0  0
    5.8782   -4.4867   47.0953 C   0  0  0  0  0  0  0  0  0  0  0  0
    6.9396   -4.4671   47.9978 C   0  0  0  0  0  0  0  0  0  0  0  0
    8.0525   -3.6983   47.7751 C   0  0  0  0  0  0  0  0  0  0  0  0
    8.0564   -2.8061   46.7130 C   0  0  0  0  0  0  0  0  0  0  0  0
    6.8547   -5.4076   49.1652 C   0  0  0  0  0  0  0  0  0  0  0  0
    5.5789   -5.5116   49.5396 F   0  0  0  0  0  0  0  0  0  0  0  0
    7.4612   -4.8404   50.2367 F   0  0  0  0  0  0  0  0  0  0  0  0
    7.3973   -6.5162   48.8983 F   0  0  0  0  0  0  0  0  0  0  0  0
  1  3  1  0
  3  6  2  3
  6  9  1  0
 14 18  1  0
 22 25  1  0
 25 26  1  0
 25 27  1  0
 25 28  1  0
 18 19  1  0
  1  2  2  0
  2  4  1  0
 11 12  1  0
 12 10  2  0
 10  1  1  0
  4  5  2  0
  5  7  1  0
 16 17  1  0
 17 11  2  0
 11  4  1  0
 19 20  2  0
 20 21  1  0
 21 22  2  0
 22 23  1  0
 23 24  2  0
 24 19  1  0
  7  8  2  0
  8 13  1  0
 13 14  2  0
 14 15  1  0
 15 16  2  0
 16  7  1  0
M  END
$$$$
O14757_PocketFlow_idx-in-all-generaetd-73
     RDKit          3D

 20 22  0  0  0  0  0  0  0  0999 V2000
   -0.6395   -2.0713   41.4947 C   0  0  0  0  0  0  0  0  0  0  0  0
   -0.2671   -3.2464   41.6546 C   0  0  0  0  0  0  0  0  0  0  0  0
    0.2277   -0.9875   41.6495 C   0  0  0  0  0  0  0  0  0  0  0  0
    1.5674   -1.3182   41.7554 C   0  0  0  0  0  0  0  0  0  0  0  0
    2.6262   -0.3453   42.0034 C   0  0  0  0  0  0  0  0  0  0  0  0
    3.8944   -0.7134   42.4549 C   0  0  0  0  0  0  0  0  0  0  0  0
    4.9021    0.1338   42.8605 C   0  0  0  0  0  0  0  0  0  0  0  0
    1.0807   -3.6733   41.8272 C   0  0  0  0  0  0  0  0  0  0  0  0
    1.9603   -2.6229   41.9775 C   0  0  0  0  0  0  0  0  0  0  0  0
   -2.1105   -1.7570   41.2227 C   0  0  0  0  0  0  0  0  0  0  0  0
   -2.5664   -0.6269   41.5110 O   0  0  0  0  0  0  0  0  0  0  0  0
   -2.8369   -2.6263   40.7062 O   0  0  0  0  0  0  0  0  0  0  0  0
    5.9354   -0.3987   43.5609 N   0  0  0  0  0  0  0  0  0  0  0  0
    5.7117   -1.6353   44.1248 C   0  0  0  0  0  0  0  0  0  0  0  0
    6.7444   -2.0872   45.0731 C   0  0  0  0  0  0  0  0  0  0  0  0
    6.4883   -3.0442   46.0044 C   0  0  0  0  0  0  0  0  0  0  0  0
    5.1960   -3.6670   45.9229 C   0  0  0  0  0  0  0  0  0  0  0  0
    4.2040   -3.2028   45.1148 C   0  0  0  0  0  0  0  0  0  0  0  0
    4.4757   -2.1257   44.2646 C   0  0  0  0  0  0  0  0  0  0  0  0
    3.5325   -1.7345   43.3698 N   0  0  0  0  0  0  0  0  0  0  0  0
  4  5  1  0
  5  6  1  0
  1 10  1  0
 10 11  2  0
 10 12  1  0
  1  2  2  0
  2  8  1  0
  8  9  2  0
  9  4  1  0
  4  3  2  0
  3  1  1  0
  6  7  2  0
  7 13  1  0
 13 14  2  0
 19 20  2  0
 20  6  1  0
 14 15  1  0
 15 16  2  0
 16 17  1  0
 17 18  2  0
 18 19  1  0
 19 14  1  0
M  END
$$$$
O14757_PocketFlow_idx-in-all-generaetd-74
     RDKit          3D

 35 38  0  0  0  0  0  0  0  0999 V2000
   -0.8794   -1.9236   41.9357 O   0  0  0  0  0  0  0  0  0  0  0  0
    0.3182   -2.2442   41.7073 C   0  0  0  0  0  0  0  0  0  0  0  0
    1.3766   -1.3498   41.6019 C   0  0  0  0  0  0  0  0  0  0  0  0
    2.6423   -1.6963   42.1387 C   0  0  0  0  0  0  0  0  0  0  0  0
    2.7982   -2.6860   43.1645 C   0  0  0  0  0  0  0  0  0  0  0  0
    3.9993   -2.8900   43.8520 C   0  0  0  0  0  0  0  0  0  0  0  0
    4.6375   -2.1754   44.4803 C   0  0  1  0  0  0  0  0  0  0  0  0
    5.8143   -2.4749   45.3285 C   0  0  0  0  0  0  0  0  0  0  0  0
    6.9018   -1.6188   45.5919 C   0  0  0  0  0  0  0  0  0  0  0  0
    8.0000   -2.1271   46.2958 C   0  0  0  0  0  0  0  0  0  0  0  0
    7.9870   -3.4131   46.8198 C   0  0  0  0  0  0  0  0  0  0  0  0
    6.7873   -4.1399   46.7392 C   0  0  0  0  0  0  0  0  0  0  0  0
    5.7628   -3.7509   45.9402 C   0  0  0  0  0  0  0  0  0  0  0  0
    1.6127   -3.4981   43.3161 C   0  0  0  0  0  0  0  0  0  0  0  0
    0.3844   -3.2035   42.7665 C   0  0  0  0  0  0  0  0  0  0  0  0
   -1.7202   -1.6189   40.8643 C   0  0  0  0  0  0  0  0  0  0  0  0
    4.5211   -0.6663   44.4009 C   0  0  0  0  0  0  0  0  0  0  0  0
   -3.1165   -1.3763   41.3925 C   0  0  2  0  0  0  0  0  0  0  0  0
   -3.7546   -0.6413   40.2985 C   0  0  0  0  0  0  0  0  0  0  0  0
    9.1890   -1.2363   46.4509 C   0  0  0  0  0  0  0  0  0  0  0  0
   10.4685   -1.8244   46.4388 C   0  0  0  0  0  0  0  0  0  0  0  0
   10.6360   -3.1047   46.2692 C   0  0  0  0  0  0  0  0  0  0  0  0
    9.7224   -4.0234   46.5119 C   0  0  0  0  0  0  0  0  0  0  0  0
    9.7572   -5.4560   46.6196 C   0  0  0  0  0  0  0  0  0  0  0  0
    9.1650   -6.1230   47.3508 O   0  0  0  0  0  0  0  0  0  0  0  0
   10.9268   -5.8570   46.0622 N   0  0  0  0  0  0  0  0  0  0  0  0
   11.2883   -7.2641   46.1083 C   0  0  0  0  0  0  0  0  0  0  0  0
   -2.7792   -0.2782   42.2639 N   0  0  0  0  0  0  0  0  0  0  0  0
    1.6668   -4.6170   44.3317 C   0  0  0  0  0  0  0  0  0  0  0  0
    2.0185   -5.8727   43.9859 C   0  0  0  0  0  0  0  0  0  0  0  0
    2.0839   -6.9150   44.9948 C   0  0  0  0  0  0  0  0  0  0  0  0
    1.2440   -4.3312   45.6312 C   0  0  0  0  0  0  0  0  0  0  0  0
    1.0766   -5.3606   46.6476 C   0  0  0  0  0  0  0  0  0  0  0  0
    1.5611   -6.6258   46.2442 C   0  0  0  0  0  0  0  0  0  0  0  0
    1.5286   -7.6557   47.0846 O   0  0  0  0  0  0  0  0  0  0  0  0
  1  2  1  0
  6  7  1  0
  1 16  1  0
  7 17  1  6
 16 18  1  0
 18 19  1  6
 23 24  1  0
 24 25  2  0
 24 26  1  0
 26 27  1  0
 18 28  1  0
 14 29  1  0
 34 35  1  0
  6  5  1  0
  7  8  1  0
  2  3  2  0
  3  4  1  0
  4  5  2  0
  5 14  1  0
 14 15  2  0
 15  2  1  0
  8  9  2  0
  9 10  1  0
 11 12  1  0
 12 13  2  0
 13  8  1  0
 29 30  2  0
 30 31  1  0
 31 34  2  0
 34 33  1  0
 33 32  2  0
 32 29  1  0
 10 11  2  0
 11 23  1  0
 23 22  2  0
 22 21  1  0
 21 20  2  0
 20 10  1  0
M  END
$$$$
O14757_PocketFlow_idx-in-all-generaetd-75
     RDKit          3D

 22 22  0  0  0  0  0  0  0  0999 V2000
   -0.6395   -2.0713   41.4947 C   0  0  0  0  0  0  0  0  0  0  0  0
   -0.2671   -3.2464   41.6546 C   0  0  0  0  0  0  0  0  0  0  0  0
   -2.0053   -1.6706   41.3987 C   0  0  0  0  0  0  0  0  0  0  0  0
   -2.2928   -0.3176   41.3208 C   0  0  0  0  0  0  0  0  0  0  0  0
   -3.5679   -0.0116   41.1750 N   0  0  0  0  0  0  0  0  0  0  0  0
    0.4132   -1.0390   41.4557 C   0  0  0  0  0  0  0  0  0  0  0  0
    1.7546   -1.3379   41.5356 C   0  0  2  0  0  0  0  0  0  0  0  0
    2.4167   -1.1821   42.7031 C   0  0  0  0  0  0  0  0  0  0  0  0
    3.5520   -0.7498   42.4288 C   0  0  0  0  0  0  0  0  0  0  0  0
    4.4033   -0.2221   43.5651 C   0  0  0  0  0  0  0  0  0  0  0  0
    4.9416   -1.1604   44.5042 C   0  0  0  0  0  0  0  0  0  0  0  0
    6.0131   -1.8209   44.2887 C   0  0  0  0  0  0  0  0  0  0  0  0
    6.4046   -2.7965   45.3814 C   0  0  0  0  0  0  0  0  0  0  0  0
    5.4690   -3.2983   46.2479 C   0  0  0  0  0  0  0  0  0  0  0  0
    4.2462   -2.4821   46.3642 C   0  0  0  0  0  0  0  0  0  0  0  0
    3.9941   -1.5516   45.4994 C   0  0  0  0  0  0  0  0  0  0  0  0
    5.8090   -4.2998   47.2215 C   0  0  0  0  0  0  0  0  0  0  0  0
    6.8278   -4.3296   47.8166 O   0  0  0  0  0  0  0  0  0  0  0  0
    4.7772   -5.0892   47.5976 O   0  0  0  0  0  0  0  0  0  0  0  0
   -0.9794   -4.1196   41.7729 O   0  0  0  0  0  0  0  0  0  0  0  0
    1.0621   -3.5923   41.3344 O   0  0  0  0  0  0  0  0  0  0  0  0
    2.2904   -1.0288   40.3313 O   0  0  0  0  0  0  0  0  0  0  0  0
  1  2  1  0
  1  3  2  3
  3  4  1  0
  4  5  1  0
  1  6  1  0
  6  7  1  0
  7  8  1  0
  8  9  2  3
  9 10  1  0
 10 11  1  0
 14 17  1  0
 17 18  2  0
 17 19  1  0
  2 20  2  0
  2 21  1  0
  7 22  1  6
 11 12  2  0
 12 13  1  0
 13 14  2  0
 14 15  1  0
 15 16  2  0
 16 11  1  0
M  END
$$$$
O14757_PocketFlow_idx-in-all-generaetd-76
     RDKit          3D

 21 23  0  0  0  0  0  0  0  0999 V2000
   -0.6395   -2.0713   41.4947 C   0  0  0  0  0  0  0  0  0  0  0  0
    0.1859   -1.1027   41.5970 C   0  0  0  0  0  0  0  0  0  0  0  0
   -0.2410   -3.3795   41.5297 C   0  0  0  0  0  0  0  0  0  0  0  0
    1.6125   -1.3642   41.8466 C   0  0  0  0  0  0  0  0  0  0  0  0
    2.5720   -0.3568   42.0335 C   0  0  0  0  0  0  0  0  0  0  0  0
    3.8647   -0.6704   42.4195 C   0  0  0  0  0  0  0  0  0  0  0  0
    4.8191    0.2819   42.7564 C   0  0  0  0  0  0  0  0  0  0  0  0
    1.0387   -3.6762   41.8240 N   0  0  0  0  0  0  0  0  0  0  0  0
    1.9081   -2.6742   41.9840 C   0  0  0  0  0  0  0  0  0  0  0  0
   -2.0169   -1.8800   41.1848 N   0  0  0  0  0  0  0  0  0  0  0  0
    5.9118   -0.2454   43.3395 F   0  0  0  0  0  0  0  0  0  0  0  0
   -2.6235   -0.6577   41.3998 C   0  0  0  0  0  0  0  0  0  0  0  0
   -3.9026   -0.4589   40.7847 C   0  0  0  0  0  0  0  0  0  0  0  0
   -2.8048   -2.8280   40.5669 C   0  0  0  0  0  0  0  0  0  0  0  0
   -4.4014   -1.5042   40.1647 N   0  0  0  0  0  0  0  0  0  0  0  0
   -3.5299   -2.5786   39.9736 C   0  0  0  0  0  0  0  0  0  0  0  0
    4.0028   -1.9372   43.1496 C   0  0  0  0  0  0  0  0  0  0  0  0
    3.1225   -2.9126   42.7907 C   0  0  0  0  0  0  0  0  0  0  0  0
    4.2991    1.2610   43.5679 F   0  0  0  0  0  0  0  0  0  0  0  0
    5.1671    0.8798   41.6217 F   0  0  0  0  0  0  0  0  0  0  0  0
   -2.0016    0.3457   41.9665 O   0  0  0  0  0  0  0  0  0  0  0  0
  6  7  1  0
  1 10  1  0
  7 11  1  0
 10 12  1  0
 12 13  1  0
 10 14  1  0
 15 16  1  0
  7 19  1  0
  7 20  1  0
 12 21  2  0
 13 15  1  0
 16 14  1  0
  4  5  2  0
  5  6  1  0
  6 17  2  0
 17 18  1  0
 18  9  2  0
  1  2  2  0
  2  4  1  0
  4  9  1  0
  9  8  1  0
  8  3  2  0
  3  1  1  0
M  END
$$$$
O14757_PocketFlow_idx-in-all-generaetd-77
     RDKit          3D

 35 37  0  0  0  0  0  0  0  0999 V2000
   -0.8794   -1.9236   41.9357 O   0  0  0  0  0  0  0  0  0  0  0  0
    0.3070   -1.6014   41.6735 C   0  0  0  0  0  0  0  0  0  0  0  0
    0.8161   -0.2851   41.6101 C   0  0  0  0  0  0  0  0  0  0  0  0
    2.1998   -0.0967   42.0239 C   0  0  0  0  0  0  0  0  0  0  0  0
    3.0418   -1.1900   42.4099 C   0  0  0  0  0  0  0  0  0  0  0  0
    4.3863   -1.0131   42.8122 C   0  0  0  0  0  0  0  0  0  0  0  0
    5.0576   -2.0566   43.3995 C   0  0  0  0  0  0  0  0  0  0  0  0
    4.4517   -2.6232   44.3587 C   0  0  0  0  0  0  0  0  0  0  0  0
    5.1288   -3.5917   45.1786 C   0  0  0  0  0  0  0  0  0  0  0  0
    6.2166   -3.1125   45.9301 C   0  0  0  0  0  0  0  0  0  0  0  0
    1.1548   -2.7464   41.9452 N   0  0  0  0  0  0  0  0  0  0  0  0
    2.4827   -2.4910   42.4129 C   0  0  0  0  0  0  0  0  0  0  0  0
    6.9146   -3.9308   46.9194 C   0  0  0  0  0  0  0  0  0  0  0  0
    6.7974   -3.9031   47.9779 C   0  0  0  0  0  0  0  0  0  0  0  0
    7.4851   -4.6949   49.0575 C   0  0  0  0  0  0  0  0  0  0  0  0
    8.5259   -5.3517   48.7062 C   0  0  0  0  0  0  0  0  0  0  0  0
    8.9103   -5.2330   47.3567 C   0  0  0  0  0  0  0  0  0  0  0  0
    8.2096   -4.4926   46.4177 C   0  0  0  0  0  0  0  0  0  0  0  0
    4.7977    0.2975   42.7462 N   0  0  0  0  0  0  0  0  0  0  0  0
    0.5132   -3.9504   42.0102 C   0  0  0  0  0  0  0  0  0  0  0  0
    6.7756   -1.8135   45.6301 C   0  0  0  0  0  0  0  0  0  0  0  0
    0.1160   -4.5617   43.2738 C   0  0  0  0  0  0  0  0  0  0  0  0
    0.3972   -5.9040   43.5288 C   0  0  0  0  0  0  0  0  0  0  0  0
    0.0722   -6.4992   44.7936 C   0  0  0  0  0  0  0  0  0  0  0  0
   -1.0396   -7.3124   44.9282 C   0  0  0  0  0  0  0  0  0  0  0  0
   -1.3866   -7.9426   46.1565 C   0  0  0  0  0  0  0  0  0  0  0  0
   -0.5491   -7.6094   47.2758 C   0  0  0  0  0  0  0  0  0  0  0  0
    0.5045   -6.7533   47.1206 C   0  0  0  0  0  0  0  0  0  0  0  0
    0.8281   -6.1619   45.9538 C   0  0  0  0  0  0  0  0  0  0  0  0
   -2.4916   -8.8442   46.2496 C   0  0  0  0  0  0  0  0  0  0  0  0
   -2.5180   -9.7922   46.8854 O   0  0  0  0  0  0  0  0  0  0  0  0
   -3.6201   -8.3697   45.7370 F   0  0  0  0  0  0  0  0  0  0  0  0
    1.9860   -5.2631   45.8301 C   0  0  0  0  0  0  0  0  0  0  0  0
    1.9681   -4.0925   45.9432 O   0  0  0  0  0  0  0  0  0  0  0  0
    3.1805   -5.9083   45.7007 O   0  0  0  0  0  0  0  0  0  0  0  0
  1  2  2  0
  2  3  1  0
  3  4  1  0
  4  5  1  0
  5  6  1  0
  6  7  2  3
  7  8  1  0
  8  9  1  0
  9 10  2  3
  2 11  1  0
  5 12  1  0
 11 12  1  0
 10 13  1  0
  6 19  1  0
 11 20  1  0
 10 21  1  0
 20 22  1  0
 22 23  2  3
 23 24  1  0
 26 30  1  0
 30 31  2  0
 30 32  1  0
 29 33  1  0
 33 34  2  0
 33 35  1  0
 13 14  2  0
 14 15  1  0
 15 16  2  0
 16 17  1  0
 17 18  2  0
 18 13  1  0
 24 25  2  0
 25 26  1  0
 26 27  2  0
 27 28  1  0
 28 29  2  0
 29 24  1  0
M  END
$$$$
O14757_PocketFlow_idx-in-all-generaetd-78
     RDKit          3D

 35 40  0  0  0  0  0  0  0  0999 V2000
    0.0138   -2.7927   42.5918 N   0  0  0  0  0  0  0  0  0  0  0  0
    1.1722   -3.1858   42.8673 C   0  0  1  0  0  0  0  0  0  0  0  0
    2.1754   -2.1627   42.4478 C   0  0  2  0  0  0  0  0  0  0  0  0
    3.4099   -2.0520   43.0025 C   0  0  0  0  0  0  0  0  0  0  0  0
    4.2531   -0.9087   42.8937 C   0  0  0  0  0  0  0  0  0  0  0  0
    5.4769   -0.8496   43.5643 C   0  0  0  0  0  0  0  0  0  0  0  0
    0.0420   -1.6885   41.8348 C   0  0  0  0  0  0  0  0  0  0  0  0
    1.3379   -1.2294   41.8596 C   0  0  2  0  0  0  0  0  0  0  0  0
    4.1889   -3.0916   43.6920 C   0  0  0  0  0  0  0  0  0  0  0  0
    4.8109   -2.8338   44.7769 C   0  0  0  0  0  0  0  0  0  0  0  0
    5.7515   -1.6095   44.6167 C   0  0  0  0  0  0  0  0  0  0  0  0
    6.9244   -1.4858   45.4892 C   0  0  0  0  0  0  0  0  0  0  0  0
    7.3877   -2.5646   46.2776 C   0  0  0  0  0  0  0  0  0  0  0  0
    6.6669   -3.7082   46.6046 C   0  0  0  0  0  0  0  0  0  0  0  0
    6.9510   -4.5697   47.5788 C   0  0  0  0  0  0  0  0  0  0  0  0
    8.1314   -4.3577   48.3199 C   0  0  0  0  0  0  0  0  0  0  0  0
    5.3281   -3.7934   45.8691 C   0  0  0  0  0  0  0  0  0  0  0  0
    9.0162   -3.2864   47.9449 C   0  0  0  0  0  0  0  0  0  0  0  0
    8.6055   -2.3208   47.0987 C   0  0  0  0  0  0  0  0  0  0  0  0
   -1.0394   -1.0475   41.3694 N   0  0  0  0  0  0  0  0  0  0  0  0
    1.4556   -4.2816   43.6515 N   0  0  0  0  0  0  0  0  0  0  0  0
    0.5872   -5.2685   43.9923 C   0  0  0  0  0  0  0  0  0  0  0  0
    1.0640   -6.2807   44.8833 C   0  0  2  0  0  0  0  0  0  0  0  0
    2.3069   -6.3245   45.1508 C   0  0  0  0  0  0  0  0  0  0  0  0
    2.7353   -6.5429   46.5613 C   0  0  0  0  0  0  0  0  0  0  0  0
    0.1053   -7.2842   45.2732 C   0  0  0  0  0  0  0  0  0  0  0  0
    0.3882   -7.8398   46.5248 C   0  0  2  0  0  0  0  0  0  0  0  0
    1.8219   -8.0038   46.9254 C   0  0  0  0  0  0  0  0  0  0  0  0
   -0.5802   -8.4159   47.4180 C   0  0  0  0  0  0  0  0  0  0  0  0
   -1.8142   -7.8210   47.3102 C   0  0  0  0  0  0  0  0  0  0  0  0
   -0.3323   -9.4065   48.3579 C   0  0  0  0  0  0  0  0  0  0  0  0
   -2.8228   -8.6881   47.2468 C   0  0  0  0  0  0  0  0  0  0  0  0
   -1.4594  -10.2257   48.6538 C   0  0  0  0  0  0  0  0  0  0  0  0
   -2.7436   -9.7945   48.2366 C   0  0  0  0  0  0  0  0  0  0  0  0
    1.7614   -0.0622   41.2271 N   0  0  0  0  0  0  0  0  0  0  0  0
  1  2  1  0
  2  3  1  0
  3  4  1  1
  1  7  2  0
  3  8  1  0
  7  8  1  0
  7 20  1  0
  2 21  1  1
 21 22  1  0
 23 22  1  6
 23 24  1  0
 24 25  1  0
 23 26  1  0
 26 27  1  0
 25 28  1  0
 27 28  1  0
 27 29  1  6
  8 35  1  6
 11 12  1  0
 12 13  2  0
 14 17  2  0
 17 10  1  0
 13 14  1  0
 14 15  1  0
 15 16  2  0
 16 18  1  0
 18 19  2  0
 19 13  1  0
 29 30  2  0
 30 32  1  0
 32 34  2  0
 34 33  1  0
 33 31  2  0
 31 29  1  0
  4  5  2  0
  5  6  1  0
  6 11  2  0
 11 10  1  0
 10  9  2  0
  9  4  1  0
M  END
$$$$
O14757_PocketFlow_idx-in-all-generaetd-79
     RDKit          3D

 21 22  0  0  0  0  0  0  0  0999 V2000
   -0.6395   -2.0713   41.4947 C   0  0  0  0  0  0  0  0  0  0  0  0
   -0.2671   -3.2464   41.6546 C   0  0  0  0  0  0  0  0  0  0  0  0
    0.2277   -0.9875   41.6495 C   0  0  0  0  0  0  0  0  0  0  0  0
    1.6284   -1.2752   41.8841 C   0  0  0  0  0  0  0  0  0  0  0  0
    2.6642   -0.3505   42.1208 C   0  0  0  0  0  0  0  0  0  0  0  0
    3.9055   -0.7607   42.4273 C   0  0  2  0  0  0  0  0  0  0  0  0
    4.0073   -2.0746   43.0509 C   0  0  0  0  0  0  0  0  0  0  0  0
    2.8900   -2.9011   43.1822 C   0  0  2  0  0  0  0  0  0  0  0  0
    1.6620   -2.4412   42.6907 C   0  0  0  0  0  0  0  0  0  0  0  0
    0.7292   -3.5243   42.4761 C   0  0  0  0  0  0  0  0  0  0  0  0
    5.0292    0.0073   42.4698 N   0  0  0  0  0  0  0  0  0  0  0  0
   -2.0639   -1.6693   41.1474 C   0  0  0  0  0  0  0  0  0  0  0  0
   -2.8753   -2.5478   40.5682 N   0  0  0  0  0  0  0  0  0  0  0  0
   -2.5834   -0.5892   41.6271 F   0  0  0  0  0  0  0  0  0  0  0  0
    2.9683   -3.9438   44.2228 C   0  0  0  0  0  0  0  0  0  0  0  0
    4.1666   -4.5336   44.5547 C   0  0  0  0  0  0  0  0  0  0  0  0
    1.8236   -4.2746   44.9573 C   0  0  0  0  0  0  0  0  0  0  0  0
    0.9855   -4.5166   45.4801 C   0  0  0  0  0  0  0  0  0  0  0  0
   -0.1101   -4.9312   46.4182 C   0  0  0  0  0  0  0  0  0  0  0  0
   -0.1264   -6.0091   46.7023 O   0  0  0  0  0  0  0  0  0  0  0  0
   -0.8011   -3.9311   46.8965 O   0  0  0  0  0  0  0  0  0  0  0  0
  4  5  1  0
  5  6  1  0
  6  7  1  0
  7  8  1  0
  8  9  1  0
  6 11  1  1
  1 12  1  0
 12 13  2  3
 12 14  1  0
  8 15  1  1
 15 16  2  0
 15 17  1  0
 17 18  3  0
 18 19  1  0
 19 20  1  0
 19 21  2  0
  1  2  2  0
  2 10  1  0
 10  9  2  0
  9  4  1  0
  4  3  2  0
  3  1  1  0
M  END
$$$$
O14757_PocketFlow_idx-in-all-generaetd-80
     RDKit          3D

 35 37  0  0  0  0  0  0  0  0999 V2000
    0.2881   -2.9111   42.4378 C   0  0  0  0  0  0  0  0  0  0  0  0
   -0.0650   -2.5021   41.5798 C   0  0  0  0  0  0  0  0  0  0  0  0
    0.4265   -4.3024   42.9098 C   0  0  0  0  0  0  0  0  0  0  0  0
    0.9679   -4.7232   44.0725 C   0  0  2  0  0  0  0  0  0  0  0  0
    1.8647   -3.7642   44.6952 C   0  0  0  0  0  0  0  0  0  0  0  0
    2.1891   -2.5834   44.1119 C   0  0  0  0  0  0  0  0  0  0  0  0
    1.4776   -2.2188   42.9511 C   0  0  2  0  0  0  0  0  0  0  0  0
    0.3721   -1.1857   41.3008 N   0  0  0  0  0  0  0  0  0  0  0  0
    1.3456   -1.0363   42.2166 C   0  0  0  0  0  0  0  0  0  0  0  0
    2.2406    0.1082   42.2936 C   0  0  0  0  0  0  0  0  0  0  0  0
    0.7869   -6.0300   44.6147 C   0  0  2  0  0  0  0  0  0  0  0  0
    1.7019   -6.7497   44.7705 O   0  0  0  0  0  0  0  0  0  0  0  0
   -0.4807   -6.4473   44.8501 N   0  0  0  0  0  0  0  0  0  0  0  0
   -0.7350   -7.8061   45.3319 C   0  0  0  0  0  0  0  0  0  0  0  0
   -0.3606   -7.9219   46.7413 C   0  0  0  0  0  0  0  0  0  0  0  0
   -0.4564   -9.0510   47.2561 C   0  0  2  0  0  0  0  0  0  0  0  0
    3.7672   -0.0986   42.2832 C   0  0  0  0  0  0  0  0  0  0  0  0
    4.2490   -1.3324   42.4757 C   0  0  0  0  0  0  0  0  0  0  0  0
   -1.6616   -9.3925   47.8363 C   0  0  0  0  0  0  0  0  0  0  0  0
   -2.6058   -8.4145   47.7892 C   0  0  0  0  0  0  0  0  0  0  0  0
   -2.9035   -7.8744   46.9238 O   0  0  0  0  0  0  0  0  0  0  0  0
    0.7782   -9.2377   48.2598 C   0  0  0  0  0  0  0  0  0  0  0  0
    2.0110   -9.8134   47.6024 C   0  0  0  0  0  0  0  0  0  0  0  0
    3.1276   -9.2145   48.0627 C   0  0  0  0  0  0  0  0  0  0  0  0
    4.1249   -8.8187   47.0144 C   0  0  0  0  0  0  0  0  0  0  0  0
    5.2473   -8.3740   47.4430 O   0  0  0  0  0  0  0  0  0  0  0  0
    4.7935   -1.6072   43.8544 C   0  0  0  0  0  0  0  0  0  0  0  0
    5.4026   -2.7382   44.1844 C   0  0  0  0  0  0  0  0  0  0  0  0
    5.9273   -2.7929   45.5454 C   0  0  0  0  0  0  0  0  0  0  0  0
    5.9911   -1.5607   46.0675 C   0  0  0  0  0  0  0  0  0  0  0  0
    5.0253   -0.7358   44.9840 C   0  0  0  0  0  0  0  0  0  0  0  0
    5.1207   -7.3768   48.4002 C   0  0  0  0  0  0  0  0  0  0  0  0
    5.8309   -6.1814   47.9463 C   0  0  0  0  0  0  0  0  0  0  0  0
    6.8438   -5.6015   48.9463 C   0  0  0  0  0  0  0  0  0  0  0  0
    8.1368   -5.4699   48.4735 C   0  0  0  0  0  0  0  0  0  0  0  0
  1  2  2  0
  1  3  1  0
  4  3  1  6
  4  5  1  0
  5  6  1  0
  1  7  1  0
  7  6  1  1
  2  8  1  0
  7  9  1  0
  8  9  2  0
  9 10  1  0
  4 11  1  0
 11 12  1  6
 11 13  1  0
 13 14  1  0
 14 15  1  0
 16 15  1  1
 10 17  1  0
 17 18  1  0
 16 19  1  0
 19 20  1  0
 20 21  1  0
 16 22  1  0
 22 23  1  0
 23 24  1  0
 24 25  1  0
 25 26  1  0
 18 27  1  0
 27 28  2  0
 28 29  1  0
 29 30  2  0
 27 31  1  0
 30 31  1  0
 26 32  1  0
 32 33  1  0
 33 34  1  0
 34 35  1  0
M  END
$$$$
O14757_PocketFlow_idx-in-all-generaetd-81
     RDKit          3D

 16 17  0  0  0  0  0  0  0  0999 V2000
    0.2881   -2.9111   42.4378 C   0  0  0  0  0  0  0  0  0  0  0  0
   -0.0650   -2.5021   41.5798 C   0  0  0  0  0  0  0  0  0  0  0  0
    1.6108   -3.5167   42.6657 C   0  0  0  0  0  0  0  0  0  0  0  0
    2.5982   -2.5638   42.1593 C   0  0  0  0  0  0  0  0  0  0  0  0
    2.2020   -1.4972   41.3694 C   0  0  0  0  0  0  0  0  0  0  0  0
    0.8372   -1.4538   41.0422 C   0  0  0  0  0  0  0  0  0  0  0  0
    1.9981   -4.3739   43.7885 C   0  0  0  0  0  0  0  0  0  0  0  0
    0.9516   -5.1711   44.4300 C   0  0  0  0  0  0  0  0  0  0  0  0
    1.3897   -6.1091   45.3802 C   0  0  0  0  0  0  0  0  0  0  0  0
    2.6804   -6.1190   45.7751 C   0  0  0  0  0  0  0  0  0  0  0  0
    3.6618   -5.2693   45.2137 C   0  0  0  0  0  0  0  0  0  0  0  0
    3.3199   -4.3952   44.2633 C   0  0  0  0  0  0  0  0  0  0  0  0
    0.4371   -6.9970   46.0508 C   0  0  0  0  0  0  0  0  0  0  0  0
   -0.1545   -6.4594   47.0275 F   0  0  0  0  0  0  0  0  0  0  0  0
   -0.6398   -7.1285   45.1184 F   0  0  0  0  0  0  0  0  0  0  0  0
    0.8707   -8.1606   46.3132 F   0  0  0  0  0  0  0  0  0  0  0  0
  3  7  1  0
  9 13  1  0
 13 14  1  0
 13 15  1  0
 13 16  1  0
  1  2  2  0
  2  6  1  0
  6  5  2  0
  5  4  1  0
  4  3  2  0
  3  1  1  0
  7  8  2  0
  8  9  1  0
  9 10  2  0
 10 11  1  0
 11 12  2  0
 12  7  1  0
M  END
$$$$
O14757_PocketFlow_idx-in-all-generaetd-82
     RDKit          3D

 30 34  0  0  0  0  0  0  0  0999 V2000
    0.2881   -2.9111   42.4378 C   0  0  0  0  0  0  0  0  0  0  0  0
   -0.0650   -2.5021   41.5798 C   0  0  0  0  0  0  0  0  0  0  0  0
    1.5111   -2.4518   43.1047 C   0  0  0  0  0  0  0  0  0  0  0  0
    2.1892   -1.4341   42.4770 C   0  0  0  0  0  0  0  0  0  0  0  0
    3.3839   -0.8722   43.0399 C   0  0  0  0  0  0  0  0  0  0  0  0
    4.0272    0.2093   42.4724 C   0  0  0  0  0  0  0  0  0  0  0  0
    0.4488   -1.3377   40.9050 C   0  0  0  0  0  0  0  0  0  0  0  0
    1.6295   -0.8153   41.4119 C   0  0  0  0  0  0  0  0  0  0  0  0
    4.1479   -1.6470   44.0448 C   0  0  0  0  0  0  0  0  0  0  0  0
    5.3053   -1.1824   44.6486 C   0  0  0  0  0  0  0  0  0  0  0  0
    5.8558   -1.9544   45.6773 C   0  0  0  0  0  0  0  0  0  0  0  0
    5.2261   -3.1337   46.1307 C   0  0  0  0  0  0  0  0  0  0  0  0
    4.0306   -3.5163   45.5037 C   0  0  0  0  0  0  0  0  0  0  0  0
    3.5268   -2.8218   44.4896 C   0  0  0  0  0  0  0  0  0  0  0  0
    2.2438   -3.2493   43.9796 C   0  0  0  0  0  0  0  0  0  0  0  0
    5.8989   -3.9097   47.2119 C   0  0  0  0  0  0  0  0  0  0  0  0
    5.4472   -5.2250   47.5507 C   0  0  0  0  0  0  0  0  0  0  0  0
    6.0780   -5.8642   48.6549 C   0  0  0  0  0  0  0  0  0  0  0  0
    5.6125   -7.1266   49.0979 C   0  0  0  0  0  0  0  0  0  0  0  0
    6.1999   -8.1998   48.5764 C   0  0  0  0  0  0  0  0  0  0  0  0
    7.2176   -5.1627   49.1978 C   0  0  0  0  0  0  0  0  0  0  0  0
    7.6167   -3.9231   48.8143 C   0  0  0  0  0  0  0  0  0  0  0  0
    7.0218   -3.3127   47.8488 C   0  0  0  0  0  0  0  0  0  0  0  0
    5.6463   -9.4876   48.8530 C   0  0  0  0  0  0  0  0  0  0  0  0
    5.2981   -9.6727   50.0138 C   0  0  0  0  0  0  0  0  0  0  0  0
    4.8237   -8.8487   50.7540 C   0  0  0  0  0  0  0  0  0  0  0  0
    5.4161   -7.4166   50.6221 C   0  0  0  0  0  0  0  0  0  0  0  0
    1.6087   -4.2596   44.5163 O   0  0  0  0  0  0  0  0  0  0  0  0
    4.1682   -8.9451   52.1272 C   0  0  0  0  0  0  0  0  0  0  0  0
    4.6913  -10.0019   52.8820 C   0  0  0  0  0  0  0  0  0  0  0  0
  4  5  1  0
  5  6  2  0
  5  9  1  0
  3 15  1  0
 14 15  1  0
 12 16  1  0
 18 19  1  0
 15 28  2  0
 26 29  1  0
 29 30  1  0
 19 20  2  0
 20 24  1  0
 24 25  2  0
 25 26  1  0
 26 27  2  0
 27 19  1  0
  9 10  2  0
 10 11  1  0
 11 12  2  0
 12 13  1  0
 13 14  2  0
 14  9  1  0
  1  2  2  0
  2  7  1  0
  7  8  2  0
  8  4  1  0
  4  3  2  0
  3  1  1  0
 16 17  2  0
 17 18  1  0
 18 21  2  0
 21 22  1  0
 22 23  2  0
 23 16  1  0
M  END
$$$$
O14757_PocketFlow_idx-in-all-generaetd-83
     RDKit          3D

 35 38  0  0  0  0  0  0  0  0999 V2000
   -0.8794   -1.9236   41.9357 O   0  0  0  0  0  0  0  0  0  0  0  0
    0.3182   -2.2442   41.7073 C   0  0  0  0  0  0  0  0  0  0  0  0
    1.3930   -1.3691   41.5725 C   0  0  0  0  0  0  0  0  0  0  0  0
    2.5842   -1.6677   42.2358 C   0  0  0  0  0  0  0  0  0  0  0  0
    3.6603   -0.7354   42.3241 C   0  0  0  0  0  0  0  0  0  0  0  0
    4.8322   -1.0142   43.0811 C   0  0  0  0  0  0  0  0  0  0  0  0
    4.8127   -2.1700   43.8717 C   0  0  0  0  0  0  0  0  0  0  0  0
    3.7273   -3.0495   43.7965 C   0  0  0  0  0  0  0  0  0  0  0  0
    3.6826   -4.1593   44.6418 C   0  0  0  0  0  0  0  0  0  0  0  0
    2.6506   -2.7550   43.1155 C   0  0  0  0  0  0  0  0  0  0  0  0
    3.1946   -4.3027   45.7249 C   0  0  0  0  0  0  0  0  0  0  0  0
    0.4492   -3.5315   41.4900 O   0  0  0  0  0  0  0  0  0  0  0  0
    3.2120   -5.6142   46.4445 C   0  0  0  0  0  0  0  0  0  0  0  0
    3.6646   -6.8031   45.7515 C   0  0  0  0  0  0  0  0  0  0  0  0
    3.9361   -6.5900   44.3961 C   0  0  0  0  0  0  0  0  0  0  0  0
    4.0492   -5.3998   43.8929 C   0  0  0  0  0  0  0  0  0  0  0  0
    3.4717   -8.0575   46.3989 C   0  0  0  0  0  0  0  0  0  0  0  0
    2.5783   -8.9082   46.0316 O   0  0  0  0  0  0  0  0  0  0  0  0
    4.3823   -8.3848   47.3342 O   0  0  0  0  0  0  0  0  0  0  0  0
    5.9878   -2.4125   44.7405 C   0  0  0  0  0  0  0  0  0  0  0  0
    6.7580   -1.2974   45.1816 C   0  0  0  0  0  0  0  0  0  0  0  0
    7.9326   -1.5962   45.9646 C   0  0  0  0  0  0  0  0  0  0  0  0
    8.1733   -2.8255   46.5449 C   0  0  0  0  0  0  0  0  0  0  0  0
    9.2786   -3.1658   47.2658 C   0  0  0  0  0  0  0  0  0  0  0  0
   10.2996   -2.2277   47.3127 C   0  0  0  0  0  0  0  0  0  0  0  0
   10.1318   -0.9393   46.6961 C   0  0  0  0  0  0  0  0  0  0  0  0
    8.9797   -0.6486   46.0425 C   0  0  0  0  0  0  0  0  0  0  0  0
    9.4007   -4.5212   47.8377 C   0  0  2  0  0  0  0  0  0  0  0  0
    8.3290   -4.9731   48.5101 C   0  0  0  0  0  0  0  0  0  0  0  0
    7.4356   -4.3197   48.9521 C   0  0  0  0  0  0  0  0  0  0  0  0
    6.1731   -4.8006   49.5820 C   0  0  0  0  0  0  0  0  0  0  0  0
    6.0188   -6.1794   49.5766 C   0  0  0  0  0  0  0  0  0  0  0  0
    7.0023   -7.0248   49.0149 C   0  0  0  0  0  0  0  0  0  0  0  0
    8.1245   -6.4404   48.4568 C   0  0  0  0  0  0  0  0  0  0  0  0
   10.6676   -4.4496   48.7047 C   0  0  0  0  0  0  0  0  0  0  0  0
  1  2  2  0
  2  3  1  0
  3  4  1  0
  8  9  1  0
  2 12  1  0
 14 17  1  0
 17 18  1  0
 17 19  2  0
  7 20  1  0
 20 21  1  0
 24 28  1  0
 28 29  1  0
 28 35  1  1
 21 22  1  0
  4  5  2  0
  5  6  1  0
  6  7  2  0
  7  8  1  0
  8 10  2  0
 10  4  1  0
 22 23  2  0
 23 24  1  0
 24 25  2  0
 25 26  1  0
 26 27  2  0
 27 22  1  0
  9 11  2  0
 11 13  1  0
 13 14  2  0
 14 15  1  0
 15 16  2  0
 16  9  1  0
 29 30  2  0
 30 31  1  0
 31 32  2  0
 32 33  1  0
 33 34  2  0
 34 29  1  0
M  END
$$$$
O14757_PocketFlow_idx-in-all-generaetd-84
     RDKit          3D

 21 22  0  0  0  0  0  0  0  0999 V2000
    0.2881   -2.9111   42.4378 C   0  0  0  0  0  0  0  0  0  0  0  0
   -0.0650   -2.5021   41.5798 C   0  0  0  0  0  0  0  0  0  0  0  0
    1.5584   -2.5265   43.0885 C   0  0  0  0  0  0  0  0  0  0  0  0
    2.2571   -1.5118   42.4661 C   0  0  0  0  0  0  0  0  0  0  0  0
    3.4685   -1.0138   43.0315 C   0  0  0  0  0  0  0  0  0  0  0  0
    4.1109    0.1029   42.5142 C   0  0  0  0  0  0  0  0  0  0  0  0
    0.4869   -1.3196   40.9457 C   0  0  0  0  0  0  0  0  0  0  0  0
    1.6899   -0.7933   41.4707 C   0  0  0  0  0  0  0  0  0  0  0  0
    4.2832   -1.8533   43.9502 C   0  0  0  0  0  0  0  0  0  0  0  0
    5.4340   -1.4157   44.5382 C   0  0  0  0  0  0  0  0  0  0  0  0
    5.9947   -2.2345   45.5484 C   0  0  0  0  0  0  0  0  0  0  0  0
    7.2439   -2.0160   46.1558 C   0  0  0  0  0  0  0  0  0  0  0  0
    7.6826   -2.9775   47.0416 C   0  0  0  0  0  0  0  0  0  0  0  0
    6.8712   -3.9641   47.4975 C   0  0  0  0  0  0  0  0  0  0  0  0
    5.5993   -4.0756   47.0213 C   0  0  0  0  0  0  0  0  0  0  0  0
    5.1395   -3.2553   46.0284 C   0  0  0  0  0  0  0  0  0  0  0  0
   -1.2599   -2.8455   40.9650 O   0  0  0  0  0  0  0  0  0  0  0  0
    9.1189   -2.8290   47.5241 C   0  0  0  0  0  0  0  0  0  0  0  0
    9.5045   -3.6087   48.2427 Br  0  0  0  0  0  0  0  0  0  0  0  0
    9.7146   -1.6029   46.8778 C   0  0  0  0  0  0  0  0  0  0  0  0
   10.9877   -1.3932   47.3489 N   0  0  0  0  0  0  0  0  0  0  0  0
  4  5  1  0
  5  6  2  0
  5  9  1  0
  9 10  1  0
  2 17  1  0
 13 18  1  0
 18 19  1  0
 18 20  1  0
 20 21  1  0
 10 11  1  0
 11 12  2  0
 12 13  1  0
 13 14  2  0
 14 15  1  0
 15 16  2  0
 16 11  1  0
  1  2  2  0
  2  7  1  0
  7  8  2  0
  8  4  1  0
  4  3  2  0
  3  1  1  0
M  END
$$$$
O14757_PocketFlow_idx-in-all-generaetd-85
     RDKit          3D

 26 27  0  0  0  0  0  0  0  0999 V2000
   -0.6395   -2.0713   41.4947 C   0  0  0  0  0  0  0  0  0  0  0  0
    0.6719   -2.2449   41.7518 C   0  0  0  0  0  0  0  0  0  0  0  0
    1.5951   -1.1948   41.6106 C   0  0  0  0  0  0  0  0  0  0  0  0
    2.9587   -1.3961   42.0240 C   0  0  0  0  0  0  0  0  0  0  0  0
    3.8815   -0.3441   42.0598 C   0  0  0  0  0  0  0  0  0  0  0  0
   -1.0907   -0.7092   41.3763 C   0  0  0  0  0  0  0  0  0  0  0  0
    3.3263    0.9456   42.0198 C   0  0  0  0  0  0  0  0  0  0  0  0
   -0.1143    0.2327   41.3379 N   0  0  0  0  0  0  0  0  0  0  0  0
    1.1787    0.0230   41.5036 C   0  0  0  0  0  0  0  0  0  0  0  0
    2.0238    1.0847   41.7482 N   0  0  0  0  0  0  0  0  0  0  0  0
   -2.6867   -0.3102   41.0811 Cl  0  0  0  0  0  0  0  0  0  0  0  0
    5.2620   -0.5431   42.4370 C   0  0  0  0  0  0  0  0  0  0  0  0
    5.5223   -0.7664   43.9297 C   0  0  0  0  0  0  0  0  0  0  0  0
    4.5468   -1.0540   44.8324 C   0  0  0  0  0  0  0  0  0  0  0  0
    4.0931   -2.3162   44.9217 C   0  0  0  0  0  0  0  0  0  0  0  0
    4.8948   -3.1332   45.8113 C   0  0  0  0  0  0  0  0  0  0  0  0
    6.0921   -2.7297   46.2902 C   0  0  0  0  0  0  0  0  0  0  0  0
    7.1017   -3.4556   46.0275 C   0  0  0  0  0  0  0  0  0  0  0  0
    8.4524   -2.7927   46.4620 C   0  0  0  0  0  0  0  0  0  0  0  0
    8.6452   -1.5220   46.1755 C   0  0  0  0  0  0  0  0  0  0  0  0
    4.3449   -4.4230   46.1381 C   0  0  0  0  0  0  0  0  0  0  0  0
    3.1717   -4.9379   45.6563 C   0  0  0  0  0  0  0  0  0  0  0  0
    3.1041   -6.2632   45.3354 C   0  0  0  0  0  0  0  0  0  0  0  0
    1.8856   -6.8375   45.0606 C   0  0  0  0  0  0  0  0  0  0  0  0
    0.8064   -6.0475   44.7000 C   0  0  0  0  0  0  0  0  0  0  0  0
    0.9411   -4.6209   44.8282 C   0  0  0  0  0  0  0  0  0  0  0  0
  6 11  1  0
  5 12  1  0
 12 13  1  0
 13 14  1  0
 14 15  1  0
 15 16  1  0
 16 17  1  0
 17 18  1  0
 18 19  1  0
 19 20  2  0
 16 21  1  0
 21 22  2  3
 22 23  1  0
 23 24  2  3
 24 25  1  0
 25 26  2  0
  3  4  2  0
  4  5  1  0
  5  7  2  0
  7 10  1  0
 10  9  2  0
  1  2  2  0
  2  3  1  0
  3  9  1  0
  9  8  1  0
  8  6  2  0
  6  1  1  0
M  END
$$$$
O14757_PocketFlow_idx-in-all-generaetd-86
     RDKit          3D

 35 38  0  0  0  0  0  0  0  0999 V2000
   -0.8794   -1.9236   41.9357 O   0  0  0  0  0  0  0  0  0  0  0  0
    0.3070   -1.6014   41.6735 C   0  0  0  0  0  0  0  0  0  0  0  0
    1.2548   -2.6723   41.5755 C   0  0  0  0  0  0  0  0  0  0  0  0
    2.4147   -2.3743   42.2522 C   0  0  0  0  0  0  0  0  0  0  0  0
    2.9733   -1.0931   42.3059 C   0  0  0  0  0  0  0  0  0  0  0  0
    4.2088   -0.8307   42.9396 C   0  0  0  0  0  0  0  0  0  0  0  0
    4.7843   -1.8084   43.7804 C   0  0  0  0  0  0  0  0  0  0  0  0
    4.1489   -3.0359   43.9149 C   0  0  0  0  0  0  0  0  0  0  0  0
    2.9670   -3.3467   43.2153 C   0  0  0  0  0  0  0  0  0  0  0  0
    0.6033   -0.3676   41.8227 O   0  0  0  0  0  0  0  0  0  0  0  0
    4.7173   -4.0276   44.8321 C   0  0  0  0  0  0  0  0  0  0  0  0
    5.5709   -3.5857   45.8743 C   0  0  0  0  0  0  0  0  0  0  0  0
    5.9375   -4.4309   46.9280 C   0  0  1  0  0  0  0  0  0  0  0  0
    6.8215   -4.3940   47.5968 C   0  0  0  0  0  0  0  0  0  0  0  0
    7.8681   -3.3423   47.4600 C   0  0  0  0  0  0  0  0  0  0  0  0
    9.0513   -3.2074   48.1903 C   0  0  0  0  0  0  0  0  0  0  0  0
    9.0209   -3.8120   49.4625 C   0  0  0  0  0  0  0  0  0  0  0  0
    7.9832   -4.7245   49.7877 C   0  0  0  0  0  0  0  0  0  0  0  0
    6.9296   -4.9831   48.9405 C   0  0  0  0  0  0  0  0  0  0  0  0
    4.8129    0.3856   42.8055 N   0  0  0  0  0  0  0  0  0  0  0  0
    4.7305   -5.0408   47.2959 O   0  0  0  0  0  0  0  0  0  0  0  0
   10.0310   -2.2211   47.8602 C   0  0  0  0  0  0  0  0  0  0  0  0
   10.0532   -1.6673   46.6505 C   0  0  0  0  0  0  0  0  0  0  0  0
   11.1018   -1.9707   48.8009 C   0  0  0  0  0  0  0  0  0  0  0  0
    9.0761   -1.6745   45.8011 N   0  0  0  0  0  0  0  0  0  0  0  0
    7.9864   -2.6221   46.1174 C   0  0  0  0  0  0  0  0  0  0  0  0
   12.2399   -2.4521   48.7716 C   0  0  0  0  0  0  0  0  0  0  0  0
   10.7000   -0.9943   49.9056 C   0  0  0  0  0  0  0  0  0  0  0  0
   10.1740   -1.2686   51.0723 C   0  0  0  0  0  0  0  0  0  0  0  0
   11.0863   -1.5748   52.1619 C   0  0  0  0  0  0  0  0  0  0  0  0
   10.3894   -2.0324   53.3318 C   0  0  0  0  0  0  0  0  0  0  0  0
    8.9768   -2.1473   53.3383 C   0  0  0  0  0  0  0  0  0  0  0  0
    8.1816   -1.7870   52.3068 C   0  0  0  0  0  0  0  0  0  0  0  0
    8.8082   -1.4081   51.1672 C   0  0  0  0  0  0  0  0  0  0  0  0
   13.0733   -2.6050   48.0564 C   0  0  0  0  0  0  0  0  0  0  0  0
  1  2  1  0
  2  3  1  0
  2 10  2  0
  8 11  1  0
 11 12  2  3
 12 13  1  0
  6 20  1  0
 13 21  1  1
 22 24  1  0
 24 27  1  0
 24 28  1  0
 28 29  1  0
 27 35  2  0
 13 14  1  0
  3  4  1  0
 29 30  2  0
 30 31  1  0
 31 32  2  0
 32 33  1  0
 33 34  2  0
 34 29  1  0
 14 15  2  0
 16 17  2  0
 17 18  1  0
 18 19  2  0
 19 14  1  0
 15 16  1  0
 16 22  1  0
 22 23  2  0
 23 25  1  0
 25 26  2  0
 26 15  1  0
  4  5  2  0
  5  6  1  0
  6  7  2  0
  7  8  1  0
  8  9  2  0
  9  4  1  0
M  END
$$$$
O14757_PocketFlow_idx-in-all-generaetd-87
     RDKit          3D

 13 12  0  0  0  0  0  0  0  0999 V2000
    0.2881   -2.9111   42.4378 C   0  0  0  0  0  0  0  0  0  0  0  0
    1.1784   -3.4293   42.9321 C   0  0  0  0  0  0  0  0  0  0  0  0
    1.2340   -4.4107   43.9123 C   0  0  0  0  0  0  0  0  0  0  0  0
    2.2208   -4.4317   44.9351 C   0  0  0  0  0  0  0  0  0  0  0  0
    3.3567   -3.5729   44.7214 C   0  0  0  0  0  0  0  0  0  0  0  0
    4.5148   -3.6547   45.6235 C   0  0  0  0  0  0  0  0  0  0  0  0
    5.5558   -2.7333   45.4175 C   0  0  0  0  0  0  0  0  0  0  0  0
    6.7188   -2.6746   46.2059 C   0  0  0  0  0  0  0  0  0  0  0  0
    7.8806   -1.9553   45.7522 C   0  0  0  0  0  0  0  0  0  0  0  0
   -0.9371   -3.5932   42.1930 C   0  0  0  0  0  0  0  0  0  0  0  0
   -1.6984   -3.1203   41.2077 N   0  0  0  0  0  0  0  0  0  0  0  0
    2.4701   -2.5575   43.2893 C   0  0  0  0  0  0  0  0  0  0  0  0
    3.6661   -2.3775   43.3092 N   0  0  0  0  0  0  0  0  0  0  0  0
  1  2  2  3
  2  3  1  0
  3  4  1  0
  4  5  1  0
  5  6  1  0
  6  7  2  3
  7  8  1  0
  8  9  2  0
  1 10  1  0
 10 11  1  0
  2 12  1  0
 12 13  1  0
M  END
$$$$
O14757_PocketFlow_idx-in-all-generaetd-88
     RDKit          3D

 18 20  0  0  0  0  0  0  0  0999 V2000
   -0.6395   -2.0713   41.4947 C   0  0  0  0  0  0  0  0  0  0  0  0
   -0.2671   -3.2464   41.6546 C   0  0  0  0  0  0  0  0  0  0  0  0
   -0.3973   -1.1236   41.8820 C   0  0  0  0  0  0  0  0  0  0  0  0
    0.8910   -3.4382   42.5023 C   0  0  0  0  0  0  0  0  0  0  0  0
    1.5547   -2.3138   42.8341 C   0  0  0  0  0  0  0  0  0  0  0  0
    2.7424   -2.3878   43.6112 C   0  0  0  0  0  0  0  0  0  0  0  0
    0.9554   -1.0016   42.5669 C   0  0  0  0  0  0  0  0  0  0  0  0
    3.1362   -3.5608   44.3123 C   0  0  0  0  0  0  0  0  0  0  0  0
    4.4140   -3.5172   44.9217 C   0  0  0  0  0  0  0  0  0  0  0  0
    5.2687   -2.4493   44.7850 C   0  0  0  0  0  0  0  0  0  0  0  0
    6.6128   -2.4647   45.3582 C   0  0  0  0  0  0  0  0  0  0  0  0
    3.7583   -1.3572   43.4718 C   0  0  0  0  0  0  0  0  0  0  0  0
    4.9820   -1.3946   44.0608 C   0  0  0  0  0  0  0  0  0  0  0  0
    7.4874   -1.4471   45.5116 C   0  0  0  0  0  0  0  0  0  0  0  0
    7.1943   -3.7490   45.9335 C   0  0  0  0  0  0  0  0  0  0  0  0
    8.7529   -1.4649   46.1044 C   0  0  0  0  0  0  0  0  0  0  0  0
    8.3889   -3.7096   46.6487 C   0  0  0  0  0  0  0  0  0  0  0  0
    9.1756   -2.5549   46.6978 C   0  0  0  0  0  0  0  0  0  0  0  0
  5  6  1  0
 10 11  1  0
  1  2  2  0
  2  4  1  0
  4  5  2  0
  5  7  1  0
  7  3  2  0
  3  1  1  0
  6  8  2  0
  8  9  1  0
  9 10  2  0
 10 13  1  0
 13 12  2  0
 12  6  1  0
 11 14  2  0
 14 16  1  0
 16 18  2  0
 18 17  1  0
 17 15  2  0
 15 11  1  0
M  END
$$$$
O14757_PocketFlow_idx-in-all-generaetd-89
     RDKit          3D

 16 17  0  0  0  0  0  0  0  0999 V2000
    0.2881   -2.9111   42.4378 C   0  0  0  0  0  0  0  0  0  0  0  0
    1.1784   -3.4293   42.9321 C   0  0  0  0  0  0  0  0  0  0  0  0
    2.4696   -2.7231   42.8997 C   0  0  0  0  0  0  0  0  0  0  0  0
    2.5380   -1.5398   42.2487 C   0  0  0  0  0  0  0  0  0  0  0  0
    0.2254   -1.7181   41.6878 C   0  0  0  0  0  0  0  0  0  0  0  0
    1.4043   -1.0577   41.5785 C   0  0  0  0  0  0  0  0  0  0  0  0
    3.6662   -3.1326   43.6719 C   0  0  0  0  0  0  0  0  0  0  0  0
    4.6321   -2.2547   44.1531 C   0  0  0  0  0  0  0  0  0  0  0  0
    5.6476   -2.6394   44.9548 C   0  0  0  0  0  0  0  0  0  0  0  0
    6.7737   -1.7980   45.2615 C   0  0  0  0  0  0  0  0  0  0  0  0
    7.8446   -2.3733   46.0142 C   0  0  0  0  0  0  0  0  0  0  0  0
    9.0562   -1.7355   46.2638 C   0  0  0  0  0  0  0  0  0  0  0  0
   10.0565   -2.3682   46.9614 C   0  0  0  0  0  0  0  0  0  0  0  0
    9.9455   -3.6716   47.3640 C   0  0  0  0  0  0  0  0  0  0  0  0
    8.7828   -4.3532   47.0359 C   0  0  0  0  0  0  0  0  0  0  0  0
    7.7647   -3.7332   46.3457 C   0  0  0  0  0  0  0  0  0  0  0  0
  3  7  1  0
  7  8  2  3
  8  9  1  0
  9 10  2  3
 10 11  1  0
 11 12  2  0
 12 13  1  0
 13 14  2  0
 14 15  1  0
 15 16  2  0
 16 11  1  0
  1  2  2  0
  2  3  1  0
  3  4  2  0
  4  6  1  0
  6  5  2  0
  5  1  1  0
M  END
$$$$
O14757_PocketFlow_idx-in-all-generaetd-90
     RDKit          3D

  6  6  0  0  0  0  0  0  0  0999 V2000
    0.2881   -2.9111   42.4378 C   0  0  0  0  0  0  0  0  0  0  0  0
   -0.0650   -2.5021   41.5798 C   0  0  0  0  0  0  0  0  0  0  0  0
    1.5111   -2.4518   43.1047 C   0  0  0  0  0  0  0  0  0  0  0  0
    2.1892   -1.4341   42.4770 C   0  0  0  0  0  0  0  0  0  0  0  0
    1.5990   -0.8333   41.3694 C   0  0  0  0  0  0  0  0  0  0  0  0
    0.4724   -1.3248   40.8538 C   0  0  0  0  0  0  0  0  0  0  0  0
  1  2  2  0
  2  6  1  0
  6  5  2  0
  5  4  1  0
  4  3  2  0
  3  1  1  0
M  END
$$$$
O14757_PocketFlow_idx-in-all-generaetd-91
     RDKit          3D

 35 39  0  0  0  0  0  0  0  0999 V2000
   -0.6395   -2.0713   41.4947 C   0  0  0  0  0  0  0  0  0  0  0  0
    0.6719   -2.2449   41.7518 C   0  0  0  0  0  0  0  0  0  0  0  0
    1.5951   -1.1948   41.6106 C   0  0  0  0  0  0  0  0  0  0  0  0
    2.9587   -1.3961   42.0240 C   0  0  0  0  0  0  0  0  0  0  0  0
    3.8815   -0.3441   42.0598 C   0  0  0  0  0  0  0  0  0  0  0  0
    5.0972   -0.5585   42.8399 C   0  0  0  0  0  0  0  0  0  0  0  0
    5.2535   -1.6826   43.6335 C   0  0  0  0  0  0  0  0  0  0  0  0
    4.2210   -2.6732   43.6342 C   0  0  0  0  0  0  0  0  0  0  0  0
    3.0784   -2.4692   42.9029 C   0  0  0  0  0  0  0  0  0  0  0  0
   -1.5003   -3.1795   41.5533 C   0  0  0  0  0  0  0  0  0  0  0  0
   -0.8821   -4.4352   41.5929 C   0  0  0  0  0  0  0  0  0  0  0  0
    0.3828   -4.6203   42.1097 C   0  0  0  0  0  0  0  0  0  0  0  0
    1.2151   -3.4930   42.1003 C   0  0  0  0  0  0  0  0  0  0  0  0
    2.1512   -3.4946   42.8610 C   0  0  0  0  0  0  0  0  0  0  0  0
    6.4447   -1.7810   44.4915 C   0  0  0  0  0  0  0  0  0  0  0  0
    6.2824   -2.0955   45.9427 C   0  0  0  0  0  0  0  0  0  0  0  0
    5.1011   -2.5219   46.4412 C   0  0  0  0  0  0  0  0  0  0  0  0
    7.5265   -2.5149   46.5977 C   0  0  0  0  0  0  0  0  0  0  0  0
    8.7736   -2.0052   46.3088 C   0  0  0  0  0  0  0  0  0  0  0  0
    9.8866   -2.4515   46.9876 C   0  0  0  0  0  0  0  0  0  0  0  0
    9.7948   -3.5356   47.8042 C   0  0  0  0  0  0  0  0  0  0  0  0
    7.4970   -3.6297   47.4872 C   0  0  0  0  0  0  0  0  0  0  0  0
    6.2183   -4.2583   47.7327 C   0  0  0  0  0  0  0  0  0  0  0  0
    8.6021   -4.1378   48.0965 C   0  0  0  0  0  0  0  0  0  0  0  0
    5.0145   -3.6148   47.3317 C   0  0  0  0  0  0  0  0  0  0  0  0
    1.1607    0.4218   40.6946 Br  0  0  0  0  0  0  0  0  0  0  0  0
    6.0304   -5.2853   48.7830 C   0  0  0  0  0  0  0  0  0  0  0  0
    6.3094   -5.2182   49.9404 O   0  0  0  0  0  0  0  0  0  0  0  0
    5.9593   -6.5498   48.1672 N   0  0  0  0  0  0  0  0  0  0  0  0
    5.7097   -7.8089   48.9203 C   0  0  0  0  0  0  0  0  0  0  0  0
    4.9839   -8.7281   48.2281 C   0  0  0  0  0  0  0  0  0  0  0  0
    3.8105   -8.2591   47.6058 C   0  0  0  0  0  0  0  0  0  0  0  0
    2.9736   -9.3193   47.0829 C   0  0  0  0  0  0  0  0  0  0  0  0
    1.8768   -8.8513   46.3062 C   0  0  0  0  0  0  0  0  0  0  0  0
    1.7885   -7.5469   45.8389 C   0  0  0  0  0  0  0  0  0  0  0  0
  7 15  1  0
 15 16  1  0
  3 26  1  0
 23 27  1  0
 27 28  2  0
 27 29  1  0
 29 30  1  0
 30 31  1  0
 31 32  1  0
 32 33  2  3
 33 34  1  0
 34 35  2  0
 16 17  2  0
 17 25  1  0
 25 23  2  0
 23 22  1  0
 18 16  1  0
 18 19  2  0
 19 20  1  0
 20 21  2  0
 21 24  1  0
 24 22  2  0
 22 18  1  0
  1  2  2  0
 13 12  2  0
 12 11  1  0
 11 10  2  0
 10  1  1  0
  2  3  1  0
  3  4  2  0
  9 14  2  0
 14 13  1  0
 13  2  1  0
  4  5  1  0
  5  6  2  0
  6  7  1  0
  7  8  2  0
  8  9  1  0
  9  4  1  0
M  END
$$$$
O14757_PocketFlow_idx-in-all-generaetd-92
     RDKit          3D

 11 11  0  0  0  0  0  0  0  0999 V2000
   -0.6395   -2.0713   41.4947 C   0  0  0  0  0  0  0  0  0  0  0  0
    0.1859   -1.1027   41.5970 C   0  0  0  0  0  0  0  0  0  0  0  0
   -0.2410   -3.3795   41.5297 C   0  0  0  0  0  0  0  0  0  0  0  0
    1.6125   -1.3642   41.8466 C   0  0  0  0  0  0  0  0  0  0  0  0
    1.9568   -2.7213   42.1561 C   0  0  0  0  0  0  0  0  0  0  0  0
    3.2404   -2.9356   42.7549 C   0  0  0  0  0  0  0  0  0  0  0  0
    1.0096   -3.6953   41.9519 C   0  0  0  0  0  0  0  0  0  0  0  0
    4.0634   -1.9089   43.1818 C   0  0  0  0  0  0  0  0  0  0  0  0
    5.1418   -2.1491   44.0325 C   0  0  0  0  0  0  0  0  0  0  0  0
    5.9934   -1.0886   44.4540 C   0  0  0  0  0  0  0  0  0  0  0  0
    5.6936    0.0617   43.9047 N   0  0  0  0  0  0  0  0  0  0  0  0
  5  6  1  0
  6  8  2  3
  8  9  1  0
  9 10  1  0
 10 11  1  0
  1  2  2  0
  2  4  1  0
  4  5  2  0
  5  7  1  0
  7  3  2  0
  3  1  1  0
M  END
$$$$
O14757_PocketFlow_idx-in-all-generaetd-93
     RDKit          3D

 14 14  0  0  0  0  0  0  0  0999 V2000
   -0.6395   -2.0713   41.4947 C   0  0  0  0  0  0  0  0  0  0  0  0
    0.1859   -1.1027   41.5970 C   0  0  0  0  0  0  0  0  0  0  0  0
    1.5836   -1.3270   41.4670 C   0  0  0  0  0  0  0  0  0  0  0  0
   -0.2462   -3.3905   41.2409 C   0  0  0  0  0  0  0  0  0  0  0  0
    2.0578   -2.6838   41.5381 C   0  0  0  0  0  0  0  0  0  0  0  0
    1.0785   -3.6429   41.2820 C   0  0  0  0  0  0  0  0  0  0  0  0
   -2.0082   -1.7942   41.4751 O   0  0  0  0  0  0  0  0  0  0  0  0
    2.4594   -0.3648   41.6521 F   0  0  0  0  0  0  0  0  0  0  0  0
   -2.6768   -1.3244   40.4180 C   0  0  0  0  0  0  0  0  0  0  0  0
   -3.9247   -2.0838   40.3219 C   0  0  0  0  0  0  0  0  0  0  0  0
   -4.7123   -1.5591   39.4890 O   0  0  0  0  0  0  0  0  0  0  0  0
   -4.0178   -3.3142   40.5970 O   0  0  0  0  0  0  0  0  0  0  0  0
   -0.2528    0.1739   41.7923 O   0  0  0  0  0  0  0  0  0  0  0  0
    3.5992   -2.9396   42.0922 Cl  0  0  0  0  0  0  0  0  0  0  0  0
  1  7  1  0
  3  8  1  0
  7  9  1  0
  9 10  1  0
 10 11  2  0
 10 12  1  0
  2 13  1  0
  5 14  1  0
  1  2  2  0
  2  3  1  0
  3  5  2  0
  5  6  1  0
  6  4  2  0
  4  1  1  0
M  END
$$$$
O14757_PocketFlow_idx-in-all-generaetd-94
     RDKit          3D

 35 37  0  0  0  0  0  0  0  0999 V2000
   -0.8794   -1.9236   41.9357 O   0  0  0  0  0  0  0  0  0  0  0  0
    0.3070   -1.6014   41.6735 C   0  0  0  0  0  0  0  0  0  0  0  0
    1.2548   -2.6723   41.5755 C   0  0  0  0  0  0  0  0  0  0  0  0
    2.4147   -2.3743   42.2522 C   0  0  0  0  0  0  0  0  0  0  0  0
    2.9772   -3.1604   43.2831 C   0  0  0  0  0  0  0  0  0  0  0  0
    4.1467   -2.8190   44.0017 C   0  0  0  0  0  0  0  0  0  0  0  0
    4.6792   -3.6858   45.0438 C   0  0  0  0  0  0  0  0  0  0  0  0
    3.9391   -4.8403   45.3358 C   0  0  0  0  0  0  0  0  0  0  0  0
    2.7402   -5.0778   44.6738 C   0  0  0  0  0  0  0  0  0  0  0  0
    2.2323   -4.2537   43.7438 C   0  0  0  0  0  0  0  0  0  0  0  0
    5.9693   -3.3329   45.5937 C   0  0  0  0  0  0  0  0  0  0  0  0
    6.6121   -3.9502   46.5596 C   0  0  0  0  0  0  0  0  0  0  0  0
    7.8511   -3.4496   47.0965 C   0  0  0  0  0  0  0  0  0  0  0  0
    8.5841   -4.0731   48.1366 C   0  0  0  0  0  0  0  0  0  0  0  0
    9.7500   -3.4673   48.5877 C   0  0  0  0  0  0  0  0  0  0  0  0
    8.4733   -2.2309   46.6242 C   0  0  0  0  0  0  0  0  0  0  0  0
    9.6629   -1.7393   47.0126 C   0  0  0  0  0  0  0  0  0  0  0  0
   10.2653   -2.2994   48.1119 C   0  0  0  0  0  0  0  0  0  0  0  0
    0.6553   -0.4034   41.4658 O   0  0  0  0  0  0  0  0  0  0  0  0
    1.9490   -6.2757   45.1228 C   0  0  0  0  0  0  0  0  0  0  0  0
    2.1943   -7.1957   45.5308 N   0  0  0  0  0  0  0  0  0  0  0  0
    0.6340   -6.1350   44.8916 O   0  0  0  0  0  0  0  0  0  0  0  0
    1.5149   -8.4326   45.9782 C   0  0  0  0  0  0  0  0  0  0  0  0
    1.4839   -8.6273   47.4116 C   0  0  0  0  0  0  0  0  0  0  0  0
    0.0469   -8.6571   47.8257 C   0  0  0  0  0  0  0  0  0  0  0  0
   -0.7189   -7.6032   47.1761 C   0  0  0  0  0  0  0  0  0  0  0  0
   -2.1719   -7.8460   47.0346 C   0  0  0  0  0  0  0  0  0  0  0  0
   -2.3751   -9.1204   46.4668 C   0  0  0  0  0  0  0  0  0  0  0  0
   -3.2973   -9.2542   45.4449 C   0  0  0  0  0  0  0  0  0  0  0  0
   -3.2960   -8.3027   44.3975 C   0  0  0  0  0  0  0  0  0  0  0  0
   -4.1655   -8.3434   43.2816 C   0  0  0  0  0  0  0  0  0  0  0  0
   -5.1418   -9.2377   43.2476 C   0  0  0  0  0  0  0  0  0  0  0  0
   -5.3019  -10.1629   44.3126 C   0  0  0  0  0  0  0  0  0  0  0  0
   -4.3580  -10.1598   45.3753 C   0  0  0  0  0  0  0  0  0  0  0  0
   -6.1023   -9.1585   42.1502 C   0  0  0  0  0  0  0  0  0  0  0  0
  1  2  1  0
  2  3  1  0
  3  4  1  0
  4  5  1  0
  7 11  1  0
 11 12  2  3
 12 13  1  0
  2 19  2  0
  9 20  1  0
 20 21  1  0
 20 22  2  0
 21 23  1  0
 23 24  1  0
 24 25  1  0
 25 26  1  0
 26 27  2  3
 27 28  1  0
 28 29  1  0
 32 35  1  0
 29 30  2  0
 30 31  1  0
 31 32  2  0
 32 33  1  0
 33 34  2  0
 34 29  1  0
 13 14  2  0
 14 15  1  0
 15 18  2  0
 18 17  1  0
 17 16  2  0
 16 13  1  0
  5  6  2  0
  6  7  1  0
  7  8  2  0
  8  9  1  0
  9 10  2  0
 10  5  1  0
M  END
$$$$
O14757_PocketFlow_idx-in-all-generaetd-95
     RDKit          3D

 14 15  0  0  0  0  0  0  0  0999 V2000
   -0.6395   -2.0713   41.4947 C   0  0  0  0  0  0  0  0  0  0  0  0
    0.1859   -1.1027   41.5970 C   0  0  0  0  0  0  0  0  0  0  0  0
    1.5858   -1.4430   41.9548 C   0  0  0  0  0  0  0  0  0  0  0  0
   -0.3290   -3.4217   41.4987 C   0  0  0  0  0  0  0  0  0  0  0  0
    2.5865   -0.4507   42.1596 C   0  0  0  0  0  0  0  0  0  0  0  0
    3.8762   -0.8377   42.4211 C   0  0  0  0  0  0  0  0  0  0  0  0
    4.8646    0.1057   42.7648 C   0  0  0  0  0  0  0  0  0  0  0  0
    1.0092   -3.7651   41.8625 C   0  0  0  0  0  0  0  0  0  0  0  0
    1.9120   -2.7540   42.0691 C   0  0  0  0  0  0  0  0  0  0  0  0
   -1.9593   -1.7995   41.1483 F   0  0  0  0  0  0  0  0  0  0  0  0
    6.0225   -0.4643   43.5021 C   0  0  0  0  0  0  0  0  0  0  0  0
    5.8648   -1.7114   44.2188 C   0  0  0  0  0  0  0  0  0  0  0  0
    4.8015   -2.5542   43.8661 C   0  0  0  0  0  0  0  0  0  0  0  0
    3.7428   -2.0709   43.1330 C   0  0  0  0  0  0  0  0  0  0  0  0
  3  5  1  0
  5  6  1  0
  1 10  1  0
  6  7  2  0
  7 11  1  0
 11 12  2  0
 12 13  1  0
 13 14  2  0
 14  6  1  0
  1  2  2  0
  2  3  1  0
  3  9  2  0
  9  8  1  0
  8  4  2  0
  4  1  1  0
M  END
$$$$
O14757_PocketFlow_idx-in-all-generaetd-96
     RDKit          3D

  9  9  0  0  0  0  0  0  0  0999 V2000
   -0.6395   -2.0713   41.4947 C   0  0  0  0  0  0  0  0  0  0  0  0
    0.6719   -2.2449   41.7518 C   0  0  0  0  0  0  0  0  0  0  0  0
    1.1287   -3.3339   42.4778 C   0  0  0  0  0  0  0  0  0  0  0  0
    0.1404   -4.2568   42.9148 C   0  0  0  0  0  0  0  0  0  0  0  0
    0.6032   -5.2594   43.6933 N   0  0  0  0  0  0  0  0  0  0  0  0
   -1.0790   -0.8799   40.8722 C   0  0  0  0  0  0  0  0  0  0  0  0
    1.5793   -4.9751   44.5313 C   0  0  0  0  0  0  0  0  0  0  0  0
    2.5914   -4.0242   44.2816 C   0  0  0  0  0  0  0  0  0  0  0  0
    2.2563   -3.0544   43.3830 C   0  0  0  0  0  0  0  0  0  0  0  0
  1  2  1  0
  1  6  1  0
  2  3  1  0
  3  4  2  0
  4  5  1  0
  5  7  2  0
  7  8  1  0
  8  9  2  0
  9  3  1  0
M  END
$$$$
O14757_PocketFlow_idx-in-all-generaetd-97
     RDKit          3D

 11 11  0  0  0  0  0  0  0  0999 V2000
   -0.8794   -1.9236   41.9357 O   0  0  0  0  0  0  0  0  0  0  0  0
    0.3182   -2.2442   41.7073 C   0  0  0  0  0  0  0  0  0  0  0  0
    1.3484   -2.3501   42.5745 C   0  0  0  0  0  0  0  0  0  0  0  0
    2.5947   -1.8263   42.3345 C   0  0  0  0  0  0  0  0  0  0  0  0
    3.6116   -1.7756   43.2808 C   0  0  0  0  0  0  0  0  0  0  0  0
    4.8544   -0.9957   43.1462 C   0  0  0  0  0  0  0  0  0  0  0  0
    4.6435    0.2103   42.4688 C   0  0  0  0  0  0  0  0  0  0  0  0
    3.3620    0.4905   41.9527 C   0  0  0  0  0  0  0  0  0  0  0  0
    2.3434   -0.4183   41.9181 C   0  0  0  0  0  0  0  0  0  0  0  0
    3.8525   -3.1819   43.8938 C   0  0  0  0  0  0  0  0  0  0  0  0
    5.0344   -3.4342   44.6514 C   0  0  0  0  0  0  0  0  0  0  0  0
  1  2  2  0
  2  3  1  0
  3  4  1  0
  5 10  1  0
 10 11  2  0
  4  5  2  0
  5  6  1  0
  6  7  2  0
  7  8  1  0
  8  9  2  0
  9  4  1  0
M  END
$$$$
O14757_PocketFlow_idx-in-all-generaetd-98
     RDKit          3D

 13 13  0  0  0  0  0  0  0  0999 V2000
   -0.6395   -2.0713   41.4947 C   0  0  0  0  0  0  0  0  0  0  0  0
    0.1859   -1.1027   41.5970 C   0  0  0  0  0  0  0  0  0  0  0  0
    1.5836   -1.3270   41.4670 C   0  0  0  0  0  0  0  0  0  0  0  0
   -0.2462   -3.3905   41.2409 C   0  0  0  0  0  0  0  0  0  0  0  0
    2.1669   -2.0426   41.8814 C   0  0  0  0  0  0  0  0  0  0  0  0
    1.8731   -3.4672   42.2262 C   0  0  0  0  0  0  0  0  0  0  0  0
    0.6222   -3.9380   41.9627 C   0  0  0  0  0  0  0  0  0  0  0  0
   -2.0230   -1.7585   41.2987 N   0  0  0  0  0  0  0  0  0  0  0  0
    3.8701   -1.7093   42.2942 Cl  0  0  0  0  0  0  0  0  0  0  0  0
   -2.6433   -1.2034   40.2824 C   0  0  0  0  0  0  0  0  0  0  0  0
   -4.0814   -0.9567   40.4058 C   0  0  0  0  0  0  0  0  0  0  0  0
    2.0294    0.1109   41.3720 N   0  0  0  0  0  0  0  0  0  0  0  0
    2.7731    0.6373   42.4250 C   0  0  0  0  0  0  0  0  0  0  0  0
  1  2  1  0
  2  3  2  0
  1  4  2  0
  3  5  1  0
  5  6  1  0
  4  7  1  0
  6  7  1  0
  1  8  1  0
  5  9  1  0
  8 10  1  0
 10 11  1  0
  3 12  1  0
 12 13  1  0
M  END
$$$$
O14757_PocketFlow_idx-in-all-generaetd-99
     RDKit          3D

 23 25  0  0  0  0  0  0  0  0999 V2000
   -0.6395   -2.0713   41.4947 C   0  0  0  0  0  0  0  0  0  0  0  0
   -0.2671   -3.2464   41.6546 C   0  0  0  0  0  0  0  0  0  0  0  0
    0.2277   -0.9875   41.6495 C   0  0  0  0  0  0  0  0  0  0  0  0
    1.6284   -1.2752   41.8841 C   0  0  0  0  0  0  0  0  0  0  0  0
    1.8971   -2.6873   42.1685 C   0  0  0  0  0  0  0  0  0  0  0  0
    0.9380   -3.6379   42.0922 C   0  0  0  0  0  0  0  0  0  0  0  0
    2.5765   -0.2838   42.1328 C   0  0  0  0  0  0  0  0  0  0  0  0
    2.5037    1.0169   41.8324 C   0  0  0  0  0  0  0  0  0  0  0  0
    3.9060   -0.7933   42.6153 C   0  0  0  0  0  0  0  0  0  0  0  0
    4.2780   -1.8998   43.2254 C   0  0  0  0  0  0  0  0  0  0  0  0
    3.1319   -2.8976   42.9903 C   0  0  0  0  0  0  0  0  0  0  0  0
   -1.7846   -1.6048   40.9341 F   0  0  0  0  0  0  0  0  0  0  0  0
    5.4225   -2.2332   43.8712 C   0  0  0  0  0  0  0  0  0  0  0  0
    5.4202   -1.9070   45.2831 C   0  0  0  0  0  0  0  0  0  0  0  0
    5.5792   -2.9499   46.1542 C   0  0  0  0  0  0  0  0  0  0  0  0
    6.8375   -3.2965   46.5642 C   0  0  0  0  0  0  0  0  0  0  0  0
    7.0985   -4.3361   47.4960 C   0  0  0  0  0  0  0  0  0  0  0  0
    5.9764   -4.8621   48.1734 C   0  0  0  0  0  0  0  0  0  0  0  0
    6.2766   -5.8011   49.2174 C   0  0  0  0  0  0  0  0  0  0  0  0
    4.5444   -3.6752   46.8292 C   0  0  0  0  0  0  0  0  0  0  0  0
    4.7447   -4.6055   47.7774 C   0  0  0  0  0  0  0  0  0  0  0  0
    7.2705   -5.6979   49.9124 O   0  0  0  0  0  0  0  0  0  0  0  0
    5.3040   -6.6030   49.6185 O   0  0  0  0  0  0  0  0  0  0  0  0
  7  8  1  0
  1 12  1  0
 10 13  1  0
 13 14  1  0
 14 15  1  0
 18 19  1  0
 19 22  2  0
 19 23  1  0
  5 11  1  0
 11 10  2  0
 10  9  1  0
  9  7  2  0
  7  4  1  0
  1  2  2  0
  2  6  1  0
  6  5  2  0
  5  4  1  0
  4  3  2  0
  3  1  1  0
 15 16  2  0
 16 17  1  0
 17 18  2  0
 18 21  1  0
 21 20  2  0
 20 15  1  0
M  END
$$$$
O14757_PocketFlow_idx-in-all-generaetd-100
     RDKit          3D

 35 37  0  0  0  0  0  0  0  0999 V2000
   -0.6395   -2.0713   41.4947 C   0  0  0  0  0  0  0  0  0  0  0  0
    0.6719   -2.2449   41.7518 C   0  0  0  0  0  0  0  0  0  0  0  0
    1.5951   -1.1948   41.6106 C   0  0  0  0  0  0  0  0  0  0  0  0
    2.8936   -1.2860   42.2441 C   0  0  0  0  0  0  0  0  0  0  0  0
    3.7940   -0.2219   42.2897 C   0  0  0  0  0  0  0  0  0  0  0  0
   -0.9602   -0.8113   41.3780 F   0  0  0  0  0  0  0  0  0  0  0  0
    4.9803   -0.3488   43.1082 C   0  0  0  0  0  0  0  0  0  0  0  0
    5.2608   -1.4944   43.8173 C   0  0  0  0  0  0  0  0  0  0  0  0
    4.2945   -2.5765   43.7405 C   0  0  0  0  0  0  0  0  0  0  0  0
    3.1169   -2.4014   43.0104 C   0  0  0  0  0  0  0  0  0  0  0  0
    6.4536   -1.6405   44.6338 C   0  0  0  0  0  0  0  0  0  0  0  0
    6.5581   -2.6751   45.6682 C   0  0  0  0  0  0  0  0  0  0  0  0
    7.8133   -2.8025   46.3635 C   0  0  0  0  0  0  0  0  0  0  0  0
    8.7755   -1.8286   46.2476 C   0  0  0  0  0  0  0  0  0  0  0  0
    8.4552   -0.6631   45.4239 C   0  0  0  0  0  0  0  0  0  0  0  0
    7.4046   -0.6115   44.7419 C   0  0  0  0  0  0  0  0  0  0  0  0
   -1.5348   -2.6229   42.4466 F   0  0  0  0  0  0  0  0  0  0  0  0
   -1.0830   -2.6154   40.3641 F   0  0  0  0  0  0  0  0  0  0  0  0
    9.9866   -1.9246   47.0839 C   0  0  0  0  0  0  0  0  0  0  0  0
   10.6310   -2.7028   47.2039 O   0  0  0  0  0  0  0  0  0  0  0  0
   10.3056   -0.6207   47.6420 O   0  0  0  0  0  0  0  0  0  0  0  0
   11.2651   -0.7874   48.6676 C   0  0  0  0  0  0  0  0  0  0  0  0
   10.7536   -1.0915   49.7889 C   0  0  0  0  0  0  0  0  0  0  0  0
    9.8071   -1.7429   49.9784 O   0  0  0  0  0  0  0  0  0  0  0  0
   11.3634   -0.6230   51.0121 N   0  0  0  0  0  0  0  0  0  0  0  0
   10.8381   -0.8544   52.3463 C   0  0  2  0  0  0  0  0  0  0  0  0
   11.3023   -1.6891   52.9765 C   0  0  0  0  0  0  0  0  0  0  0  0
   10.7713   -2.8205   53.1734 C   0  0  0  0  0  0  0  0  0  0  0  0
    9.6748   -3.1793   52.3434 C   0  0  0  0  0  0  0  0  0  0  0  0
    8.5917   -2.3437   52.1794 C   0  0  0  0  0  0  0  0  0  0  0  0
    9.5859   -0.2256   52.6277 C   0  0  0  0  0  0  0  0  0  0  0  0
    8.5449   -0.9608   52.1705 C   0  0  0  0  0  0  0  0  0  0  0  0
   12.4042    0.3955   51.0585 C   0  0  0  0  0  0  0  0  0  0  0  0
   12.2280    1.6674   50.8868 C   0  0  0  0  0  0  0  0  0  0  0  0
   12.7164    2.5197   51.6252 C   0  0  0  0  0  0  0  0  0  0  0  0
  1  2  1  0
  2  3  1  0
  3  4  1  0
  1  6  1  0
  8 11  1  0
  1 17  1  0
  1 18  1  0
 14 19  1  0
 19 20  2  0
 19 21  1  0
 21 22  1  0
 22 23  1  0
 23 24  2  0
 23 25  1  0
 26 25  1  6
 26 27  1  0
 27 28  2  0
 28 29  1  0
 29 30  2  0
 26 31  1  0
 30 32  1  0
 31 32  1  0
 25 33  1  0
 33 34  1  0
 34 35  2  0
 11 12  2  0
 12 13  1  0
 13 14  2  0
 14 15  1  0
 15 16  2  0
 16 11  1  0
  4  5  2  0
  5  7  1  0
  7  8  2  0
  8  9  1  0
  9 10  2  0
 10  4  1  0
M  END
$$$$
O14757_PocketFlow_idx-in-all-generaetd-101
     RDKit          3D

 21 22  0  0  0  0  0  0  0  0999 V2000
    0.0138   -2.7927   42.5918 N   0  0  0  0  0  0  0  0  0  0  0  0
    1.0651   -2.2375   42.1679 C   0  0  0  0  0  0  0  0  0  0  0  0
    0.8947   -1.0867   41.3479 C   0  0  0  0  0  0  0  0  0  0  0  0
    2.1078   -0.3090   41.2076 C   0  0  0  0  0  0  0  0  0  0  0  0
    2.1879    0.9354   41.8267 C   0  0  0  0  0  0  0  0  0  0  0  0
    2.1718   -2.7335   42.5871 O   0  0  0  0  0  0  0  0  0  0  0  0
    3.6324    1.0280   42.4421 C   0  0  0  0  0  0  0  0  0  0  0  0
    4.1407   -0.2734   42.9684 C   0  0  0  0  0  0  0  0  0  0  0  0
    4.7776   -1.0899   42.1396 C   0  0  0  0  0  0  0  0  0  0  0  0
    5.6221   -1.9798   42.8968 C   0  0  0  0  0  0  0  0  0  0  0  0
    5.4254   -1.8499   44.3584 C   0  0  0  0  0  0  0  0  0  0  0  0
    4.6067   -0.4650   44.3310 C   0  0  0  0  0  0  0  0  0  0  0  0
    5.9831   -2.4827   45.3662 C   0  0  0  0  0  0  0  0  0  0  0  0
    5.3647   -3.6720   45.8336 C   0  0  0  0  0  0  0  0  0  0  0  0
    5.9025   -4.2531   47.0289 C   0  0  0  0  0  0  0  0  0  0  0  0
    7.1356   -3.9004   47.5440 C   0  0  0  0  0  0  0  0  0  0  0  0
    7.8411   -2.8249   46.8714 C   0  0  0  0  0  0  0  0  0  0  0  0
    7.2621   -2.1207   45.8630 C   0  0  0  0  0  0  0  0  0  0  0  0
    7.7533   -4.5847   48.6421 C   0  0  0  0  0  0  0  0  0  0  0  0
    8.8188   -5.0120   48.5218 O   0  0  0  0  0  0  0  0  0  0  0  0
    6.8456   -4.9135   49.5982 O   0  0  0  0  0  0  0  0  0  0  0  0
  1  2  1  0
  2  3  1  0
  3  4  1  0
  4  5  1  0
  2  6  2  0
  5  7  1  0
  7  8  1  0
  8  9  2  0
  9 10  1  0
 10 11  2  0
  8 12  1  0
 11 12  1  0
 11 13  1  0
 16 19  1  0
 19 20  2  0
 19 21  1  0
 13 14  2  0
 14 15  1  0
 15 16  2  0
 16 17  1  0
 17 18  2  0
 18 13  1  0
M  END
$$$$
O14757_PocketFlow_idx-in-all-generaetd-102
     RDKit          3D

 12 12  0  0  0  0  0  0  0  0999 V2000
   -0.6395   -2.0713   41.4947 C   0  0  0  0  0  0  0  0  0  0  0  0
   -0.2671   -3.2464   41.6546 C   0  0  0  0  0  0  0  0  0  0  0  0
   -2.0053   -1.6706   41.3987 C   0  0  0  0  0  0  0  0  0  0  0  0
   -2.2928   -0.3176   41.3208 C   0  0  0  0  0  0  0  0  0  0  0  0
   -3.5679   -0.0116   41.1750 N   0  0  0  0  0  0  0  0  0  0  0  0
    0.4246   -1.0912   41.2083 C   0  0  0  0  0  0  0  0  0  0  0  0
    1.4864   -1.0537   42.1499 C   0  0  0  0  0  0  0  0  0  0  0  0
    2.5171   -0.0358   42.0942 C   0  0  0  0  0  0  0  0  0  0  0  0
    3.7093   -0.1717   42.7931 C   0  0  0  0  0  0  0  0  0  0  0  0
    4.1477   -1.3472   43.3481 C   0  0  0  0  0  0  0  0  0  0  0  0
    3.1651   -2.4452   43.3063 C   0  0  0  0  0  0  0  0  0  0  0  0
    2.0080   -2.3029   42.6380 C   0  0  0  0  0  0  0  0  0  0  0  0
  1  2  1  0
  1  3  2  3
  3  4  1  0
  4  5  1  0
  1  6  1  0
  6  7  1  0
  7  8  2  0
  8  9  1  0
  9 10  2  0
 10 11  1  0
 11 12  2  0
 12  7  1  0
M  END
$$$$
O14757_PocketFlow_idx-in-all-generaetd-103
     RDKit          3D

 26 29  0  0  0  0  0  0  0  0999 V2000
   -0.6395   -2.0713   41.4947 C   0  0  0  0  0  0  0  0  0  0  0  0
    0.1859   -1.1027   41.5970 C   0  0  0  0  0  0  0  0  0  0  0  0
   -2.0077   -1.8651   41.2044 C   0  0  0  0  0  0  0  0  0  0  0  0
    1.5974   -1.2445   41.7640 C   0  0  0  0  0  0  0  0  0  0  0  0
    1.9873   -2.5402   42.2780 C   0  0  0  0  0  0  0  0  0  0  0  0
    0.9098   -3.5138   42.4627 C   0  0  0  0  0  0  0  0  0  0  0  0
   -0.3287   -3.2489   41.9834 C   0  0  0  0  0  0  0  0  0  0  0  0
   -2.7216   -2.7891   40.5474 N   0  0  0  0  0  0  0  0  0  0  0  0
   -2.6128   -0.6984   41.3931 O   0  0  0  0  0  0  0  0  0  0  0  0
    2.4999   -0.1433   41.8041 C   0  0  0  0  0  0  0  0  0  0  0  0
    3.8293   -0.2300   42.5374 C   0  0  0  0  0  0  0  0  0  0  0  0
    4.0258   -1.2300   43.4506 C   0  0  0  0  0  0  0  0  0  0  0  0
    5.2076   -1.3470   44.2402 C   0  0  0  0  0  0  0  0  0  0  0  0
    5.3658   -2.4994   45.0608 C   0  0  0  0  0  0  0  0  0  0  0  0
    4.4030   -3.5337   44.9781 C   0  0  0  0  0  0  0  0  0  0  0  0
    3.3931   -3.4404   44.0714 C   0  0  0  0  0  0  0  0  0  0  0  0
    3.2198   -2.3648   43.3688 C   0  0  0  0  0  0  0  0  0  0  0  0
    6.5002   -2.5912   45.9927 C   0  0  0  0  0  0  0  0  0  0  0  0
    7.6463   -1.8000   45.8383 C   0  0  0  0  0  0  0  0  0  0  0  0
    8.8091   -1.9341   46.6196 C   0  0  0  0  0  0  0  0  0  0  0  0
    8.8267   -2.8911   47.5743 C   0  0  0  0  0  0  0  0  0  0  0  0
    7.6899   -3.7219   47.7846 C   0  0  0  0  0  0  0  0  0  0  0  0
    6.5780   -3.6229   46.9427 C   0  0  0  0  0  0  0  0  0  0  0  0
    9.9702   -2.9759   48.5235 C   0  0  0  0  0  0  0  0  0  0  0  0
   10.0226   -3.6603   49.4375 O   0  0  0  0  0  0  0  0  0  0  0  0
   10.9713   -2.1391   48.1932 O   0  0  0  0  0  0  0  0  0  0  0  0
  1  3  1  0
  3  8  1  0
  3  9  2  0
 14 18  1  0
 21 24  1  0
 24 25  2  0
 24 26  1  0
 12 13  1  0
 13 14  2  0
 14 15  1  0
 15 16  2  0
 16 17  1  0
  5 17  2  0
 17 12  1  0
 12 11  2  0
 11 10  1  0
 10  4  2  0
 18 19  2  0
 19 20  1  0
 20 21  2  0
 21 22  1  0
 22 23  2  0
 23 18  1  0
  1  2  2  0
  2  4  1  0
  4  5  1  0
  5  6  1  0
  6  7  2  0
  7  1  1  0
M  END
$$$$
O14757_PocketFlow_idx-in-all-generaetd-104
     RDKit          3D

 16 17  0  0  0  0  0  0  0  0999 V2000
   -0.6395   -2.0713   41.4947 C   0  0  0  0  0  0  0  0  0  0  0  0
    0.1859   -1.1027   41.5970 C   0  0  0  0  0  0  0  0  0  0  0  0
   -0.2410   -3.3795   41.5297 C   0  0  0  0  0  0  0  0  0  0  0  0
    1.6125   -1.3642   41.8466 C   0  0  0  0  0  0  0  0  0  0  0  0
    2.5720   -0.3568   42.0335 C   0  0  0  0  0  0  0  0  0  0  0  0
    3.8647   -0.6704   42.4195 C   0  0  0  0  0  0  0  0  0  0  0  0
    4.8191    0.2819   42.7564 C   0  0  0  0  0  0  0  0  0  0  0  0
    1.0699   -3.7296   41.8502 C   0  0  0  0  0  0  0  0  0  0  0  0
    1.9536   -2.6774   42.0173 C   0  0  0  0  0  0  0  0  0  0  0  0
   -2.0063   -1.8509   41.1817 N   0  0  0  0  0  0  0  0  0  0  0  0
    5.9084   -0.2500   43.3465 F   0  0  0  0  0  0  0  0  0  0  0  0
   -2.6035   -0.6306   41.4033 C   0  0  0  0  0  0  0  0  0  0  0  0
   -3.8919   -0.4179   40.8106 C   0  0  0  0  0  0  0  0  0  0  0  0
   -2.6464   -2.6231   40.2047 C   0  0  0  0  0  0  0  0  0  0  0  0
   -3.9932   -1.6828   40.0991 N   0  0  0  0  0  0  0  0  0  0  0  0
    3.9971   -1.8878   43.2126 C   0  0  0  0  0  0  0  0  0  0  0  0
  4  5  1  0
  5  6  2  3
  6  7  1  0
  1 10  1  0
  7 11  1  0
 10 12  1  0
 12 13  2  0
 10 14  1  0
 13 15  1  0
 14 15  1  0
  6 16  1  0
  1  2  2  0
  2  4  1  0
  4  9  2  0
  9  8  1  0
  8  3  2  0
  3  1  1  0
M  END
$$$$
O14757_PocketFlow_idx-in-all-generaetd-105
     RDKit          3D

 35 39  0  0  0  0  0  0  0  0999 V2000
   -0.6395   -2.0713   41.4947 C   0  0  0  0  0  0  0  0  0  0  0  0
   -0.2671   -3.2464   41.6546 C   0  0  0  0  0  0  0  0  0  0  0  0
    0.2407   -0.9706   41.5952 C   0  0  0  0  0  0  0  0  0  0  0  0
    1.6195   -1.2958   41.8767 C   0  0  0  0  0  0  0  0  0  0  0  0
    1.9162   -2.6816   42.2016 C   0  0  0  0  0  0  0  0  0  0  0  0
    0.9422   -3.6324   42.1156 C   0  0  0  0  0  0  0  0  0  0  0  0
    2.4110   -0.2618   42.1279 N   0  0  0  0  0  0  0  0  0  0  0  0
    3.6825   -0.4639   42.5982 C   0  0  0  0  0  0  0  0  0  0  0  0
    4.5441    0.5976   42.6330 N   0  0  0  0  0  0  0  0  0  0  0  0
    4.2085   -1.6838   43.0310 C   0  0  0  0  0  0  0  0  0  0  0  0
    5.3833   -1.6634   43.8628 C   0  0  0  0  0  0  0  0  0  0  0  0
    5.6995   -2.8565   44.6567 C   0  0  0  0  0  0  0  0  0  0  0  0
    6.7406   -2.6967   45.6604 C   0  0  0  0  0  0  0  0  0  0  0  0
    7.5332   -1.5250   45.5725 C   0  0  0  0  0  0  0  0  0  0  0  0
    7.2369   -0.5432   44.6951 N   0  0  0  0  0  0  0  0  0  0  0  0
    6.1882   -0.5596   43.9630 C   0  0  0  0  0  0  0  0  0  0  0  0
    5.6546    0.5645   43.3263 N   0  0  0  0  0  0  0  0  0  0  0  0
   -2.0679   -1.7666   41.0271 C   0  0  0  0  0  0  0  0  0  0  0  0
   -2.6917   -0.6191   41.3066 N   0  0  0  0  0  0  0  0  0  0  0  0
   -2.7914   -2.6540   40.4411 N   0  0  0  0  0  0  0  0  0  0  0  0
   -3.9076   -0.6347   40.7021 C   0  0  0  0  0  0  0  0  0  0  0  0
   -4.0156   -1.9135   40.1382 C   0  0  0  0  0  0  0  0  0  0  0  0
    8.5969   -1.6167   46.4333 N   0  0  0  0  0  0  0  0  0  0  0  0
    8.9517   -2.4918   47.3251 C   0  0  0  0  0  0  0  0  0  0  0  0
    8.0733   -3.6180   47.3680 C   0  0  0  0  0  0  0  0  0  0  0  0
    7.0469   -3.7640   46.5303 C   0  0  0  0  0  0  0  0  0  0  0  0
    9.9274   -2.3013   48.1145 F   0  0  0  0  0  0  0  0  0  0  0  0
    4.8300   -3.9494   44.6087 C   0  0  0  0  0  0  0  0  0  0  0  0
    4.7594   -4.7596   43.7892 O   0  0  0  0  0  0  0  0  0  0  0  0
    3.7065   -3.8696   45.5904 N   0  0  0  0  0  0  0  0  0  0  0  0
    2.7527   -4.8819   45.7575 C   0  0  0  0  0  0  0  0  0  0  0  0
    1.4233   -4.5014   45.8631 C   0  0  0  0  0  0  0  0  0  0  0  0
    0.5866   -5.0900   45.2177 C   0  0  0  0  0  0  0  0  0  0  0  0
    0.6936   -6.5208   44.9118 C   0  0  0  0  0  0  0  0  0  0  0  0
    2.0512   -6.9546   44.7822 C   0  0  0  0  0  0  0  0  0  0  0  0
  4  7  1  0
  7  8  1  0
  1 18  1  0
 18 19  2  0
 18 20  1  0
 19 21  1  0
 20 22  2  0
 21 22  2  0
 24 27  1  0
 12 28  1  0
 28 29  2  0
 28 30  1  0
 30 31  1  0
 31 32  1  0
 32 33  2  3
 33 34  1  0
 34 35  2  0
 11 12  1  0
 12 13  2  0
 14 15  2  0
 15 16  1  0
  1  2  2  0
  2  6  1  0
  6  5  2  0
  5  4  1  0
  4  3  2  0
  3  1  1  0
  8  9  2  0
  9 17  1  0
 17 16  2  0
 16 11  1  0
 11 10  2  0
 10  8  1  0
 13 14  1  0
 14 23  1  0
 23 24  2  0
 24 25  1  0
 25 26  2  0
 26 13  1  0
M  END
$$$$
O14757_PocketFlow_idx-in-all-generaetd-106
     RDKit          3D

 22 24  0  0  0  0  0  0  0  0999 V2000
    0.2881   -2.9111   42.4378 C   0  0  0  0  0  0  0  0  0  0  0  0
   -0.0650   -2.5021   41.5798 C   0  0  0  0  0  0  0  0  0  0  0  0
    1.5111   -2.4518   43.1047 C   0  0  0  0  0  0  0  0  0  0  0  0
    2.2161   -3.1002   44.2235 C   0  0  0  0  0  0  0  0  0  0  0  0
    1.4768   -4.2220   44.7826 C   0  0  0  0  0  0  0  0  0  0  0  0
    0.3667   -4.7301   44.0804 C   0  0  0  0  0  0  0  0  0  0  0  0
   -0.1331   -4.1976   42.9843 C   0  0  0  0  0  0  0  0  0  0  0  0
   -0.8558   -1.4636   41.3681 N   0  0  0  0  0  0  0  0  0  0  0  0
    2.0321   -4.8310   46.0003 C   0  0  0  0  0  0  0  0  0  0  0  0
    1.1456   -5.0662   46.8144 F   0  0  0  0  0  0  0  0  0  0  0  0
    2.9493   -3.9601   46.5400 F   0  0  0  0  0  0  0  0  0  0  0  0
    2.7249   -5.8803   45.6420 F   0  0  0  0  0  0  0  0  0  0  0  0
    0.0833   -3.1509   40.3438 O   0  0  0  0  0  0  0  0  0  0  0  0
    2.2537   -1.3141   42.5311 C   0  0  0  0  0  0  0  0  0  0  0  0
    1.7197   -0.2073   41.9047 C   0  0  0  0  0  0  0  0  0  0  0  0
    0.2206   -0.4485   41.3750 C   0  0  0  0  0  0  0  0  0  0  0  0
    3.6866   -1.0898   42.8376 C   0  0  0  0  0  0  0  0  0  0  0  0
    4.6192   -2.0693   43.1947 C   0  0  0  0  0  0  0  0  0  0  0  0
    5.9199   -1.6842   43.6873 C   0  0  0  0  0  0  0  0  0  0  0  0
    6.1055   -0.2866   43.7795 C   0  0  0  0  0  0  0  0  0  0  0  0
    4.1654    0.2364   43.0611 C   0  0  0  0  0  0  0  0  0  0  0  0
    5.3203    0.5731   43.4355 N   0  0  0  0  0  0  0  0  0  0  0  0
  1  2  1  0
  2  8  1  0
  5  9  1  0
  9 10  1  0
  9 11  1  0
  9 12  1  0
  2 13  2  0
  3 14  1  0
 14 15  2  0
  8 16  2  0
 15 16  1  0
 14 17  1  0
 17 18  2  0
 18 19  1  0
 19 20  2  0
 20 22  1  0
 22 21  2  0
 21 17  1  0
  1  3  2  0
  3  4  1  0
  4  5  2  0
  5  6  1  0
  6  7  2  0
  7  1  1  0
M  END
$$$$
O14757_PocketFlow_idx-in-all-generaetd-107
     RDKit          3D

 26 28  0  0  0  0  0  0  0  0999 V2000
    0.2881   -2.9111   42.4378 C   0  0  0  0  0  0  0  0  0  0  0  0
    1.3023   -2.0648   42.1981 C   0  0  0  0  0  0  0  0  0  0  0  0
    2.5313   -2.2887   42.6989 C   0  0  0  0  0  0  0  0  0  0  0  0
    3.5918   -1.3644   42.5325 C   0  0  0  0  0  0  0  0  0  0  0  0
    3.3299   -0.0611   42.1413 C   0  0  0  0  0  0  0  0  0  0  0  0
    0.5929   -4.0815   43.1930 C   0  0  0  0  0  0  0  0  0  0  0  0
    1.7551   -4.1680   43.9291 C   0  0  0  0  0  0  0  0  0  0  0  0
    2.7954   -3.2398   43.7094 C   0  0  0  0  0  0  0  0  0  0  0  0
    2.0499    0.2535   41.5975 C   0  0  0  0  0  0  0  0  0  0  0  0
    0.9906   -0.7068   41.6857 C   0  0  0  0  0  0  0  0  0  0  0  0
    1.9600   -5.3631   44.7848 C   0  0  1  0  0  0  0  0  0  0  0  0
    3.4097   -5.4927   45.5618 Cl  0  0  0  0  0  0  0  0  0  0  0  0
    0.9237   -6.2559   45.0722 C   0  0  2  0  0  0  0  0  0  0  0  0
    0.1455   -6.5549   44.2376 O   0  0  0  0  0  0  0  0  0  0  0  0
    0.3022   -6.0423   46.3204 N   0  0  0  0  0  0  0  0  0  0  0  0
   -0.9267   -6.7390   46.7362 C   0  0  0  0  0  0  0  0  0  0  0  0
   -0.8795   -2.8169   41.8888 O   0  0  0  0  0  0  0  0  0  0  0  0
    4.8162   -1.5821   43.0531 O   0  0  0  0  0  0  0  0  0  0  0  0
    5.5218   -0.5745   43.7099 C   0  0  0  0  0  0  0  0  0  0  0  0
   -1.4421   -7.3626   45.7281 C   0  0  0  0  0  0  0  0  0  0  0  0
   -2.6797   -8.1485   45.9159 C   0  0  0  0  0  0  0  0  0  0  0  0
   -3.3803   -8.6184   44.7392 C   0  0  0  0  0  0  0  0  0  0  0  0
   -4.5314   -9.4039   44.8421 C   0  0  0  0  0  0  0  0  0  0  0  0
   -5.0251   -9.6645   46.1159 C   0  0  0  0  0  0  0  0  0  0  0  0
   -4.3868   -9.1844   47.2489 C   0  0  0  0  0  0  0  0  0  0  0  0
   -3.2691   -8.4123   47.2073 C   0  0  0  0  0  0  0  0  0  0  0  0
  7 11  1  0
 11 12  1  1
 11 13  1  0
 13 14  1  6
 13 15  1  0
 15 16  1  0
  1 17  1  0
  4 18  1  0
 18 19  1  0
 16 20  1  0
 20 21  1  0
  1  2  2  0
  3  8  2  0
  8  7  1  0
  7  6  2  0
  6  1  1  0
  2  3  1  0
  3  4  1  0
  4  5  2  0
  5  9  1  0
  9 10  2  0
 10  2  1  0
 21 22  2  0
 22 23  1  0
 23 24  2  0
 24 25  1  0
 25 26  2  0
 26 21  1  0
M  END
$$$$
O14757_PocketFlow_idx-in-all-generaetd-108
     RDKit          3D

 35 38  0  0  0  0  0  0  0  0999 V2000
   -0.6395   -2.0713   41.4947 C   0  0  0  0  0  0  0  0  0  0  0  0
    0.6719   -2.2449   41.7518 C   0  0  0  0  0  0  0  0  0  0  0  0
    1.1287   -3.3339   42.4778 C   0  0  0  0  0  0  0  0  0  0  0  0
    0.1404   -4.2568   42.9148 C   0  0  0  0  0  0  0  0  0  0  0  0
    0.5988   -5.3362   43.7192 C   0  0  0  0  0  0  0  0  0  0  0  0
   -0.2919   -6.3271   44.1804 C   0  0  0  0  0  0  0  0  0  0  0  0
   -0.4577   -6.6542   45.5305 C   0  0  0  0  0  0  0  0  0  0  0  0
    0.5436   -6.1482   46.3554 C   0  0  0  0  0  0  0  0  0  0  0  0
    1.4770   -5.1638   45.9602 C   0  0  0  0  0  0  0  0  0  0  0  0
    1.3557   -4.5748   44.6618 C   0  0  0  0  0  0  0  0  0  0  0  0
    1.9774   -3.4129   44.1232 C   0  0  0  0  0  0  0  0  0  0  0  0
    1.7098   -1.3234   41.3486 C   0  0  0  0  0  0  0  0  0  0  0  0
    2.9063   -1.1070   42.0029 C   0  0  0  0  0  0  0  0  0  0  0  0
    3.3681    0.1603   42.4264 C   0  0  0  0  0  0  0  0  0  0  0  0
   -1.3631   -7.6733   46.0219 C   0  0  0  0  0  0  0  0  0  0  0  0
   -1.2374   -8.1426   47.1080 O   0  0  0  0  0  0  0  0  0  0  0  0
   -2.2301   -8.1112   45.1492 O   0  0  0  0  0  0  0  0  0  0  0  0
    4.5986    0.3127   43.2139 C   0  0  0  0  0  0  0  0  0  0  0  0
    5.3307   -0.9390   43.4441 C   0  0  0  0  0  0  0  0  0  0  0  0
    4.7259   -2.1716   43.0573 C   0  0  0  0  0  0  0  0  0  0  0  0
    3.6196   -2.1752   42.4542 C   0  0  0  0  0  0  0  0  0  0  0  0
    6.4401   -0.7887   44.1808 O   0  0  0  0  0  0  0  0  0  0  0  0
    6.6841   -1.6581   45.3000 C   0  0  0  0  0  0  0  0  0  0  0  0
    8.0628   -1.6414   45.7492 C   0  0  0  0  0  0  0  0  0  0  0  0
    8.4165   -2.5024   46.7932 C   0  0  0  0  0  0  0  0  0  0  0  0
    7.5170   -3.4759   47.2380 C   0  0  0  0  0  0  0  0  0  0  0  0
    5.9640   -2.6981   45.7904 C   0  0  0  0  0  0  0  0  0  0  0  0
    6.2720   -3.5140   46.7552 C   0  0  0  0  0  0  0  0  0  0  0  0
    5.3124   -4.5350   47.2466 C   0  0  0  0  0  0  0  0  0  0  0  0
    5.4763   -5.1777   48.3423 O   0  0  0  0  0  0  0  0  0  0  0  0
    4.5549   -5.1237   46.3355 O   0  0  0  0  0  0  0  0  0  0  0  0
   -1.2113   -0.8733   41.4957 O   0  0  0  0  0  0  0  0  0  0  0  0
   -1.5277   -3.0000   41.5423 O   0  0  0  0  0  0  0  0  0  0  0  0
    9.7970   -2.3769   47.3505 C   0  0  0  0  0  0  0  0  0  0  0  0
    9.8981   -2.1490   48.6939 C   0  0  0  0  0  0  0  0  0  0  0  0
  1  2  1  0
  2  3  2  3
  3  4  1  0
  4  5  1  0
  3 11  1  0
 10 11  1  0
  2 12  1  0
 12 13  1  0
  7 15  1  0
 15 16  2  0
 15 17  1  0
 19 22  1  0
 22 23  1  0
 28 29  1  0
 29 30  1  0
 29 31  2  0
  1 32  2  0
  1 33  1  0
 25 34  1  0
 34 35  1  0
  5  6  2  0
  6  7  1  0
  7  8  2  0
  8  9  1  0
  9 10  2  0
 10  5  1  0
 23 24  2  0
 24 25  1  0
 25 26  2  0
 26 28  1  0
 28 27  2  0
 27 23  1  0
 13 14  2  0
 14 18  1  0
 18 19  2  0
 19 20  1  0
 20 21  2  0
 21 13  1  0
M  END
$$$$
O14757_PocketFlow_idx-in-all-generaetd-109
     RDKit          3D

 35 39  0  0  0  0  0  0  0  0999 V2000
   -0.6395   -2.0713   41.4947 C   0  0  0  0  0  0  0  0  0  0  0  0
   -0.2671   -3.2464   41.6546 C   0  0  0  0  0  0  0  0  0  0  0  0
    0.2277   -0.9875   41.6495 C   0  0  0  0  0  0  0  0  0  0  0  0
    1.6284   -1.2752   41.8841 C   0  0  0  0  0  0  0  0  0  0  0  0
    1.9209   -2.6657   42.2361 C   0  0  0  0  0  0  0  0  0  0  0  0
    0.9459   -3.6290   42.1337 C   0  0  0  0  0  0  0  0  0  0  0  0
    2.5663   -0.2443   42.1477 C   0  0  0  0  0  0  0  0  0  0  0  0
    3.9004   -0.5388   42.5613 C   0  0  0  0  0  0  0  0  0  0  0  0
    4.3732   -0.4502   43.6237 C   0  0  0  0  0  0  0  0  0  0  0  0
    5.7542   -0.9409   44.0083 C   0  0  0  0  0  0  0  0  0  0  0  0
   -1.9605   -1.7584   41.1108 N   0  0  0  0  0  0  0  0  0  0  0  0
    5.8996   -1.9631   45.0146 C   0  0  0  0  0  0  0  0  0  0  0  0
    5.0018   -2.9733   45.2240 C   0  0  0  0  0  0  0  0  0  0  0  0
    5.3686   -3.9277   46.2055 C   0  0  0  0  0  0  0  0  0  0  0  0
    6.5423   -3.8462   46.9832 C   0  0  0  0  0  0  0  0  0  0  0  0
    7.4590   -2.7929   46.6476 C   0  0  0  0  0  0  0  0  0  0  0  0
    7.2401   -1.9034   45.6749 C   0  0  0  0  0  0  0  0  0  0  0  0
    6.8640   -4.7960   48.0228 C   0  0  0  0  0  0  0  0  0  0  0  0
    7.4947   -4.2686   49.1373 C   0  0  0  0  0  0  0  0  0  0  0  0
    6.8320   -3.9887   50.3157 C   0  0  0  0  0  0  0  0  0  0  0  0
    7.5444   -3.2631   51.3823 C   0  0  0  0  0  0  0  0  0  0  0  0
    8.9183   -2.8612   51.0947 C   0  0  0  0  0  0  0  0  0  0  0  0
    9.4902   -3.0886   49.9277 C   0  0  0  0  0  0  0  0  0  0  0  0
    8.7957   -3.7370   48.9148 C   0  0  0  0  0  0  0  0  0  0  0  0
    9.5759   -2.1147   52.2177 C   0  0  0  0  0  0  0  0  0  0  0  0
   10.2370   -0.9700   51.8502 C   0  0  0  0  0  0  0  0  0  0  0  0
   10.4040   -0.6001   50.5879 C   0  0  0  0  0  0  0  0  0  0  0  0
   10.1533   -1.6612   49.5414 C   0  0  0  0  0  0  0  0  0  0  0  0
   -2.8140   -2.6356   40.6025 C   0  0  0  0  0  0  0  0  0  0  0  0
   -2.5345   -0.4231   41.3536 C   0  0  0  0  0  0  0  0  0  0  0  0
   -3.8109   -0.1874   40.8744 C   0  0  1  0  0  0  0  0  0  0  0  0
   -4.2344    1.0845   41.0390 O   0  0  0  0  0  0  0  0  0  0  0  0
   -4.5414   -1.1250   40.1967 C   0  0  0  0  0  0  0  0  0  0  0  0
   -4.0230   -2.3071   40.1031 N   0  0  0  0  0  0  0  0  0  0  0  0
   10.6276   -1.5208   48.1850 C   0  0  0  0  0  0  0  0  0  0  0  0
  4  7  1  0
  7  8  1  0
  8  9  2  3
  9 10  1  0
  1 11  1  0
 10 12  1  0
 15 18  1  0
 18 19  1  0
 11 29  1  0
 11 30  1  0
 30 31  1  0
 31 32  1  6
 31 33  1  0
 29 34  1  0
 33 34  1  0
 28 35  1  0
 12 13  2  0
 13 14  1  0
 14 15  2  0
 15 16  1  0
 16 17  2  0
 17 12  1  0
 23 28  1  0
 28 27  2  0
 27 26  1  0
 26 25  2  0
 25 22  1  0
 19 20  2  0
 20 21  1  0
 21 22  2  0
 22 23  1  0
 23 24  2  0
 24 19  1  0
  1  2  2  0
  2  6  1  0
  6  5  2  0
  5  4  1  0
  4  3  2  0
  3  1  1  0
M  END
$$$$
O14757_PocketFlow_idx-in-all-generaetd-110
     RDKit          3D

  5  4  0  0  0  0  0  0  0  0999 V2000
   -0.6395   -2.0713   41.4947 C   0  0  0  0  0  0  0  0  0  0  0  0
   -1.1394   -2.9333   41.2695 F   0  0  0  0  0  0  0  0  0  0  0  0
    0.6745   -2.1051   41.6934 F   0  0  0  0  0  0  0  0  0  0  0  0
   -1.1783   -1.4314   42.6796 F   0  0  0  0  0  0  0  0  0  0  0  0
   -0.9822   -0.9391   40.7456 F   0  0  0  0  0  0  0  0  0  0  0  0
  1  2  1  0
  1  3  1  0
  1  4  1  0
  1  5  1  0
M  END
$$$$
O14757_PocketFlow_idx-in-all-generaetd-111
     RDKit          3D

 22 24  0  0  0  0  0  0  0  0999 V2000
    0.2881   -2.9111   42.4378 C   0  0  0  0  0  0  0  0  0  0  0  0
   -0.0650   -2.5021   41.5798 C   0  0  0  0  0  0  0  0  0  0  0  0
    1.5584   -2.5265   43.0885 C   0  0  0  0  0  0  0  0  0  0  0  0
    2.2470   -3.1944   44.1996 C   0  0  0  0  0  0  0  0  0  0  0  0
    3.5140   -2.9109   44.5638 C   0  0  0  0  0  0  0  0  0  0  0  0
    4.1804   -1.8696   43.9016 C   0  0  0  0  0  0  0  0  0  0  0  0
    3.5464   -1.2725   42.7884 C   0  0  0  0  0  0  0  0  0  0  0  0
    2.3180   -1.6100   42.4578 C   0  0  0  0  0  0  0  0  0  0  0  0
    0.6028   -1.3648   40.8894 C   0  0  0  0  0  0  0  0  0  0  0  0
    1.7385   -0.9549   41.3187 C   0  0  0  0  0  0  0  0  0  0  0  0
    1.5324   -4.3327   44.8753 C   0  0  0  0  0  0  0  0  0  0  0  0
    0.4949   -3.8866   45.7612 C   0  0  0  0  0  0  0  0  0  0  0  0
    1.8170   -5.6599   44.7195 C   0  0  0  0  0  0  0  0  0  0  0  0
    1.7464   -6.5133   45.4893 C   0  0  0  0  0  0  0  0  0  0  0  0
   -0.0265   -5.0591   46.6041 C   0  0  0  0  0  0  0  0  0  0  0  0
    0.4972   -6.3373   46.4661 C   0  0  0  0  0  0  0  0  0  0  0  0
    5.5634   -1.5090   44.3884 C   0  0  0  0  0  0  0  0  0  0  0  0
    6.2981   -2.3273   45.2927 C   0  0  0  0  0  0  0  0  0  0  0  0
    7.6458   -1.9925   45.7265 C   0  0  0  0  0  0  0  0  0  0  0  0
    8.0118   -0.7321   45.7444 C   0  0  0  0  0  0  0  0  0  0  0  0
    9.3661   -0.5294   46.2557 C   0  0  0  0  0  0  0  0  0  0  0  0
   10.1536   -1.6456   46.6789 C   0  0  0  0  0  0  0  0  0  0  0  0
  4 11  1  0
  6 17  1  0
 17 18  2  3
 18 19  1  0
 19 20  2  3
 20 21  1  0
 21 22  2  0
 11 12  2  0
 12 15  1  0
 15 16  2  0
 16 14  1  0
 14 13  2  0
 13 11  1  0
  1  2  2  0
  2  9  1  0
  9 10  2  0
 10  8  1  0
  3  1  1  0
  3  4  2  0
  4  5  1  0
  5  6  2  0
  6  7  1  0
  7  8  2  0
  8  3  1  0
M  END
$$$$
O14757_PocketFlow_idx-in-all-generaetd-112
     RDKit          3D

 28 30  0  0  0  0  0  0  0  0999 V2000
   -0.6395   -2.0713   41.4947 C   0  0  0  0  0  0  0  0  0  0  0  0
    0.1859   -1.1027   41.5970 C   0  0  0  0  0  0  0  0  0  0  0  0
   -2.0077   -1.8651   41.2044 C   0  0  0  0  0  0  0  0  0  0  0  0
    1.5974   -1.2445   41.7640 C   0  0  0  0  0  0  0  0  0  0  0  0
    2.5563   -0.2262   41.8331 C   0  0  0  0  0  0  0  0  0  0  0  0
    3.8717   -0.4554   42.2584 C   0  0  0  0  0  0  0  0  0  0  0  0
    4.1299   -1.6986   42.9429 C   0  0  0  0  0  0  0  0  0  0  0  0
    3.1038   -2.6042   43.1230 C   0  0  0  0  0  0  0  0  0  0  0  0
    1.8553   -2.3256   42.6160 C   0  0  0  0  0  0  0  0  0  0  0  0
    3.4605   -3.7984   43.9324 C   0  0  0  0  0  0  0  0  0  0  0  0
    4.4974   -3.8840   44.7882 C   0  0  0  0  0  0  0  0  0  0  0  0
    5.4689   -2.7739   44.7112 C   0  0  0  0  0  0  0  0  0  0  0  0
    5.3690   -1.6987   43.8240 C   0  0  0  0  0  0  0  0  0  0  0  0
   -2.6415   -1.7320   39.9610 C   0  0  0  0  0  0  0  0  0  0  0  0
   -2.5522   -2.8425   39.2403 C   0  0  0  0  0  0  0  0  0  0  0  0
    2.3590   -4.7982   44.1270 C   0  0  0  0  0  0  0  0  0  0  0  0
    1.8884   -5.0265   45.4952 C   0  0  0  0  0  0  0  0  0  0  0  0
    0.5419   -5.3907   45.6042 C   0  0  0  0  0  0  0  0  0  0  0  0
   -0.0924   -5.7800   44.7172 N   0  0  0  0  0  0  0  0  0  0  0  0
   -0.0812   -7.1762   44.4313 C   0  0  0  0  0  0  0  0  0  0  0  0
   -0.0788   -4.9413   46.7107 O   0  0  0  0  0  0  0  0  0  0  0  0
   -3.3915   -2.7539   38.0741 N   0  0  0  0  0  0  0  0  0  0  0  0
    6.7801   -2.9175   45.4975 C   0  0  0  0  0  0  0  0  0  0  0  0
    7.5975   -1.8146   45.6647 C   0  0  0  0  0  0  0  0  0  0  0  0
    8.8146   -1.9037   46.4440 C   0  0  0  0  0  0  0  0  0  0  0  0
    9.0548   -3.0640   47.1396 C   0  0  0  0  0  0  0  0  0  0  0  0
    8.0879   -4.1412   47.0214 C   0  0  0  0  0  0  0  0  0  0  0  0
    7.0053   -4.0214   46.3085 C   0  0  0  0  0  0  0  0  0  0  0  0
  1  2  2  3
  1  3  1  0
  2  4  1  0
  3 14  1  0
 14 15  2  3
 10 16  1  0
 16 17  1  0
 17 18  1  0
 18 19  1  0
 19 20  1  0
 18 21  2  0
 15 22  1  0
 12 23  1  0
 23 24  2  0
 24 25  1  0
 25 26  2  0
 26 27  1  0
 27 28  2  0
 28 23  1  0
  8 10  1  0
 10 11  2  0
 11 12  1  0
 12 13  2  0
 13  7  1  0
  4  5  2  0
  5  6  1  0
  6  7  2  0
  7  8  1  0
  8  9  2  0
  9  4  1  0
M  END
$$$$
O14757_PocketFlow_idx-in-all-generaetd-113
     RDKit          3D

 27 28  0  0  0  0  0  0  0  0999 V2000
   -0.6395   -2.0713   41.4947 C   0  0  0  0  0  0  0  0  0  0  0  0
    0.6719   -2.2449   41.7518 C   0  0  0  0  0  0  0  0  0  0  0  0
    1.5951   -1.1948   41.6106 C   0  0  0  0  0  0  0  0  0  0  0  0
    2.9587   -1.3961   42.0240 C   0  0  0  0  0  0  0  0  0  0  0  0
    3.8815   -0.3441   42.0598 C   0  0  0  0  0  0  0  0  0  0  0  0
   -1.5492   -3.1120   41.4053 C   0  0  0  0  0  0  0  0  0  0  0  0
   -0.9108   -4.3541   41.3985 N   0  0  0  0  0  0  0  0  0  0  0  0
    5.1035   -0.5716   42.7950 C   0  0  0  0  0  0  0  0  0  0  0  0
    5.2414   -1.7498   43.5926 C   0  0  0  0  0  0  0  0  0  0  0  0
    4.2233   -2.7238   43.5676 C   0  0  0  0  0  0  0  0  0  0  0  0
    3.0503   -2.5041   42.9107 C   0  0  0  0  0  0  0  0  0  0  0  0
    4.3947   -3.9308   44.3901 C   0  0  0  0  0  0  0  0  0  0  0  0
    3.8566   -4.3068   45.4344 N   0  0  0  0  0  0  0  0  0  0  0  0
    2.6749   -4.7006   45.6506 C   0  0  0  0  0  0  0  0  0  0  0  0
    2.1901   -5.7769   45.1526 C   0  0  0  0  0  0  0  0  0  0  0  0
    0.7629   -6.0149   45.0807 C   0  0  0  0  0  0  0  0  0  0  0  0
    0.2214   -7.0728   44.8387 C   0  0  0  0  0  0  0  0  0  0  0  0
   -1.2106   -7.1392   44.6258 C   0  0  0  0  0  0  0  0  0  0  0  0
    4.8041   -4.0673   46.6528 C   0  0  0  0  0  0  0  0  0  0  0  0
    5.4192   -5.2438   47.2264 C   0  0  0  0  0  0  0  0  0  0  0  0
    6.2666   -4.9806   48.2092 C   0  0  0  0  0  0  0  0  0  0  0  0
    6.2168   -5.7467   49.3124 N   0  0  0  0  0  0  0  0  0  0  0  0
   -1.7485   -8.1658   43.8989 C   0  0  0  0  0  0  0  0  0  0  0  0
   -2.7945   -3.0192   40.8780 N   0  0  0  0  0  0  0  0  0  0  0  0
   -1.2149   -0.6806   41.3902 C   0  0  0  0  0  0  0  0  0  0  0  0
   -2.6343   -0.5804   41.1635 C   0  0  0  0  0  0  0  0  0  0  0  0
   -3.3250   -1.7104   40.8459 C   0  0  0  0  0  0  0  0  0  0  0  0
  1  2  1  0
  2  3  2  3
  3  4  1  0
  6  7  1  0
 10 12  1  0
 12 13  1  0
 13 14  1  0
 14 15  1  0
 15 16  1  0
 16 17  2  3
 17 18  1  0
 13 19  1  0
 19 20  1  0
 20 21  1  0
 21 22  1  0
 18 23  1  0
  4  5  2  0
  5  8  1  0
  8  9  2  0
  9 10  1  0
 10 11  2  0
 11  4  1  0
  1  6  2  0
  6 24  1  0
 24 27  2  0
 27 26  1  0
 26 25  2  0
 25  1  1  0
M  END
$$$$
O14757_PocketFlow_idx-in-all-generaetd-114
     RDKit          3D

 14 15  0  0  0  0  0  0  0  0999 V2000
   -0.6395   -2.0713   41.4947 C   0  0  0  0  0  0  0  0  0  0  0  0
    0.1859   -1.1027   41.5970 C   0  0  0  0  0  0  0  0  0  0  0  0
    1.5836   -1.3270   41.4670 C   0  0  0  0  0  0  0  0  0  0  0  0
   -0.1523   -3.2959   41.2401 C   0  0  0  0  0  0  0  0  0  0  0  0
    2.5828   -0.2890   41.7481 C   0  0  0  0  0  0  0  0  0  0  0  0
    3.9166   -0.6018   41.9590 C   0  0  0  0  0  0  0  0  0  0  0  0
    4.7638    0.4013   42.4945 C   0  0  0  0  0  0  0  0  0  0  0  0
   -1.0821   -4.3593   41.2264 N   0  0  0  0  0  0  0  0  0  0  0  0
    1.8100   -2.6483   41.3101 C   0  0  0  0  0  0  0  0  0  0  0  0
    1.1066   -3.5172   41.2169 C   0  0  0  0  0  0  0  0  0  0  0  0
    5.9325   -0.1808   43.1971 C   0  0  0  0  0  0  0  0  0  0  0  0
    5.7549   -1.3507   44.0413 C   0  0  0  0  0  0  0  0  0  0  0  0
    4.7492   -2.2978   43.7143 C   0  0  0  0  0  0  0  0  0  0  0  0
    3.6842   -1.8034   42.8499 C   0  0  0  0  0  0  0  0  0  0  0  0
  3  5  1  0
  5  6  1  0
  4  8  1  0
  1  2  2  0
  2  3  1  0
  3  9  2  0
  9 10  1  0
 10  4  2  0
  4  1  1  0
  6  7  2  0
  7 11  1  0
 11 12  2  0
 12 13  1  0
 13 14  2  0
 14  6  1  0
M  END
$$$$
O14757_PocketFlow_idx-in-all-generaetd-115
     RDKit          3D

 29 33  0  0  0  0  0  0  0  0999 V2000
   -0.8794   -1.9236   41.9357 O   0  0  0  0  0  0  0  0  0  0  0  0
    0.3182   -2.2442   41.7073 C   0  0  0  0  0  0  0  0  0  0  0  0
    1.3766   -1.3498   41.6019 C   0  0  0  0  0  0  0  0  0  0  0  0
    2.6423   -1.6963   42.1387 C   0  0  0  0  0  0  0  0  0  0  0  0
    3.6599   -0.7394   42.2848 C   0  0  0  0  0  0  0  0  0  0  0  0
    3.3335    0.6420   42.1890 C   0  0  0  0  0  0  0  0  0  0  0  0
    0.4715   -3.4515   41.0724 O   0  0  0  0  0  0  0  0  0  0  0  0
    2.0442    0.9325   41.8238 N   0  0  0  0  0  0  0  0  0  0  0  0
    1.1113    0.0077   41.6021 C   0  0  0  0  0  0  0  0  0  0  0  0
    4.9533   -1.1326   42.8271 C   0  0  0  0  0  0  0  0  0  0  0  0
    4.9640   -2.2028   43.8504 C   0  0  0  0  0  0  0  0  0  0  0  0
    5.7892   -2.1986   44.9296 C   0  0  0  0  0  0  0  0  0  0  0  0
    5.7524   -3.1735   45.9114 C   0  0  0  0  0  0  0  0  0  0  0  0
    6.6755   -3.2040   46.9789 C   0  0  0  0  0  0  0  0  0  0  0  0
    7.8267   -3.2692   46.8207 C   0  0  0  0  0  0  0  0  0  0  0  0
    8.7999   -3.5069   47.8636 C   0  0  0  0  0  0  0  0  0  0  0  0
    8.2510   -3.8758   49.1029 C   0  0  0  0  0  0  0  0  0  0  0  0
    6.8621   -3.9903   49.2780 C   0  0  0  0  0  0  0  0  0  0  0  0
    6.0580   -3.7097   48.1851 C   0  0  0  0  0  0  0  0  0  0  0  0
    4.5948   -4.0030   45.7366 C   0  0  0  0  0  0  0  0  0  0  0  0
    3.6854   -3.9503   44.7333 C   0  0  0  0  0  0  0  0  0  0  0  0
    2.5677   -4.7792   44.6145 C   0  0  0  0  0  0  0  0  0  0  0  0
    3.8729   -3.0008   43.8414 C   0  0  0  0  0  0  0  0  0  0  0  0
    1.2416   -4.3468   44.4070 C   0  0  0  0  0  0  0  0  0  0  0  0
    0.1411   -5.1733   44.3824 C   0  0  0  0  0  0  0  0  0  0  0  0
    0.3940   -6.5389   44.5142 C   0  0  0  0  0  0  0  0  0  0  0  0
    1.6652   -7.0409   44.8008 C   0  0  0  0  0  0  0  0  0  0  0  0
    2.7455   -6.1963   44.9002 C   0  0  0  0  0  0  0  0  0  0  0  0
    2.7327   -2.6748   42.9675 C   0  0  0  0  0  0  0  0  0  0  0  0
  1  2  1  0
  2  3  1  0
  2  7  2  0
  5 10  1  0
 10 11  1  0
 13 14  1  0
 21 22  1  0
  4 29  1  0
 23 29  1  0
  3  4  2  0
  4  5  1  0
  5  6  2  0
  6  8  1  0
  8  9  2  0
  9  3  1  0
 11 12  2  0
 12 13  1  0
 13 20  2  0
 20 21  1  0
 21 23  2  0
 23 11  1  0
 22 24  2  0
 24 25  1  0
 25 26  2  0
 26 27  1  0
 27 28  2  0
 28 22  1  0
 14 15  2  0
 15 16  1  0
 16 17  2  0
 17 18  1  0
 18 19  2  0
 19 14  1  0
M  END
$$$$
O14757_PocketFlow_idx-in-all-generaetd-116
     RDKit          3D

 29 33  0  0  0  0  0  0  0  0999 V2000
    0.2881   -2.9111   42.4378 C   0  0  0  0  0  0  0  0  0  0  0  0
    1.3023   -2.0648   42.1981 C   0  0  0  0  0  0  0  0  0  0  0  0
    2.5313   -2.2887   42.6989 C   0  0  0  0  0  0  0  0  0  0  0  0
    3.5918   -1.3644   42.5325 C   0  0  0  0  0  0  0  0  0  0  0  0
    3.3299   -0.0611   42.1413 C   0  0  0  0  0  0  0  0  0  0  0  0
    0.5929   -4.0815   43.1930 C   0  0  0  0  0  0  0  0  0  0  0  0
    1.7551   -4.1680   43.9291 C   0  0  0  0  0  0  0  0  0  0  0  0
    2.7954   -3.2398   43.7094 C   0  0  0  0  0  0  0  0  0  0  0  0
    2.0550    0.2526   41.5967 C   0  0  0  0  0  0  0  0  0  0  0  0
    0.9903   -0.7081   41.6973 C   0  0  0  0  0  0  0  0  0  0  0  0
    1.9564   -5.3534   44.7982 C   0  0  2  0  0  0  0  0  0  0  0  0
    1.0733   -5.5357   45.8513 C   0  0  0  0  0  0  0  0  0  0  0  0
    0.3773   -6.8030   45.8200 C   0  0  0  0  0  0  0  0  0  0  0  0
   -0.8620   -6.8143   46.4949 C   0  0  0  0  0  0  0  0  0  0  0  0
   -1.5857   -8.0533   46.5647 C   0  0  0  0  0  0  0  0  0  0  0  0
   -1.4269   -8.8895   47.2792 C   0  0  0  0  0  0  0  0  0  0  0  0
   -2.8243   -8.0438   45.7178 C   0  0  0  0  0  0  0  0  0  0  0  0
   -2.7852   -7.4338   44.4563 C   0  0  0  0  0  0  0  0  0  0  0  0
   -2.8143   -8.4930   43.4402 C   0  0  0  0  0  0  0  0  0  0  0  0
   -2.2581   -9.8435   47.8746 C   0  0  0  0  0  0  0  0  0  0  0  0
   -3.4589   -9.3557   45.8669 C   0  0  0  0  0  0  0  0  0  0  0  0
   -3.4203  -10.0719   47.0523 C   0  0  0  0  0  0  0  0  0  0  0  0
    4.0671   -3.4828   44.3291 C   0  0  0  0  0  0  0  0  0  0  0  0
    4.6597   -4.4386   44.7767 C   0  0  0  0  0  0  0  0  0  0  0  0
    3.9471   -5.5780   45.4014 C   0  0  0  0  0  0  0  0  0  0  0  0
    3.4724   -5.5634   45.2034 C   0  0  1  0  0  0  0  0  0  0  0  0
   -4.4538   -9.6694   44.8648 C   0  0  0  0  0  0  0  0  0  0  0  0
   -4.2293   -9.0446   43.4561 C   0  0  0  0  0  0  0  0  0  0  0  0
    3.2763   -7.1017   45.2976 F   0  0  0  0  0  0  0  0  0  0  0  0
  7 11  1  0
 11 12  1  1
 12 13  1  0
 13 14  1  0
 14 15  1  0
 17 18  1  0
 18 19  1  0
  8 23  1  0
 23 24  2  0
 24 25  1  0
 11 26  1  0
 25 26  1  0
 21 27  1  0
 19 28  1  0
 27 28  1  0
 26 29  1  1
  1  2  2  0
  3  8  2  0
  8  7  1  0
  7  6  2  0
  6  1  1  0
  2  3  1  0
  3  4  1  0
  4  5  2  0
  5  9  1  0
  9 10  2  0
 10  2  1  0
 15 16  2  0
 16 20  1  0
 20 22  2  0
 22 21  1  0
 21 17  2  0
 17 15  1  0
M  END
$$$$
O14757_PocketFlow_idx-in-all-generaetd-117
     RDKit          3D

 10 10  0  0  0  0  0  0  0  0999 V2000
    0.2881   -2.9111   42.4378 C   0  0  0  0  0  0  0  0  0  0  0  0
   -0.0650   -2.5021   41.5798 C   0  0  0  0  0  0  0  0  0  0  0  0
    1.6108   -3.5167   42.6657 C   0  0  0  0  0  0  0  0  0  0  0  0
    2.0262   -4.1022   43.9169 C   0  0  0  0  0  0  0  0  0  0  0  0
    3.3116   -4.3084   44.3274 C   0  0  0  0  0  0  0  0  0  0  0  0
    3.6450   -5.1190   45.4311 C   0  0  0  0  0  0  0  0  0  0  0  0
   -1.4394   -2.0612   41.3929 C   0  0  0  0  0  0  0  0  0  0  0  0
    2.5476   -5.6667   46.0877 C   0  0  0  0  0  0  0  0  0  0  0  0
    1.2661   -5.5240   45.7305 C   0  0  0  0  0  0  0  0  0  0  0  0
    0.9667   -4.7252   44.5486 C   0  0  0  0  0  0  0  0  0  0  0  0
  1  2  2  3
  1  3  1  0
  3  4  1  0
  2  7  1  0
  4  5  2  0
  5  6  1  0
  6  8  2  0
  8  9  1  0
  9 10  2  0
 10  4  1  0
M  END
$$$$
O14757_PocketFlow_idx-in-all-generaetd-118
     RDKit          3D

 14 15  0  0  0  0  0  0  0  0999 V2000
   -0.6395   -2.0713   41.4947 C   0  0  0  0  0  0  0  0  0  0  0  0
    0.1859   -1.1027   41.5970 C   0  0  0  0  0  0  0  0  0  0  0  0
    1.5836   -1.3270   41.4670 C   0  0  0  0  0  0  0  0  0  0  0  0
   -0.2462   -3.3905   41.2409 C   0  0  0  0  0  0  0  0  0  0  0  0
    2.0075   -2.6977   41.3341 C   0  0  0  0  0  0  0  0  0  0  0  0
    1.0655   -3.6470   41.1373 C   0  0  0  0  0  0  0  0  0  0  0  0
    2.5661   -0.2728   41.7199 C   0  0  0  0  0  0  0  0  0  0  0  0
    2.5392    0.8265   41.8723 N   0  0  0  0  0  0  0  0  0  0  0  0
    3.8052   -0.8545   42.4646 C   0  0  0  0  0  0  0  0  0  0  0  0
    4.5702   -0.1959   43.1184 C   0  0  0  0  0  0  0  0  0  0  0  0
    5.7437   -0.7806   43.7038 C   0  0  0  0  0  0  0  0  0  0  0  0
    5.5960   -2.1358   44.1322 C   0  0  0  0  0  0  0  0  0  0  0  0
    4.5463   -2.8889   43.5587 C   0  0  0  0  0  0  0  0  0  0  0  0
    3.6461   -2.2826   42.8627 C   0  0  0  0  0  0  0  0  0  0  0  0
  3  7  1  0
  7  8  2  0
  7  9  1  0
  1  2  2  0
  2  3  1  0
  3  5  2  0
  5  6  1  0
  6  4  2  0
  4  1  1  0
  9 10  2  0
 10 11  1  0
 11 12  2  0
 12 13  1  0
 13 14  2  0
 14  9  1  0
M  END
$$$$
O14757_PocketFlow_idx-in-all-generaetd-119
     RDKit          3D

 35 38  0  0  0  0  0  0  0  0999 V2000
   -0.6395   -2.0713   41.4947 C   0  0  0  0  0  0  0  0  0  0  0  0
    0.1859   -1.1027   41.5970 C   0  0  0  0  0  0  0  0  0  0  0  0
    1.5858   -1.4430   41.9548 C   0  0  0  0  0  0  0  0  0  0  0  0
    2.6622   -0.5501   42.0082 C   0  0  0  0  0  0  0  0  0  0  0  0
    3.8608   -0.8421   42.6622 C   0  0  0  0  0  0  0  0  0  0  0  0
    4.8744    0.0633   42.9841 C   0  0  0  0  0  0  0  0  0  0  0  0
   -0.2676   -3.4159   41.4925 C   0  0  0  0  0  0  0  0  0  0  0  0
    1.0166   -3.7682   41.8672 C   0  0  0  0  0  0  0  0  0  0  0  0
    1.9398   -2.7681   42.0430 C   0  0  0  0  0  0  0  0  0  0  0  0
   -2.4780   -1.7084   41.0371 Br  0  0  0  0  0  0  0  0  0  0  0  0
    5.9771   -0.4397   43.6607 C   0  0  0  0  0  0  0  0  0  0  0  0
    5.8459   -1.5224   44.5697 C   0  0  0  0  0  0  0  0  0  0  0  0
    4.8009   -2.4358   44.2675 C   0  0  0  0  0  0  0  0  0  0  0  0
    3.8294   -2.0438   43.4600 C   0  0  0  0  0  0  0  0  0  0  0  0
    2.8059   -2.9201   43.0661 N   0  0  0  0  0  0  0  0  0  0  0  0
    4.8263   -3.7071   44.9791 C   0  0  0  0  0  0  0  0  0  0  0  0
    4.3483   -3.8778   46.0746 N   0  0  0  0  0  0  0  0  0  0  0  0
    4.7287   -3.0765   47.1112 C   0  0  0  0  0  0  0  0  0  0  0  0
    4.2695   -5.2934   46.4897 C   0  0  0  0  0  0  0  0  0  0  0  0
    7.2311   -1.8694   45.5255 Cl  0  0  0  0  0  0  0  0  0  0  0  0
    2.4902    0.6601   41.4876 O   0  0  0  0  0  0  0  0  0  0  0  0
    3.2228   -5.9763   45.8321 C   0  0  0  0  0  0  0  0  0  0  0  0
    2.3392   -5.3488   45.0075 C   0  0  0  0  0  0  0  0  0  0  0  0
    1.1897   -6.1567   44.5056 C   0  0  0  0  0  0  0  0  0  0  0  0
    0.0112   -6.1499   45.3851 C   0  0  2  0  0  0  0  0  0  0  0  0
   -0.9226   -7.2585   45.0821 C   0  0  2  0  0  0  0  0  0  0  0  0
   -1.3234   -8.0893   46.1775 C   0  0  0  0  0  0  0  0  0  0  0  0
   -0.9225   -7.7171   47.2917 C   0  0  0  0  0  0  0  0  0  0  0  0
   -0.1874   -6.5028   47.5212 C   0  0  0  0  0  0  0  0  0  0  0  0
   -0.5077   -4.8918   45.7806 C   0  0  0  0  0  0  0  0  0  0  0  0
   -0.2923   -5.2258   47.0635 C   0  0  2  0  0  0  0  0  0  0  0  0
   -1.1185   -7.5426   43.8426 O   0  0  0  0  0  0  0  0  0  0  0  0
   -2.0990   -9.2408   45.8843 C   0  0  0  0  0  0  0  0  0  0  0  0
    0.9347   -6.6946   45.8184 F   0  0  0  0  0  0  0  0  0  0  0  0
    0.0343   -4.1657   47.7317 O   0  0  0  0  0  0  0  0  0  0  0  0
  3  4  1  0
  4  5  1  0
  1 10  1  0
  9 15  1  0
 14 15  1  0
 13 16  1  0
 16 17  1  0
 17 18  1  0
 17 19  1  0
 12 20  1  0
  4 21  2  0
 19 22  1  0
 22 23  2  3
 23 24  1  0
 24 25  1  0
 25 26  1  0
 26 27  1  0
 27 28  1  0
 28 29  2  0
 25 30  1  0
 29 31  1  0
 30 31  1  0
 26 32  1  6
 27 33  1  0
 25 34  1  1
 31 35  1  6
  1  2  2  0
  2  3  1  0
  3  9  2  0
  9  8  1  0
  8  7  2  0
  7  1  1  0
  5  6  2  0
  6 11  1  0
 11 12  2  0
 12 13  1  0
 13 14  2  0
 14  5  1  0
M  END
$$$$
O14757_PocketFlow_idx-in-all-generaetd-120
     RDKit          3D

 35 41  0  0  0  0  0  0  0  0999 V2000
   -0.6395   -2.0713   41.4947 C   0  0  0  0  0  0  0  0  0  0  0  0
    0.1859   -1.1027   41.5970 C   0  0  0  0  0  0  0  0  0  0  0  0
    1.5858   -1.4431   41.9548 C   0  0  0  0  0  0  0  0  0  0  0  0
    1.6955   -2.6772   42.6484 C   0  0  0  0  0  0  0  0  0  0  0  0
    0.6232   -3.6308   42.6496 C   0  0  0  0  0  0  0  0  0  0  0  0
    0.7968   -4.7734   43.3818 C   0  0  0  0  0  0  0  0  0  0  0  0
   -0.5331   -3.2827   42.1159 C   0  0  0  0  0  0  0  0  0  0  0  0
    1.7363   -4.9894   44.4617 C   0  0  0  0  0  0  0  0  0  0  0  0
    1.6265   -6.0472   45.3003 C   0  0  0  0  0  0  0  0  0  0  0  0
    2.6947   -6.2231   46.1490 C   0  0  0  0  0  0  0  0  0  0  0  0
    3.8652   -5.3626   46.1650 C   0  0  0  0  0  0  0  0  0  0  0  0
    3.8829   -4.2981   45.2705 C   0  0  0  0  0  0  0  0  0  0  0  0
    2.8589   -4.1290   44.3421 C   0  0  0  0  0  0  0  0  0  0  0  0
    2.8505   -2.9658   43.5343 C   0  0  0  0  0  0  0  0  0  0  0  0
    2.5644   -0.3660   42.0391 C   0  0  0  0  0  0  0  0  0  0  0  0
    3.3103    0.1303   43.0829 C   0  0  2  0  0  0  0  0  0  0  0  0
    4.5037    0.7571   42.6803 N   0  0  0  0  0  0  0  0  0  0  0  0
    5.0844   -3.3889   45.3156 C   0  0  0  0  0  0  0  0  0  0  0  0
    6.2441   -3.6418   46.0164 C   0  0  0  0  0  0  0  0  0  0  0  0
    7.2908   -2.6688   45.9975 C   0  0  0  0  0  0  0  0  0  0  0  0
    7.1392   -1.5062   45.2047 C   0  0  0  0  0  0  0  0  0  0  0  0
    5.9037   -1.3084   44.5090 C   0  0  0  0  0  0  0  0  0  0  0  0
    4.9257   -2.1904   44.5885 C   0  0  0  0  0  0  0  0  0  0  0  0
    3.9182   -2.0276   43.6489 C   0  0  2  0  0  0  0  0  0  0  0  0
    8.5430   -2.9161   46.7104 C   0  0  0  0  0  0  0  0  0  0  0  0
    8.8553   -4.2055   47.1924 C   0  0  0  0  0  0  0  0  0  0  0  0
   10.0966   -4.4819   47.6417 C   0  0  0  0  0  0  0  0  0  0  0  0
    9.5574   -2.0044   46.7922 C   0  0  0  0  0  0  0  0  0  0  0  0
   10.7728   -2.1686   47.3476 C   0  0  0  0  0  0  0  0  0  0  0  0
   11.0746   -3.4457   47.8118 C   0  0  0  0  0  0  0  0  0  0  0  0
    3.3462   -0.4829   44.0925 O   0  0  0  0  0  0  0  0  0  0  0  0
   -2.0683   -1.7498   40.9825 C   0  0  0  0  0  0  0  0  0  0  0  0
   -2.7913   -2.6667   40.4585 O   0  0  0  0  0  0  0  0  0  0  0  0
   -2.5033   -0.5385   41.0809 O   0  0  0  0  0  0  0  0  0  0  0  0
    0.4991   -6.8841   45.3418 C   0  0  0  0  0  0  0  0  0  0  0  0
  3 15  1  0
 15 16  1  0
 16 17  1  6
 12 18  1  0
 14 24  1  0
 23 24  1  0
 20 25  1  0
 16 31  1  0
 24 31  1  1
  1 32  1  0
 32 33  2  0
 32 34  1  0
  9 35  1  0
 18 19  2  0
 19 20  1  0
 20 21  2  0
 21 22  1  0
 22 23  2  0
 23 18  1  0
 25 26  2  0
 26 27  1  0
 27 30  2  0
 30 29  1  0
 29 28  2  0
 28 25  1  0
  1  2  2  0
  2  3  1  0
  3  4  2  0
  5  7  2  0
  7  1  1  0
  8  9  1  0
  9 10  2  0
 10 11  1  0
 11 12  2  0
 12 13  1  0
  4  5  1  0
  5  6  1  0
  6  8  2  0
  8 13  1  0
 13 14  2  0
 14  4  1  0
M  END
$$$$
O14757_PocketFlow_idx-in-all-generaetd-121
     RDKit          3D

 35 39  0  0  0  0  0  0  0  0999 V2000
   -0.6395   -2.0713   41.4947 C   0  0  0  0  0  0  0  0  0  0  0  0
   -0.2671   -3.2464   41.6546 C   0  0  0  0  0  0  0  0  0  0  0  0
    0.2407   -0.9706   41.5952 C   0  0  0  0  0  0  0  0  0  0  0  0
    1.6195   -1.2958   41.8767 C   0  0  0  0  0  0  0  0  0  0  0  0
    2.6583   -0.3517   42.0703 C   0  0  0  0  0  0  0  0  0  0  0  0
    3.9275   -0.7702   42.5387 C   0  0  0  0  0  0  0  0  0  0  0  0
    3.9444   -2.1081   43.0865 C   0  0  0  0  0  0  0  0  0  0  0  0
    2.8133   -2.9027   43.1780 C   0  0  0  0  0  0  0  0  0  0  0  0
    1.6416   -2.4473   42.6184 C   0  0  0  0  0  0  0  0  0  0  0  0
    0.7194   -3.4978   42.3799 C   0  0  0  0  0  0  0  0  0  0  0  0
    5.0901    0.0414   42.6076 C   0  0  0  0  0  0  0  0  0  0  0  0
   -2.0282   -1.6644   40.9622 C   0  0  0  0  0  0  0  0  0  0  0  0
   -2.6699   -0.5257   41.3043 N   0  0  0  0  0  0  0  0  0  0  0  0
   -2.7893   -2.5306   40.3604 N   0  0  0  0  0  0  0  0  0  0  0  0
   -3.8825   -0.5348   40.6931 C   0  0  0  0  0  0  0  0  0  0  0  0
   -4.0067   -1.7815   40.1061 C   0  0  0  0  0  0  0  0  0  0  0  0
    5.4494    0.4870   43.7496 O   0  0  0  0  0  0  0  0  0  0  0  0
    2.9890   -4.1189   44.0073 C   0  0  0  0  0  0  0  0  0  0  0  0
    4.1770   -4.5392   44.5036 C   0  0  0  0  0  0  0  0  0  0  0  0
    4.1856   -5.7087   45.3297 C   0  0  0  0  0  0  0  0  0  0  0  0
    2.9121   -6.3847   45.5692 C   0  0  0  0  0  0  0  0  0  0  0  0
    1.7729   -5.8987   45.0958 C   0  0  0  0  0  0  0  0  0  0  0  0
    1.7563   -4.6981   44.3435 C   0  0  0  0  0  0  0  0  0  0  0  0
    0.7465   -4.6118   43.2702 N   0  0  0  0  0  0  0  0  0  0  0  0
    0.5105   -6.5876   45.3933 C   0  0  0  0  0  0  0  0  0  0  0  0
   -0.3855   -5.7796   45.9828 F   0  0  0  0  0  0  0  0  0  0  0  0
    0.7481   -7.5898   46.2559 F   0  0  0  0  0  0  0  0  0  0  0  0
   -0.0658   -7.1539   44.3330 F   0  0  0  0  0  0  0  0  0  0  0  0
    5.5694    0.3944   41.4900 O   0  0  0  0  0  0  0  0  0  0  0  0
   -4.6781    0.4397   40.6981 O   0  0  0  0  0  0  0  0  0  0  0  0
    5.2944   -3.8962   44.3866 O   0  0  0  0  0  0  0  0  0  0  0  0
    6.0401   -3.8065   45.5921 C   0  0  0  0  0  0  0  0  0  0  0  0
    6.8577   -2.5256   45.6363 C   0  0  0  0  0  0  0  0  0  0  0  0
    7.9685   -2.4421   46.4255 C   0  0  0  0  0  0  0  0  0  0  0  0
    8.1836   -3.4342   47.3804 C   0  0  0  0  0  0  0  0  0  0  0  0
  6 11  1  0
  1 12  1  0
 12 13  2  0
 12 14  1  0
 13 15  1  0
 14 16  2  0
 15 16  1  0
 11 17  1  0
  8 18  1  0
 10 24  1  0
 23 24  1  0
 22 25  1  0
 25 26  1  0
 25 27  1  0
 25 28  1  0
 11 29  2  0
 15 30  2  0
 19 31  1  0
 31 32  1  0
 32 33  1  0
 33 34  2  3
 34 35  1  0
  1  2  2  0
  2 10  1  0
 10  9  2  0
  4  3  2  0
  3  1  1  0
 18 19  2  0
 19 20  1  0
 20 21  2  0
 21 22  1  0
 22 23  2  0
 23 18  1  0
  4  5  1  0
  5  6  2  0
  6  7  1  0
  7  8  2  0
  8  9  1  0
  9  4  1  0
M  END
$$$$
O14757_PocketFlow_idx-in-all-generaetd-122
     RDKit          3D

 18 19  0  0  0  0  0  0  0  0999 V2000
   -0.8794   -1.9236   41.9357 O   0  0  0  0  0  0  0  0  0  0  0  0
    0.3182   -2.2442   41.7073 C   0  0  1  0  0  0  0  0  0  0  0  0
    1.3766   -1.3498   41.6019 C   0  0  0  0  0  0  0  0  0  0  0  0
    1.0656   -0.0447   41.5628 C   0  0  0  0  0  0  0  0  0  0  0  0
    0.5101   -3.6368   41.6606 N   0  0  0  0  0  0  0  0  0  0  0  0
    2.7055   -1.8469   41.9907 C   0  0  0  0  0  0  0  0  0  0  0  0
    3.7776   -0.8648   42.0451 C   0  0  0  0  0  0  0  0  0  0  0  0
    3.4815    0.4931   42.3150 C   0  0  0  0  0  0  0  0  0  0  0  0
    2.1883    0.9027   41.9812 N   0  0  0  0  0  0  0  0  0  0  0  0
   -0.5208   -4.6330   41.6717 C   0  0  0  0  0  0  0  0  0  0  0  0
    4.9911   -1.3075   42.4942 N   0  0  0  0  0  0  0  0  0  0  0  0
    5.1719   -2.1758   43.5585 C   0  0  0  0  0  0  0  0  0  0  0  0
    6.0955   -1.7822   44.6117 C   0  0  0  0  0  0  0  0  0  0  0  0
    6.2480   -2.7302   45.7036 C   0  0  0  0  0  0  0  0  0  0  0  0
    7.2405   -2.6545   46.6668 C   0  0  0  0  0  0  0  0  0  0  0  0
    8.2660   -1.7171   46.4502 C   0  0  0  0  0  0  0  0  0  0  0  0
    8.1285   -0.7891   45.3470 C   0  0  0  0  0  0  0  0  0  0  0  0
    7.1386   -0.8773   44.4690 C   0  0  0  0  0  0  0  0  0  0  0  0
  2  1  1  1
  2  3  1  0
  2  5  1  0
  5 10  1  0
  7 11  1  0
 11 12  1  0
 12 13  1  0
 13 14  2  0
 14 15  1  0
 15 16  2  0
 16 17  1  0
 17 18  2  0
 18 13  1  0
  3  4  2  0
  4  9  1  0
  9  8  2  0
  8  7  1  0
  7  6  2  0
  6  3  1  0
M  END
$$$$
O14757_PocketFlow_idx-in-all-generaetd-123
     RDKit          3D

 17 19  0  0  0  0  0  0  0  0999 V2000
    0.2881   -2.9111   42.4378 C   0  0  0  0  0  0  0  0  0  0  0  0
    1.1784   -3.4293   42.9321 C   0  0  0  0  0  0  0  0  0  0  0  0
    1.2340   -4.4107   43.9123 C   0  0  0  0  0  0  0  0  0  0  0  0
    2.2208   -4.4317   44.9351 C   0  0  0  0  0  0  0  0  0  0  0  0
    3.3567   -3.5729   44.7214 C   0  0  0  0  0  0  0  0  0  0  0  0
    3.3959   -2.6565   43.7337 C   0  0  0  0  0  0  0  0  0  0  0  0
    2.3097   -2.5040   42.9181 C   0  0  1  0  0  0  0  0  0  0  0  0
   -0.5429   -3.8129   42.0266 F   0  0  0  0  0  0  0  0  0  0  0  0
    0.6244   -1.9455   41.2375 C   0  0  0  0  0  0  0  0  0  0  0  0
    1.9844   -1.5327   41.8251 C   0  0  0  0  0  0  0  0  0  0  0  0
    4.5216   -1.7247   43.6041 C   0  0  0  0  0  0  0  0  0  0  0  0
    5.5581   -1.7606   44.5413 C   0  0  0  0  0  0  0  0  0  0  0  0
    5.5854   -2.8540   45.5092 C   0  0  0  0  0  0  0  0  0  0  0  0
    4.4593   -3.7111   45.6737 C   0  0  0  0  0  0  0  0  0  0  0  0
    6.8056   -2.9690   46.3386 C   0  0  0  0  0  0  0  0  0  0  0  0
    6.9375   -3.9321   47.3306 C   0  0  0  0  0  0  0  0  0  0  0  0
    8.1062   -3.9821   48.0879 C   0  0  0  0  0  0  0  0  0  0  0  0
  1  2  2  0
  2  3  1  0
  3  4  1  0
  4  5  1  0
  2  7  1  0
  6  7  1  0
  1  8  1  0
  1  9  1  0
  7 10  1  6
  9 10  1  0
 13 15  1  0
 15 16  2  3
 16 17  1  0
  5  6  2  0
  6 11  1  0
 11 12  2  0
 12 13  1  0
 13 14  2  0
 14  5  1  0
M  END
$$$$
O14757_PocketFlow_idx-in-all-generaetd-124
     RDKit          3D

 25 27  0  0  0  0  0  0  0  0999 V2000
   -0.6395   -2.0713   41.4947 C   0  0  2  0  0  0  0  0  0  0  0  0
    0.6719   -2.2449   41.7518 C   0  0  0  0  0  0  0  0  0  0  0  0
    1.3815   -1.6359   42.7231 C   0  0  0  0  0  0  0  0  0  0  0  0
   -1.3884   -2.9047   40.6798 C   0  0  0  0  0  0  0  0  0  0  0  0
    2.7413   -2.0881   43.0207 C   0  0  0  0  0  0  0  0  0  0  0  0
    3.8593   -1.2724   42.8875 C   0  0  0  0  0  0  0  0  0  0  0  0
    5.0530   -1.6743   43.6429 C   0  0  0  0  0  0  0  0  0  0  0  0
    5.0282   -2.9291   44.2548 C   0  0  0  0  0  0  0  0  0  0  0  0
    3.9151   -3.7347   44.2570 C   0  0  0  0  0  0  0  0  0  0  0  0
    2.7361   -3.2765   43.7074 C   0  0  0  0  0  0  0  0  0  0  0  0
    3.7561    0.0816   42.3710 C   0  0  0  0  0  0  0  0  0  0  0  0
    3.9108   -5.0638   44.9221 C   0  0  0  0  0  0  0  0  0  0  0  0
    3.0840   -5.2544   45.7864 O   0  0  0  0  0  0  0  0  0  0  0  0
   -2.7012   -2.5983   40.5776 N   0  0  0  0  0  0  0  0  0  0  0  0
   -3.0652   -1.3788   41.0432 C   0  0  0  0  0  0  0  0  0  0  0  0
   -1.5668   -0.9236   41.7498 C   0  0  0  0  0  0  0  0  0  0  0  0
    1.8326   -5.5502   45.3795 C   0  0  2  0  0  0  0  0  0  0  0  0
    0.8505   -4.6430   45.9505 C   0  0  0  0  0  0  0  0  0  0  0  0
    1.3521   -6.5742   44.7421 C   0  0  0  0  0  0  0  0  0  0  0  0
    0.0500   -6.9957   45.0276 C   0  0  0  0  0  0  0  0  0  0  0  0
   -0.4612   -6.9738   46.3186 C   0  0  0  0  0  0  0  0  0  0  0  0
   -0.3835   -5.4780   46.7589 C   0  0  0  0  0  0  0  0  0  0  0  0
    0.2899   -7.6384   47.1818 F   0  0  0  0  0  0  0  0  0  0  0  0
   -1.7671   -7.2458   46.4001 F   0  0  0  0  0  0  0  0  0  0  0  0
   -0.7535   -7.3551   44.0158 O   0  0  0  0  0  0  0  0  0  0  0  0
  1  2  1  0
  2  3  2  3
  1  4  1  6
  3  5  1  0
  6 11  1  0
  9 12  1  0
 12 13  1  0
  4 14  1  0
 14 15  2  0
  1 16  1  0
 15 16  1  0
 17 13  1  1
 17 18  1  0
 17 19  1  0
 19 20  1  0
 20 21  1  0
 18 22  1  0
 21 22  1  0
 21 23  1  0
 21 24  1  0
 20 25  2  0
  5  6  2  0
  6  7  1  0
  7  8  2  0
  8  9  1  0
  9 10  2  0
 10  5  1  0
M  END
$$$$
O14757_PocketFlow_idx-in-all-generaetd-125
     RDKit          3D

 12 12  0  0  0  0  0  0  0  0999 V2000
    0.2881   -2.9111   42.4378 C   0  0  2  0  0  0  0  0  0  0  0  0
    1.3023   -2.0648   42.1981 C   0  0  0  0  0  0  0  0  0  0  0  0
    2.5313   -2.2887   42.6989 C   0  0  0  0  0  0  0  0  0  0  0  0
    2.7349   -3.3003   43.6759 C   0  0  0  0  0  0  0  0  0  0  0  0
    4.0166   -3.4701   44.2795 C   0  0  0  0  0  0  0  0  0  0  0  0
    0.5428   -3.9883   43.2436 N   0  0  0  0  0  0  0  0  0  0  0  0
    1.6942   -4.0650   43.9373 C   0  0  0  0  0  0  0  0  0  0  0  0
    5.0045   -2.4759   44.4021 C   0  0  0  0  0  0  0  0  0  0  0  0
    5.7856   -2.3272   45.4766 C   0  0  0  0  0  0  0  0  0  0  0  0
    5.9732   -3.4056   46.3910 C   0  0  0  0  0  0  0  0  0  0  0  0
    6.8943   -3.3829   47.4372 C   0  0  0  0  0  0  0  0  0  0  0  0
   -0.9153   -2.9003   41.8732 N   0  0  0  0  0  0  0  0  0  0  0  0
  1  2  1  0
  2  3  1  0
  3  4  1  0
  4  5  2  3
  1  6  1  0
  4  7  1  0
  6  7  1  0
  5  8  1  0
  8  9  2  3
  9 10  1  0
 10 11  3  0
  1 12  1  6
M  END
$$$$
O14757_PocketFlow_idx-in-all-generaetd-126
     RDKit          3D

 15 16  0  0  0  0  0  0  0  0999 V2000
   -0.6395   -2.0713   41.4947 C   0  0  0  0  0  0  0  0  0  0  0  0
    0.6719   -2.2449   41.7518 C   0  0  0  0  0  0  0  0  0  0  0  0
    1.5951   -1.1948   41.6106 C   0  0  0  0  0  0  0  0  0  0  0  0
    2.9587   -1.3961   42.0240 C   0  0  0  0  0  0  0  0  0  0  0  0
    3.1652   -2.3460   43.1085 C   0  0  0  0  0  0  0  0  0  0  0  0
    2.2115   -3.3199   43.4243 C   0  0  0  0  0  0  0  0  0  0  0  0
    0.9094   -3.1578   42.8194 C   0  0  0  0  0  0  0  0  0  0  0  0
    4.4667   -2.5092   43.7281 C   0  0  0  0  0  0  0  0  0  0  0  0
    5.3774   -1.4371   43.8700 C   0  0  0  0  0  0  0  0  0  0  0  0
    6.5058   -1.6208   44.7239 C   0  0  0  0  0  0  0  0  0  0  0  0
    6.6633   -2.7518   45.5372 C   0  0  0  0  0  0  0  0  0  0  0  0
    5.6381   -3.7207   45.4707 C   0  0  0  0  0  0  0  0  0  0  0  0
    4.5605   -3.6054   44.6330 C   0  0  0  0  0  0  0  0  0  0  0  0
   -1.3080   -1.0128   41.4939 O   0  0  0  0  0  0  0  0  0  0  0  0
   -1.3185   -3.1257   41.0489 O   0  0  0  0  0  0  0  0  0  0  0  0
  1  2  1  0
  5  8  1  0
  1 14  2  0
  1 15  1  0
  2  3  2  0
  3  4  1  0
  4  5  2  0
  5  6  1  0
  6  7  2  0
  7  2  1  0
  8  9  2  0
  9 10  1  0
 10 11  2  0
 11 12  1  0
 12 13  2  0
 13  8  1  0
M  END
$$$$
O14757_PocketFlow_idx-in-all-generaetd-127
     RDKit          3D

 32 37  0  0  0  0  0  0  0  0999 V2000
   -0.6395   -2.0713   41.4947 C   0  0  0  0  0  0  0  0  0  0  0  0
   -0.2671   -3.2464   41.6546 C   0  0  0  0  0  0  0  0  0  0  0  0
    0.2277   -0.9875   41.6495 C   0  0  0  0  0  0  0  0  0  0  0  0
    1.6284   -1.2752   41.8841 C   0  0  0  0  0  0  0  0  0  0  0  0
    2.6421   -0.3335   42.0825 C   0  0  0  0  0  0  0  0  0  0  0  0
    3.8981   -0.6935   42.5215 C   0  0  0  0  0  0  0  0  0  0  0  0
    4.0537   -1.9942   43.1141 C   0  0  0  0  0  0  0  0  0  0  0  0
    2.9046   -2.8528   43.1593 C   0  0  0  0  0  0  0  0  0  0  0  0
    1.6962   -2.4158   42.6618 C   0  0  0  0  0  0  0  0  0  0  0  0
    0.7792   -3.4973   42.3933 C   0  0  0  0  0  0  0  0  0  0  0  0
    4.9935    0.0964   42.5619 N   0  0  0  0  0  0  0  0  0  0  0  0
   -2.0310   -1.6873   40.9985 C   0  0  0  0  0  0  0  0  0  0  0  0
   -2.6554   -0.5510   41.3231 N   0  0  0  0  0  0  0  0  0  0  0  0
   -2.7907   -2.5633   40.3991 N   0  0  0  0  0  0  0  0  0  0  0  0
   -3.8686   -0.5370   40.7230 C   0  0  0  0  0  0  0  0  0  0  0  0
   -3.9673   -1.7883   40.1783 N   0  0  0  0  0  0  0  0  0  0  0  0
    3.0356   -3.9537   43.9944 N   0  0  0  0  0  0  0  0  0  0  0  0
    3.3385   -4.1059   45.2947 C   0  0  0  0  0  0  0  0  0  0  0  0
    4.2115   -3.2824   45.9233 C   0  0  0  0  0  0  0  0  0  0  0  0
    4.8984   -3.7203   47.1539 C   0  0  0  0  0  0  0  0  0  0  0  0
    5.9801   -3.0367   47.7258 C   0  0  0  0  0  0  0  0  0  0  0  0
    6.6735   -2.1620   46.8271 C   0  0  0  0  0  0  0  0  0  0  0  0
    6.1074   -1.8443   45.5685 C   0  0  0  0  0  0  0  0  0  0  0  0
    5.0353   -2.4002   45.1760 C   0  0  0  0  0  0  0  0  0  0  0  0
    4.6141   -1.9307   43.9078 N   0  0  0  0  0  0  0  0  0  0  0  0
    2.5586   -4.9015   45.9705 O   0  0  0  0  0  0  0  0  0  0  0  0
    6.5609   -3.5635   48.9773 C   0  0  0  0  0  0  0  0  0  0  0  0
    7.7193   -3.3873   49.1861 O   0  0  0  0  0  0  0  0  0  0  0  0
    5.7897   -4.1849   49.7817 O   0  0  0  0  0  0  0  0  0  0  0  0
    5.6743   -0.6269   43.7486 C   0  0  0  0  0  0  0  0  0  0  0  0
    6.5337   -0.4701   44.4809 O   0  0  0  0  0  0  0  0  0  0  0  0
    7.2928   -2.4686   45.1622 N   0  0  0  0  0  0  0  0  0  0  0  0
  6 11  1  0
  1 12  1  0
 12 13  1  0
 12 14  2  0
 13 15  1  0
 14 16  1  0
 15 16  2  0
  8 17  1  0
 17 18  1  0
 18 19  1  0
  7 25  1  0
 24 25  1  0
 18 26  2  0
 21 27  1  0
 27 28  2  0
 27 29  1  0
 11 30  1  0
 25 30  1  0
 30 31  2  0
 23 32  1  0
  1  2  2  0
  2 10  1  0
 10  9  2  0
  4  3  2  0
  3  1  1  0
 19 20  2  0
 20 21  1  0
 21 22  2  0
 22 23  1  0
 23 24  2  0
 24 19  1  0
  4  5  1  0
  5  6  2  0
  6  7  1  0
  7  8  2  0
  8  9  1  0
  9  4  1  0
M  END
$$$$
O14757_PocketFlow_idx-in-all-generaetd-128
     RDKit          3D

 34 39  0  0  0  0  0  0  0  0999 V2000
    0.2881   -2.9111   42.4378 C   0  0  0  0  0  0  0  0  0  0  0  0
    1.1784   -3.4293   42.9321 C   0  0  0  0  0  0  0  0  0  0  0  0
    1.1643   -4.3749   43.9960 C   0  0  1  0  0  0  0  0  0  0  0  0
    1.8790   -4.1402   45.1620 C   0  0  0  0  0  0  0  0  0  0  0  0
    0.4442   -1.7764   41.5237 C   0  0  0  0  0  0  0  0  0  0  0  0
    1.6259   -1.0049   41.6681 C   0  0  0  0  0  0  0  0  0  0  0  0
    2.5998   -1.4209   42.5615 C   0  0  0  0  0  0  0  0  0  0  0  0
    2.4400   -2.6031   43.3338 C   0  0  0  0  0  0  0  0  0  0  0  0
    3.0527   -3.2390   44.6221 C   0  0  2  0  0  0  0  0  0  0  0  0
    3.8946   -0.7211   42.7850 C   0  0  0  0  0  0  0  0  0  0  0  0
    4.9854   -1.3569   43.4058 C   0  0  0  0  0  0  0  0  0  0  0  0
    5.9921   -0.5268   43.9059 C   0  0  0  0  0  0  0  0  0  0  0  0
    0.3251   -5.5734   43.8669 C   0  0  0  0  0  0  0  0  0  0  0  0
    0.0088   -6.3622   45.0200 C   0  0  0  0  0  0  0  0  0  0  0  0
   -1.0444   -7.2860   44.9654 C   0  0  0  0  0  0  0  0  0  0  0  0
   -1.9485   -7.2725   43.9519 C   0  0  0  0  0  0  0  0  0  0  0  0
   -2.9627   -8.3186   43.8680 C   0  0  0  0  0  0  0  0  0  0  0  0
   -3.2593   -9.0280   45.0325 C   0  0  0  0  0  0  0  0  0  0  0  0
   -2.4085   -8.9561   46.1482 C   0  0  0  0  0  0  0  0  0  0  0  0
   -1.3275   -8.0352   46.2053 C   0  0  0  0  0  0  0  0  0  0  0  0
    4.0233    0.5835   42.3102 C   0  0  0  0  0  0  0  0  0  0  0  0
   -4.3554   -9.9567   44.9819 C   0  0  0  0  0  0  0  0  0  0  0  0
   -5.5065   -9.6511   44.3873 C   0  0  0  0  0  0  0  0  0  0  0  0
   -6.5918  -10.5620   44.2777 C   0  0  0  0  0  0  0  0  0  0  0  0
   -6.4690  -11.7821   44.9536 C   0  0  0  0  0  0  0  0  0  0  0  0
   -4.2852  -11.2046   45.5394 C   0  0  0  0  0  0  0  0  0  0  0  0
   -5.2551  -12.1157   45.5138 C   0  0  0  0  0  0  0  0  0  0  0  0
   -0.4772   -7.9513   47.3778 C   0  0  0  0  0  0  0  0  0  0  0  0
    0.1548   -6.9114   47.6337 O   0  0  0  0  0  0  0  0  0  0  0  0
   -0.5439   -8.8992   48.2542 O   0  0  0  0  0  0  0  0  0  0  0  0
    6.9280   -1.2788   44.7453 C   0  0  0  0  0  0  0  0  0  0  0  0
    6.6376   -2.5843   45.3260 C   0  0  0  0  0  0  0  0  0  0  0  0
    5.4801   -3.2625   44.8561 C   0  0  0  0  0  0  0  0  0  0  0  0
    4.5448   -2.5125   44.2931 C   0  0  0  0  0  0  0  0  0  0  0  0
  2  3  1  0
  3  4  1  1
  9  4  1  6
  8  9  1  0
  7 10  1  0
 10 11  1  0
  3 13  1  0
 13 14  2  3
 14 15  1  0
 10 21  1  0
 18 22  1  0
 20 28  1  0
 28 29  1  0
 28 30  2  0
  9 34  1  0
 15 16  2  0
 16 17  1  0
 17 18  2  0
 18 19  1  0
 19 20  2  0
 20 15  1  0
  1  2  2  0
  2  8  1  0
  8  7  2  0
  7  6  1  0
  6  5  2  0
  5  1  1  0
 11 12  2  0
 12 31  1  0
 31 32  2  0
 32 33  1  0
 33 34  2  0
 34 11  1  0
 22 23  2  0
 23 24  1  0
 24 25  2  0
 25 27  1  0
 27 26  2  0
 26 22  1  0
M  END
$$$$
O14757_PocketFlow_idx-in-all-generaetd-129
     RDKit          3D

 21 21  0  0  0  0  0  0  0  0999 V2000
   -0.8794   -1.9236   41.9357 O   0  0  0  0  0  0  0  0  0  0  0  0
    0.3070   -1.6014   41.6735 C   0  0  0  0  0  0  0  0  0  0  0  0
    1.2548   -2.6723   41.5755 C   0  0  0  0  0  0  0  0  0  0  0  0
    1.4583   -3.1655   42.9015 C   0  0  0  0  0  0  0  0  0  0  0  0
    2.6592   -3.0225   43.5431 C   0  0  0  0  0  0  0  0  0  0  0  0
    3.1096   -3.7552   44.6505 C   0  0  0  0  0  0  0  0  0  0  0  0
    2.2229   -4.4961   45.3980 C   0  0  0  0  0  0  0  0  0  0  0  0
    0.8712   -4.5344   44.8668 C   0  0  0  0  0  0  0  0  0  0  0  0
    0.4955   -4.0042   43.6103 C   0  0  0  0  0  0  0  0  0  0  0  0
    4.4501   -3.5242   45.2262 C   0  0  0  0  0  0  0  0  0  0  0  0
    4.8013   -2.4565   45.9513 C   0  0  0  0  0  0  0  0  0  0  0  0
    5.7250   -1.5914   45.5574 C   0  0  2  0  0  0  0  0  0  0  0  0
    5.4740   -0.6715   44.5160 C   0  0  0  0  0  0  0  0  0  0  0  0
    0.5980   -0.3890   41.4563 O   0  0  0  0  0  0  0  0  0  0  0  0
   -0.1426   -5.3790   45.5968 C   0  0  0  0  0  0  0  0  0  0  0  0
   -1.0957   -4.8162   46.0465 O   0  0  0  0  0  0  0  0  0  0  0  0
    0.3227   -6.4299   46.1808 O   0  0  0  0  0  0  0  0  0  0  0  0
    5.7699   -0.9996   43.1396 C   0  0  0  0  0  0  0  0  0  0  0  0
    4.5214   -0.9627   42.4112 C   0  0  0  0  0  0  0  0  0  0  0  0
    7.0912   -1.7929   46.0152 C   0  0  0  0  0  0  0  0  0  0  0  0
    8.1519   -0.8851   45.8303 C   0  0  0  0  0  0  0  0  0  0  0  0
  1  2  1  0
  2  3  1  0
  3  4  1  0
  6 10  1  0
 10 11  1  0
 12 11  1  6
 12 13  1  0
  2 14  2  0
  8 15  1  0
 15 16  2  0
 15 17  1  0
 13 18  1  0
 18 19  1  0
 12 20  1  0
 20 21  2  0
  4  5  2  0
  5  6  1  0
  6  7  2  0
  7  8  1  0
  8  9  2  0
  9  4  1  0
M  END
$$$$
O14757_PocketFlow_idx-in-all-generaetd-130
     RDKit          3D

 28 31  0  0  0  0  0  0  0  0999 V2000
   -0.8794   -1.9236   41.9357 O   0  0  0  0  0  0  0  0  0  0  0  0
    0.3070   -1.6014   41.6735 C   0  0  0  0  0  0  0  0  0  0  0  0
    0.8076   -0.3104   41.6588 C   0  0  0  0  0  0  0  0  0  0  0  0
    2.1973   -0.1560   42.0682 C   0  0  0  0  0  0  0  0  0  0  0  0
    3.0388   -1.2356   42.4097 C   0  0  0  0  0  0  0  0  0  0  0  0
    2.3612   -2.5152   42.5452 C   0  0  0  0  0  0  0  0  0  0  0  0
    1.0303   -2.6316   42.3240 C   0  0  0  0  0  0  0  0  0  0  0  0
    4.3728   -1.0745   42.7910 C   0  0  0  0  0  0  0  0  0  0  0  0
    5.0738    0.1322   42.5427 C   0  0  0  0  0  0  0  0  0  0  0  0
    4.9990   -2.0795   43.5819 C   0  0  0  0  0  0  0  0  0  0  0  0
    6.0011   -1.7709   44.5839 C   0  0  0  0  0  0  0  0  0  0  0  0
    6.3851   -2.7386   45.5019 C   0  0  0  0  0  0  0  0  0  0  0  0
    7.4493   -2.5788   46.4083 C   0  0  0  0  0  0  0  0  0  0  0  0
    7.7638   -3.7004   47.2725 C   0  0  0  0  0  0  0  0  0  0  0  0
    6.6442   -4.4992   47.6238 C   0  0  0  0  0  0  0  0  0  0  0  0
    5.4203   -4.4267   46.9589 C   0  0  0  0  0  0  0  0  0  0  0  0
    5.2830   -3.4324   46.0050 C   0  0  0  0  0  0  0  0  0  0  0  0
    0.2721   -3.7208   42.4740 N   0  0  0  0  0  0  0  0  0  0  0  0
    0.7280   -4.9357   42.9002 N   0  0  0  0  0  0  0  0  0  0  0  0
   -0.1571   -5.9158   43.1769 C   0  0  0  0  0  0  0  0  0  0  0  0
    9.1108   -3.6342   47.7795 C   0  0  0  0  0  0  0  0  0  0  0  0
    9.9427   -3.0820   47.5739 N   0  0  0  0  0  0  0  0  0  0  0  0
    9.3365   -4.8914   48.7316 C   0  0  0  0  0  0  0  0  0  0  0  0
   11.2908   -3.1743   47.9793 C   0  0  0  0  0  0  0  0  0  0  0  0
   10.6520   -5.1208   49.1715 C   0  0  0  0  0  0  0  0  0  0  0  0
   11.6258   -4.1604   48.8642 C   0  0  0  0  0  0  0  0  0  0  0  0
    3.9667   -3.4930   45.3265 C   0  0  0  0  0  0  0  0  0  0  0  0
    3.8691   -2.8592   44.0500 C   0  0  0  0  0  0  0  0  0  0  0  0
  1  2  1  0
  5  8  1  0
  8  9  2  0
  8 10  1  0
  7 18  1  0
 18 19  1  0
 19 20  2  0
 14 21  1  0
 10 11  2  0
 11 12  1  0
 17 27  1  0
 27 28  2  0
 28 10  1  0
  2  3  2  0
  3  4  1  0
  4  5  2  0
  5  6  1  0
  6  7  2  0
  7  2  1  0
 12 13  2  0
 13 14  1  0
 14 15  2  0
 15 16  1  0
 16 17  2  0
 17 12  1  0
 21 22  2  0
 22 24  1  0
 24 26  2  0
 26 25  1  0
 25 23  2  0
 23 21  1  0
M  END
$$$$
O14757_PocketFlow_idx-in-all-generaetd-131
     RDKit          3D

 18 19  0  0  0  0  0  0  0  0999 V2000
   -0.6395   -2.0713   41.4947 C   0  0  0  0  0  0  0  0  0  0  0  0
   -0.2671   -3.2464   41.6546 C   0  0  0  0  0  0  0  0  0  0  0  0
   -2.0053   -1.6706   41.3987 C   0  0  0  0  0  0  0  0  0  0  0  0
   -2.3187   -0.3966   41.5492 O   0  0  0  0  0  0  0  0  0  0  0  0
    1.0051   -3.4785   42.3930 C   0  0  0  0  0  0  0  0  0  0  0  0
    1.9060   -2.4628   42.4047 C   0  0  0  0  0  0  0  0  0  0  0  0
    1.4980   -1.1553   42.1089 C   0  0  0  0  0  0  0  0  0  0  0  0
    2.3861   -0.0408   42.2219 C   0  0  0  0  0  0  0  0  0  0  0  0
    0.1998   -0.9283   41.7148 C   0  0  0  0  0  0  0  0  0  0  0  0
    3.6692   -0.1608   42.9277 C   0  0  0  0  0  0  0  0  0  0  0  0
    4.0425   -1.2882   43.5734 C   0  0  0  0  0  0  0  0  0  0  0  0
    5.2261   -1.5031   44.2897 C   0  0  0  0  0  0  0  0  0  0  0  0
    6.1906   -0.5750   44.5471 C   0  0  0  0  0  0  0  0  0  0  0  0
    5.1875   -2.6402   45.2281 C   0  0  0  0  0  0  0  0  0  0  0  0
    4.2697   -3.6391   45.1746 C   0  0  0  0  0  0  0  0  0  0  0  0
    3.1621   -3.4031   44.2665 C   0  0  0  0  0  0  0  0  0  0  0  0
    3.0593   -2.3300   43.5926 C   0  0  0  0  0  0  0  0  0  0  0  0
    2.1846   -2.9316   43.6772 Br  0  0  0  0  0  0  0  0  0  0  0  0
  1  3  1  0
  3  4  1  0
  7  8  1  0
  8 10  2  3
 10 11  1  0
 12 13  1  0
 17 18  1  0
 11 12  2  0
 12 14  1  0
 14 15  2  0
 15 16  1  0
 16 17  2  0
 17 11  1  0
  1  2  2  0
  2  5  1  0
  5  6  2  0
  6  7  1  0
  7  9  2  0
  9  1  1  0
M  END
$$$$
O14757_PocketFlow_idx-in-all-generaetd-132
     RDKit          3D

 20 21  0  0  0  0  0  0  0  0999 V2000
    0.2881   -2.9111   42.4378 C   0  0  0  0  0  0  0  0  0  0  0  0
   -0.0650   -2.5021   41.5798 C   0  0  0  0  0  0  0  0  0  0  0  0
    1.5111   -2.4518   43.1047 C   0  0  0  0  0  0  0  0  0  0  0  0
    2.1892   -1.4341   42.4770 C   0  0  0  0  0  0  0  0  0  0  0  0
    3.3839   -0.8722   43.0399 C   0  0  0  0  0  0  0  0  0  0  0  0
    4.0272    0.2093   42.4724 C   0  0  0  0  0  0  0  0  0  0  0  0
    0.4488   -1.3377   40.9050 C   0  0  0  0  0  0  0  0  0  0  0  0
    1.6295   -0.8153   41.4119 C   0  0  0  0  0  0  0  0  0  0  0  0
    4.1479   -1.6470   44.0447 C   0  0  0  0  0  0  0  0  0  0  0  0
    5.3053   -1.1824   44.6486 C   0  0  0  0  0  0  0  0  0  0  0  0
    5.2543    0.5988   43.1283 N   0  0  0  0  0  0  0  0  0  0  0  0
    5.8824   -0.0589   44.0393 C   0  0  0  0  0  0  0  0  0  0  0  0
   -1.2418   -2.9252   40.9418 O   0  0  0  0  0  0  0  0  0  0  0  0
    5.9866   -1.9825   45.6450 C   0  0  0  0  0  0  0  0  0  0  0  0
    6.2904   -3.2164   45.5526 C   0  0  0  0  0  0  0  0  0  0  0  0
    7.0219   -3.8959   46.5648 C   0  0  0  0  0  0  0  0  0  0  0  0
    7.9635   -4.0986   46.9751 C   0  0  0  0  0  0  0  0  0  0  0  0
    8.3361   -4.9085   48.1301 C   0  0  0  0  0  0  0  0  0  0  0  0
    7.2960   -5.4700   48.8053 C   0  0  0  0  0  0  0  0  0  0  0  0
    5.9912   -5.1774   48.4212 C   0  0  0  0  0  0  0  0  0  0  0  0
  4  5  1  0
  2 13  1  0
 10 14  1  0
 14 15  2  3
 15 16  1  0
 16 17  3  0
 17 18  1  0
 18 19  2  3
 19 20  1  0
  5  6  2  0
  6 11  1  0
 11 12  2  0
 12 10  1  0
 10  9  2  0
  9  5  1  0
  1  2  2  0
  2  7  1  0
  7  8  2  0
  8  4  1  0
  4  3  2  0
  3  1  1  0
M  END
$$$$
O14757_PocketFlow_idx-in-all-generaetd-133
     RDKit          3D

 30 32  0  0  0  0  0  0  0  0999 V2000
   -0.8413   -1.9048   41.7918 F   0  0  0  0  0  0  0  0  0  0  0  0
    0.3337   -2.3483   41.5607 C   0  0  0  0  0  0  0  0  0  0  0  0
    1.2289   -2.2913   42.5818 C   0  0  0  0  0  0  0  0  0  0  0  0
    2.5011   -3.0266   42.5960 C   0  0  0  0  0  0  0  0  0  0  0  0
    3.6008   -2.3816   43.3197 C   0  0  0  0  0  0  0  0  0  0  0  0
    4.1149   -1.1890   42.9756 C   0  0  0  0  0  0  0  0  0  0  0  0
    5.2556   -0.7590   43.7496 C   0  0  0  0  0  0  0  0  0  0  0  0
    4.3786   -3.1971   44.2027 C   0  0  0  0  0  0  0  0  0  0  0  0
    5.5061   -2.7933   44.8724 C   0  0  0  0  0  0  0  0  0  0  0  0
    5.9610   -1.4493   44.6006 C   0  0  0  0  0  0  0  0  0  0  0  0
    0.4604   -3.0192   40.5430 F   0  0  0  0  0  0  0  0  0  0  0  0
    3.4498   -0.2962   42.2281 N   0  0  0  0  0  0  0  0  0  0  0  0
    3.9630   -4.6106   44.5164 C   0  0  0  0  0  0  0  0  0  0  0  0
    2.9737   -4.8457   45.5376 C   0  0  0  0  0  0  0  0  0  0  0  0
    1.6989   -5.0444   45.1627 C   0  0  0  0  0  0  0  0  0  0  0  0
    1.1036   -5.9683   44.7947 C   0  0  0  0  0  0  0  0  0  0  0  0
   -0.0450   -6.4365   44.8292 C   0  0  0  0  0  0  0  0  0  0  0  0
   -0.7197   -7.3814   44.0591 C   0  0  0  0  0  0  0  0  0  0  0  0
   -0.8842   -6.2285   46.1179 C   0  0  0  0  0  0  0  0  0  0  0  0
   -1.0720   -7.2286   46.9672 N   0  0  0  0  0  0  0  0  0  0  0  0
   -1.9270   -8.2551   46.5765 C   0  0  1  0  0  0  0  0  0  0  0  0
   -2.0641   -7.5783   44.1791 C   0  0  0  0  0  0  0  0  0  0  0  0
   -2.4084   -8.5262   45.3775 C   0  0  2  0  0  0  0  0  0  0  0  0
   -1.5634   -9.3314   47.4231 C   0  0  0  0  0  0  0  0  0  0  0  0
   -2.6605   -9.6740   48.2926 C   0  0  0  0  0  0  0  0  0  0  0  0
   -2.4778  -10.3785   49.4567 C   0  0  0  0  0  0  0  0  0  0  0  0
   -1.2204  -10.7951   49.8461 C   0  0  0  0  0  0  0  0  0  0  0  0
   -0.1130  -10.4565   49.0193 C   0  0  0  0  0  0  0  0  0  0  0  0
   -0.2814   -9.7119   47.8914 C   0  0  0  0  0  0  0  0  0  0  0  0
   -3.5061   -9.4151   45.2428 C   0  0  0  0  0  0  0  0  0  0  0  0
  1  2  1  0
  2  3  1  0
  3  4  1  0
  4  5  1  0
  2 11  1  0
  6 12  1  0
  8 13  1  0
 13 14  1  0
 14 15  1  0
 15 16  2  3
 16 17  1  0
 17 18  2  0
 17 19  1  0
 19 20  1  0
 20 21  1  0
 18 22  1  0
 21 23  1  0
 22 23  1  0
 21 24  1  6
 23 30  1  1
  5  6  2  0
  6  7  1  0
  7 10  2  0
 10  9  1  0
  9  8  2  0
  8  5  1  0
 24 25  2  0
 25 26  1  0
 26 27  2  0
 27 28  1  0
 28 29  2  0
 29 24  1  0
M  END
$$$$
O14757_PocketFlow_idx-in-all-generaetd-134
     RDKit          3D

 35 37  0  0  0  0  0  0  0  0999 V2000
    0.2881   -2.9111   42.4378 C   0  0  0  0  0  0  0  0  0  0  0  0
    1.3023   -2.0648   42.1981 C   0  0  0  0  0  0  0  0  0  0  0  0
    0.9971   -0.8647   41.5341 C   0  0  0  0  0  0  0  0  0  0  0  0
   -0.9708   -2.7453   41.8195 C   0  0  0  0  0  0  0  0  0  0  0  0
   -1.3087   -1.5883   41.3020 C   0  0  0  0  0  0  0  0  0  0  0  0
   -0.3019   -0.6005   41.1317 C   0  0  0  0  0  0  0  0  0  0  0  0
    0.6350   -4.5172   43.1073 Cl  0  0  0  0  0  0  0  0  0  0  0  0
    2.0356    0.1600   41.4888 C   0  0  0  0  0  0  0  0  0  0  0  0
    2.8363    0.5715   42.4774 N   0  0  0  0  0  0  0  0  0  0  0  0
   -2.6585   -1.3064   40.8895 C   0  0  0  0  0  0  0  0  0  0  0  0
   -3.1765   -0.1748   41.0451 O   0  0  0  0  0  0  0  0  0  0  0  0
   -3.3481   -2.2455   40.3290 O   0  0  0  0  0  0  0  0  0  0  0  0
    4.1296    0.0094   42.7079 C   0  0  0  0  0  0  0  0  0  0  0  0
    4.3603   -1.0313   43.5871 C   0  0  0  0  0  0  0  0  0  0  0  0
    5.3842   -1.0861   44.4866 C   0  0  0  0  0  0  0  0  0  0  0  0
    5.5102   -2.1694   45.3807 C   0  0  0  0  0  0  0  0  0  0  0  0
    4.6004   -3.2557   45.3205 C   0  0  0  0  0  0  0  0  0  0  0  0
    3.6069   -3.1717   44.3083 C   0  0  0  0  0  0  0  0  0  0  0  0
    3.5687   -2.1352   43.5243 C   0  0  0  0  0  0  0  0  0  0  0  0
    4.7360   -4.4172   46.1805 C   0  0  0  0  0  0  0  0  0  0  0  0
    4.1129   -5.4559   46.0295 O   0  0  0  0  0  0  0  0  0  0  0  0
    5.6204   -4.3452   47.2753 N   0  0  0  0  0  0  0  0  0  0  0  0
    5.7877   -5.4145   48.2102 C   0  0  0  0  0  0  0  0  0  0  0  0
    7.2012   -5.8644   48.2478 C   0  0  1  0  0  0  0  0  0  0  0  0
    7.7691   -5.8776   49.4527 C   0  0  2  0  0  0  0  0  0  0  0  0
    7.8512   -7.2656   49.9615 C   0  0  0  0  0  0  0  0  0  0  0  0
    7.3211   -8.0936   48.9929 C   0  0  1  0  0  0  0  0  0  0  0  0
    6.5689   -8.9690   49.0425 C   0  0  0  0  0  0  0  0  0  0  0  0
    5.6513   -9.1520   48.5966 C   0  0  0  0  0  0  0  0  0  0  0  0
    7.2736   -7.0686   47.6029 O   0  0  0  0  0  0  0  0  0  0  0  0
    4.6877  -10.3025   48.6226 C   0  0  0  0  0  0  0  0  0  0  0  0
    7.0409   -4.9561   50.4432 O   0  0  0  0  0  0  0  0  0  0  0  0
    3.3841  -10.1971   48.0268 C   0  0  0  0  0  0  0  0  0  0  0  0
    3.2070   -9.2739   46.9736 C   0  0  0  0  0  0  0  0  0  0  0  0
    1.9631   -9.2351   46.3393 C   0  0  0  0  0  0  0  0  0  0  0  0
  1  7  1  0
  3  8  1  0
  8  9  1  0
  5 10  1  0
 10 11  2  0
 10 12  1  0
  9 13  1  0
 13 14  1  0
 17 20  1  0
 20 21  1  0
 20 22  2  3
 22 23  1  0
 24 23  1  1
 24 25  1  0
 25 26  1  0
 27 26  1  1
 27 28  1  0
 28 29  2  3
 24 30  1  0
 27 30  1  0
 29 31  1  0
 25 32  1  1
 31 33  2  3
 33 34  1  0
 34 35  2  0
 14 15  2  0
 15 16  1  0
 16 17  2  0
 17 18  1  0
 18 19  2  0
 19 14  1  0
  1  2  2  0
  2  3  1  0
  3  6  2  0
  6  5  1  0
  5  4  2  0
  4  1  1  0
M  END
$$$$
O14757_PocketFlow_idx-in-all-generaetd-135
     RDKit          3D

 30 31  0  0  0  0  0  0  0  0999 V2000
   -0.6395   -2.0713   41.4947 C   0  0  0  0  0  0  0  0  0  0  0  0
    0.6719   -2.2449   41.7518 C   0  0  0  0  0  0  0  0  0  0  0  0
    1.1287   -3.3339   42.4778 C   0  0  0  0  0  0  0  0  0  0  0  0
    0.1404   -4.2568   42.9148 C   0  0  0  0  0  0  0  0  0  0  0  0
    0.5988   -5.3362   43.7192 C   0  0  0  0  0  0  0  0  0  0  0  0
   -0.2919   -6.3271   44.1804 C   0  0  0  0  0  0  0  0  0  0  0  0
   -1.0424   -0.9233   40.9402 N   0  0  0  0  0  0  0  0  0  0  0  0
    0.0342   -7.1883   45.2854 C   0  0  0  0  0  0  0  0  0  0  0  0
   -0.9422   -7.9819   45.9326 C   0  0  0  0  0  0  0  0  0  0  0  0
   -0.6572   -8.5893   47.1220 C   0  0  0  0  0  0  0  0  0  0  0  0
    0.6968   -8.6944   47.4735 C   0  0  0  0  0  0  0  0  0  0  0  0
    1.7288   -8.1059   46.7400 C   0  0  0  0  0  0  0  0  0  0  0  0
    1.4153   -7.3118   45.6731 C   0  0  0  0  0  0  0  0  0  0  0  0
   -1.5408   -2.9279   41.6054 O   0  0  0  0  0  0  0  0  0  0  0  0
    1.6502   -1.1620   41.4476 C   0  0  0  0  0  0  0  0  0  0  0  0
    2.3404   -0.5032   42.5146 C   0  0  0  0  0  0  0  0  0  0  0  0
    3.6876   -0.4291   42.4631 C   0  0  0  0  0  0  0  0  0  0  0  0
    4.5981   -0.8380   43.4687 C   0  0  0  0  0  0  0  0  0  0  0  0
    4.2558   -1.8599   44.3438 C   0  0  0  0  0  0  0  0  0  0  0  0
    5.1148   -2.1984   45.4259 C   0  0  0  0  0  0  0  0  0  0  0  0
    6.4836   -1.8528   45.2970 C   0  0  0  0  0  0  0  0  0  0  0  0
    6.8943   -0.8929   44.3104 C   0  0  0  0  0  0  0  0  0  0  0  0
    5.9721   -0.4438   43.3997 C   0  0  0  0  0  0  0  0  0  0  0  0
    4.7051   -3.2783   46.3470 C   0  0  0  0  0  0  0  0  0  0  0  0
    3.7187   -4.2106   46.1042 C   0  0  0  0  0  0  0  0  0  0  0  0
   -2.2334   -7.8097   45.5093 N   0  0  0  0  0  0  0  0  0  0  0  0
   -2.7229   -8.4633   44.4005 C   0  0  0  0  0  0  0  0  0  0  0  0
   -4.2161   -8.4538   44.3290 C   0  0  0  0  0  0  0  0  0  0  0  0
   -4.7817   -8.3476   43.1106 C   0  0  0  0  0  0  0  0  0  0  0  0
   -6.1864   -8.3228   42.9565 C   0  0  0  0  0  0  0  0  0  0  0  0
  1  2  1  0
  2  3  2  3
  3  4  1  0
  4  5  1  0
  5  6  2  3
  1  7  1  0
  6  8  1  0
  1 14  2  0
  2 15  1  0
 15 16  1  0
 16 17  2  3
 17 18  1  0
 20 24  1  0
 24 25  1  0
  9 26  1  0
 26 27  1  0
 27 28  1  0
 28 29  2  3
 29 30  1  0
 18 19  2  0
 19 20  1  0
 20 21  2  0
 21 22  1  0
 22 23  2  0
 23 18  1  0
  8  9  2  0
  9 10  1  0
 10 11  2  0
 11 12  1  0
 12 13  2  0
 13  8  1  0
M  END
$$$$
O14757_PocketFlow_idx-in-all-generaetd-136
     RDKit          3D

 25 27  0  0  0  0  0  0  0  0999 V2000
   -0.8413   -1.9048   41.7918 F   0  0  0  0  0  0  0  0  0  0  0  0
   -0.4300   -2.8526   41.5038 C   0  0  0  0  0  0  0  0  0  0  0  0
   -1.2613   -3.8342   41.5789 F   0  0  0  0  0  0  0  0  0  0  0  0
    0.8895   -3.0841   41.1536 C   0  0  0  0  0  0  0  0  0  0  0  0
    1.7886   -2.2695   41.9414 C   0  0  0  0  0  0  0  0  0  0  0  0
    1.9553   -0.8928   41.6206 C   0  0  0  0  0  0  0  0  0  0  0  0
    2.8684   -0.0897   42.2682 C   0  0  0  0  0  0  0  0  0  0  0  0
    4.0571   -0.7613   42.6721 C   0  0  0  0  0  0  0  0  0  0  0  0
    5.0839    0.0193   43.3083 C   0  0  0  0  0  0  0  0  0  0  0  0
    6.0560   -0.7886   43.8785 C   0  0  0  0  0  0  0  0  0  0  0  0
    5.7910   -1.9148   44.7056 C   0  0  0  0  0  0  0  0  0  0  0  0
    4.6271   -2.7088   44.2276 C   0  0  0  0  0  0  0  0  0  0  0  0
    3.6995   -1.9692   43.3773 C   0  0  0  0  0  0  0  0  0  0  0  0
    2.7769   -2.8279   42.7636 C   0  0  0  0  0  0  0  0  0  0  0  0
    4.4544   -3.9663   44.7971 C   0  0  0  0  0  0  0  0  0  0  0  0
    4.4243   -4.1796   46.1892 C   0  0  0  0  0  0  0  0  0  0  0  0
    4.9360   -3.1382   46.9820 C   0  0  0  0  0  0  0  0  0  0  0  0
    6.0035   -2.8331   46.8467 C   0  0  0  0  0  0  0  0  0  0  0  0
    6.3457   -1.7969   45.7917 C   0  0  0  0  0  0  0  0  0  0  0  0
    3.7360   -5.4326   46.5517 C   0  0  0  0  0  0  0  0  0  0  0  0
    4.5650   -6.5658   46.2519 C   0  0  0  0  0  0  0  0  0  0  0  0
    4.9836   -7.0901   47.5270 C   0  0  0  0  0  0  0  0  0  0  0  0
    4.6423   -8.3175   47.8583 O   0  0  0  0  0  0  0  0  0  0  0  0
    5.8512   -6.5374   48.2748 O   0  0  0  0  0  0  0  0  0  0  0  0
    7.4687   -1.1247   46.0289 O   0  0  0  0  0  0  0  0  0  0  0  0
  1  2  1  0
  2  3  1  0
  2  4  1  0
  4  5  1  0
 12 15  1  0
 15 16  1  0
 16 17  2  0
 17 18  1  0
 11 19  1  0
 18 19  1  0
 16 20  1  0
 20 21  1  0
 21 22  1  0
 22 23  2  0
 22 24  1  0
 19 25  2  0
  8  9  1  0
  9 10  2  0
 10 11  1  0
 11 12  2  0
 12 13  1  0
  5  6  2  0
  6  7  1  0
  7  8  2  0
  8 13  1  0
 13 14  2  0
 14  5  1  0
M  END
$$$$
O14757_PocketFlow_idx-in-all-generaetd-137
     RDKit          3D

 14 14  0  0  0  0  0  0  0  0999 V2000
   -0.6395   -2.0713   41.4947 C   0  0  0  0  0  0  0  0  0  0  0  0
    0.1859   -1.1027   41.5970 C   0  0  0  0  0  0  0  0  0  0  0  0
    1.5836   -1.3270   41.4670 C   0  0  0  0  0  0  0  0  0  0  0  0
   -0.2462   -3.3905   41.2409 C   0  0  0  0  0  0  0  0  0  0  0  0
    2.5788   -0.3160   41.7511 C   0  0  0  0  0  0  0  0  0  0  0  0
    3.8805   -0.6481   42.0316 C   0  0  0  0  0  0  0  0  0  0  0  0
    4.1140   -1.7786   42.9289 C   0  0  0  0  0  0  0  0  0  0  0  0
    5.3365   -1.9608   43.6425 C   0  0  0  0  0  0  0  0  0  0  0  0
    5.3736   -3.0442   44.5871 C   0  0  0  0  0  0  0  0  0  0  0  0
    6.3328   -2.9980   45.6594 C   0  0  0  0  0  0  0  0  0  0  0  0
    7.3670   -1.9980   45.6468 C   0  0  0  0  0  0  0  0  0  0  0  0
    7.2023   -0.9531   44.6624 C   0  0  0  0  0  0  0  0  0  0  0  0
    6.2152   -0.9043   43.8336 C   0  0  0  0  0  0  0  0  0  0  0  0
    1.0362   -3.5881   41.0825 F   0  0  0  0  0  0  0  0  0  0  0  0
  1  2  1  0
  2  3  2  3
  1  4  2  3
  3  5  1  0
  5  6  1  0
  6  7  1  0
  4 14  1  0
  7  8  1  0
  8  9  2  0
  9 10  1  0
 10 11  2  0
 11 12  1  0
 12 13  2  0
 13  8  1  0
M  END
$$$$
O14757_PocketFlow_idx-in-all-generaetd-138
     RDKit          3D

 10 10  0  0  0  0  0  0  0  0999 V2000
   -0.6395   -2.0713   41.4947 C   0  0  0  0  0  0  0  0  0  0  0  0
    0.6719   -2.2449   41.7518 C   0  0  0  0  0  0  0  0  0  0  0  0
    1.5951   -1.1948   41.6106 C   0  0  0  0  0  0  0  0  0  0  0  0
    2.9587   -1.3961   42.0241 C   0  0  0  0  0  0  0  0  0  0  0  0
    3.1624   -1.7136   43.3240 C   0  0  0  0  0  0  0  0  0  0  0  0
    4.4944   -1.5694   43.8944 C   0  0  0  0  0  0  0  0  0  0  0  0
    5.0614   -2.4305   44.8160 C   0  0  0  0  0  0  0  0  0  0  0  0
    4.2450   -3.5346   45.2384 C   0  0  0  0  0  0  0  0  0  0  0  0
    2.9893   -3.7821   44.5881 C   0  0  0  0  0  0  0  0  0  0  0  0
    2.5723   -3.0648   43.6050 C   0  0  0  0  0  0  0  0  0  0  0  0
  1  2  1  0
  2  3  2  3
  3  4  1  0
  4  5  1  0
  5  6  2  0
  6  7  1  0
  7  8  2  0
  8  9  1  0
  9 10  2  0
 10  5  1  0
M  END
$$$$
O14757_PocketFlow_idx-in-all-generaetd-139
     RDKit          3D

 35 38  0  0  0  0  0  0  0  0999 V2000
   -0.6395   -2.0713   41.4947 C   0  0  0  0  0  0  0  0  0  0  0  0
    0.6719   -2.2449   41.7518 C   0  0  0  0  0  0  0  0  0  0  0  0
    1.5850   -1.2291   41.6969 C   0  0  2  0  0  0  0  0  0  0  0  0
    2.9399   -1.4295   42.0894 C   0  0  0  0  0  0  0  0  0  0  0  0
    3.8491   -0.3564   42.1331 C   0  0  0  0  0  0  0  0  0  0  0  0
    5.0990   -0.5225   42.8597 C   0  0  0  0  0  0  0  0  0  0  0  0
    5.2926   -1.6489   43.6440 C   0  0  0  0  0  0  0  0  0  0  0  0
    4.3159   -2.6579   43.7095 C   0  0  0  0  0  0  0  0  0  0  0  0
    4.5079   -3.8094   44.4654 C   0  0  0  0  0  0  0  0  0  0  0  0
    3.1555   -2.5408   42.8889 C   0  0  0  0  0  0  0  0  0  0  0  0
   -1.5357   -3.1751   41.5016 C   0  0  0  0  0  0  0  0  0  0  0  0
   -0.8931   -4.3992   41.5126 N   0  0  0  0  0  0  0  0  0  0  0  0
    3.7636   -5.0072   44.3226 C   0  0  0  0  0  0  0  0  0  0  0  0
    3.7837   -5.9582   45.3632 C   0  0  0  0  0  0  0  0  0  0  0  0
    4.4480   -5.6355   46.6206 C   0  0  0  0  0  0  0  0  0  0  0  0
    5.1671   -4.4382   46.7451 C   0  0  0  0  0  0  0  0  0  0  0  0
    5.1388   -3.4911   45.7877 C   0  0  0  0  0  0  0  0  0  0  0  0
    5.8700   -4.1866   48.0292 C   0  0  0  0  0  0  0  0  0  0  0  0
    6.7250   -4.8955   48.2320 O   0  0  0  0  0  0  0  0  0  0  0  0
    0.7184   -3.7301   41.8134 C   0  0  0  0  0  0  0  0  0  0  0  0
    1.2255   -0.0434   41.6122 F   0  0  0  0  0  0  0  0  0  0  0  0
    7.6123   -4.6583   49.2467 C   0  0  0  0  0  0  0  0  0  0  0  0
    8.0780   -5.5418   50.0904 C   0  0  1  0  0  0  0  0  0  0  0  0
    9.1267   -6.0946   49.4169 C   0  0  0  0  0  0  0  0  0  0  0  0
    9.8062   -5.4940   48.8513 O   0  0  0  0  0  0  0  0  0  0  0  0
    8.4766   -4.8505   51.2769 O   0  0  0  0  0  0  0  0  0  0  0  0
    9.4902   -7.2963   49.9131 O   0  0  0  0  0  0  0  0  0  0  0  0
    3.0250   -7.1797   45.1702 C   0  0  0  0  0  0  0  0  0  0  0  0
    1.8562   -7.0884   44.6931 O   0  0  0  0  0  0  0  0  0  0  0  0
    0.7585   -7.2892   45.4565 C   0  0  0  0  0  0  0  0  0  0  0  0
   -0.5089   -6.9610   44.7339 C   0  0  0  0  0  0  0  0  0  0  0  0
   -1.7452   -7.5437   45.1764 C   0  0  0  0  0  0  0  0  0  0  0  0
   -1.7404   -8.2224   46.4334 C   0  0  0  0  0  0  0  0  0  0  0  0
   -0.5739   -8.3625   47.1921 C   0  0  0  0  0  0  0  0  0  0  0  0
    0.6839   -7.9172   46.6330 C   0  0  0  0  0  0  0  0  0  0  0  0
  1  2  2  0
  2  3  1  0
  3  4  1  0
  8  9  1  0
  1 11  1  0
 11 12  2  0
 16 18  1  0
 18 19  1  0
  2 20  1  0
 12 20  1  0
  3 21  1  1
 19 22  1  0
 22 23  1  0
 23 24  1  0
 24 25  2  0
 23 26  1  1
 24 27  1  0
 14 28  1  0
 28 29  1  0
 29 30  1  0
  4  5  2  0
  5  6  1  0
  6  7  2  0
  7  8  1  0
  8 10  2  0
 10  4  1  0
  9 13  2  0
 13 14  1  0
 14 15  2  0
 15 16  1  0
 16 17  2  0
 17  9  1  0
 30 31  2  0
 31 32  1  0
 32 33  2  0
 33 34  1  0
 34 35  2  0
 35 30  1  0
M  END
$$$$
O14757_PocketFlow_idx-in-all-generaetd-140
     RDKit          3D

 35 39  0  0  0  0  0  0  0  0999 V2000
   -0.6395   -2.0713   41.4947 C   0  0  0  0  0  0  0  0  0  0  0  0
    0.1859   -1.1027   41.5970 C   0  0  0  0  0  0  0  0  0  0  0  0
    1.5836   -1.3270   41.4670 C   0  0  0  0  0  0  0  0  0  0  0  0
   -0.2462   -3.3905   41.2409 C   0  0  0  0  0  0  0  0  0  0  0  0
    2.5675   -0.3472   41.7943 C   0  0  0  0  0  0  0  0  0  0  0  0
    3.8546   -0.6776   42.2362 C   0  0  0  0  0  0  0  0  0  0  0  0
    4.7501    0.3011   42.7357 C   0  0  0  0  0  0  0  0  0  0  0  0
    1.0806   -3.6013   41.1169 N   0  0  0  0  0  0  0  0  0  0  0  0
    1.9611   -2.5865   41.2296 C   0  0  0  0  0  0  0  0  0  0  0  0
    5.9008   -0.2610   43.4213 C   0  0  0  0  0  0  0  0  0  0  0  0
    5.8298   -1.4757   44.1862 C   0  0  0  0  0  0  0  0  0  0  0  0
    4.7935   -2.4001   43.7916 C   0  0  0  0  0  0  0  0  0  0  0  0
    3.7229   -1.9180   43.0053 C   0  0  0  0  0  0  0  0  0  0  0  0
    6.9050   -1.8287   45.0507 C   0  0  0  0  0  0  0  0  0  0  0  0
    8.0560   -1.1492   45.3887 C   0  0  0  0  0  0  0  0  0  0  0  0
    8.9686   -1.6117   46.3789 C   0  0  0  0  0  0  0  0  0  0  0  0
    8.7667   -2.8570   46.9447 C   0  0  0  0  0  0  0  0  0  0  0  0
    6.7889   -3.1166   45.7946 C   0  0  0  0  0  0  0  0  0  0  0  0
    9.6809   -3.3636   47.9037 C   0  0  2  0  0  0  0  0  0  0  0  0
    7.6773   -3.5703   46.6759 C   0  0  0  0  0  0  0  0  0  0  0  0
   10.2077   -3.0419   48.7667 C   0  0  0  0  0  0  0  0  0  0  0  0
   11.1006   -3.6367   49.7540 C   0  0  0  0  0  0  0  0  0  0  0  0
   -2.3813   -1.6134   41.4179 Cl  0  0  0  0  0  0  0  0  0  0  0  0
   11.4435   -3.0507   51.0160 C   0  0  0  0  0  0  0  0  0  0  0  0
   11.0673   -1.7213   51.3267 C   0  0  0  0  0  0  0  0  0  0  0  0
   10.2744   -1.0038   50.4146 C   0  0  0  0  0  0  0  0  0  0  0  0
    9.8680   -1.5520   49.3030 C   0  0  0  0  0  0  0  0  0  0  0  0
   10.1332   -4.7749   47.4550 C   0  0  0  0  0  0  0  0  0  0  0  0
   11.3162   -4.9646   46.8442 C   0  0  0  0  0  0  0  0  0  0  0  0
   12.1860   -3.9893   46.4400 C   0  0  0  0  0  0  0  0  0  0  0  0
   11.5770   -6.3628   46.4410 C   0  0  0  0  0  0  0  0  0  0  0  0
   10.6560   -7.3061   46.3908 C   0  0  0  0  0  0  0  0  0  0  0  0
    9.4522   -7.0627   47.2335 C   0  0  0  0  0  0  0  0  0  0  0  0
    9.1997   -5.8213   47.6911 C   0  0  0  0  0  0  0  0  0  0  0  0
   12.0914   -3.0720   45.5645 N   0  0  0  0  0  0  0  0  0  0  0  0
  3  5  1  0
  5  6  1  0
 11 14  1  0
 19 17  1  6
  1 23  1  0
 19 28  1  0
 29 30  1  0
 30 35  1  0
 19 21  1  0
  1  2  2  0
  2  3  1  0
  3  9  2  0
  9  8  1  0
  8  4  2  0
  4  1  1  0
 28 29  2  0
 29 31  1  0
 31 32  2  0
 32 33  1  0
 33 34  2  0
 34 28  1  0
 14 15  2  0
 15 16  1  0
 16 17  2  0
 17 20  1  0
 20 18  2  0
 18 14  1  0
 21 22  2  0
 22 24  1  0
 24 25  2  0
 25 26  1  0
 26 27  2  0
 27 21  1  0
  6  7  2  0
  7 10  1  0
 10 11  2  0
 11 12  1  0
 12 13  2  0
 13  6  1  0
M  END
$$$$
O14757_PocketFlow_idx-in-all-generaetd-141
     RDKit          3D

 16 17  0  0  0  0  0  0  0  0999 V2000
   -0.6770   -2.0561   41.5845 Cl  0  0  0  0  0  0  0  0  0  0  0  0
    0.8348   -2.3079   42.0606 C   0  0  0  0  0  0  0  0  0  0  0  0
    1.1818   -3.2520   42.9667 C   0  0  0  0  0  0  0  0  0  0  0  0
    2.4247   -3.2903   43.4940 C   0  0  0  0  0  0  0  0  0  0  0  0
    3.3796   -2.3512   43.1591 C   0  0  0  0  0  0  0  0  0  0  0  0
    3.0240   -1.2720   42.4123 C   0  0  0  0  0  0  0  0  0  0  0  0
    1.7744   -1.3045   41.8324 C   0  0  0  0  0  0  0  0  0  0  0  0
    4.6130   -2.5341   43.9424 C   0  0  0  0  0  0  0  0  0  0  0  0
    5.6044   -1.4883   44.0080 C   0  0  0  0  0  0  0  0  0  0  0  0
    4.8928   -3.6877   44.7132 C   0  0  0  0  0  0  0  0  0  0  0  0
    6.7359   -1.6492   44.8063 N   0  0  0  0  0  0  0  0  0  0  0  0
    6.8743   -2.7460   45.6063 C   0  0  0  0  0  0  0  0  0  0  0  0
    8.0277   -2.8121   46.4714 C   0  0  0  0  0  0  0  0  0  0  0  0
    5.9613   -3.7595   45.5722 C   0  0  0  0  0  0  0  0  0  0  0  0
    9.1339   -1.9501   46.3523 C   0  0  0  0  0  0  0  0  0  0  0  0
    9.0273   -0.7559   45.6802 C   0  0  0  0  0  0  0  0  0  0  0  0
  1  2  1  0
  5  8  1  0
 12 13  1  0
 13 15  1  0
 15 16  1  0
  2  3  2  0
  3  4  1  0
  4  5  2  0
  5  6  1  0
  6  7  2  0
  7  2  1  0
  8  9  2  0
  9 11  1  0
 11 12  2  0
 12 14  1  0
 14 10  2  0
 10  8  1  0
M  END
$$$$
O14757_PocketFlow_idx-in-all-generaetd-142
     RDKit          3D

 35 39  0  0  0  0  0  0  0  0999 V2000
   -0.8794   -1.9236   41.9357 O   0  0  0  0  0  0  0  0  0  0  0  0
    0.3070   -1.6014   41.6735 C   0  0  0  0  0  0  0  0  0  0  0  0
    1.3011   -2.6668   41.5732 C   0  0  0  0  0  0  0  0  0  0  0  0
    0.7830   -0.3895   41.5690 O   0  0  0  0  0  0  0  0  0  0  0  0
    1.4136   -3.3574   42.7372 C   0  0  0  0  0  0  0  0  0  0  0  0
    2.5064   -3.2672   43.6271 C   0  0  0  0  0  0  0  0  0  0  0  0
    2.6203   -4.0657   44.7637 C   0  0  0  0  0  0  0  0  0  0  0  0
    1.4766   -4.6792   45.2618 C   0  0  0  0  0  0  0  0  0  0  0  0
    0.2830   -4.6212   44.5692 C   0  0  0  0  0  0  0  0  0  0  0  0
    0.2350   -4.0245   43.3534 C   0  0  0  0  0  0  0  0  0  0  0  0
    3.8862   -3.9748   45.5575 C   0  0  0  0  0  0  0  0  0  0  0  0
    4.6730   -2.8715   45.6451 C   0  0  0  0  0  0  0  0  0  0  0  0
    5.9315   -2.9564   46.3502 C   0  0  0  0  0  0  0  0  0  0  0  0
    6.9641   -2.0462   46.1440 C   0  0  0  0  0  0  0  0  0  0  0  0
    8.2483   -2.2553   46.6884 C   0  0  0  0  0  0  0  0  0  0  0  0
    8.4841   -3.3241   47.5490 C   0  0  0  0  0  0  0  0  0  0  0  0
    7.4107   -4.1968   47.8111 C   0  0  0  0  0  0  0  0  0  0  0  0
    6.1379   -4.0423   47.2440 C   0  0  0  0  0  0  0  0  0  0  0  0
    4.1791   -4.9890   46.4061 C   0  0  0  0  0  0  0  0  0  0  0  0
    5.2988   -5.1208   47.2384 C   0  0  0  0  0  0  0  0  0  0  0  0
    9.3261   -1.3092   46.3733 C   0  0  0  0  0  0  0  0  0  0  0  0
   10.5625   -1.5548   46.7645 N   0  0  0  0  0  0  0  0  0  0  0  0
   10.9383   -2.6112   47.0615 C   0  0  0  0  0  0  0  0  0  0  0  0
    9.9681   -3.5645   47.6959 C   0  0  2  0  0  0  0  0  0  0  0  0
    8.9734   -0.1845   45.8127 O   0  0  0  0  0  0  0  0  0  0  0  0
   10.3719   -4.8120   48.3582 C   0  0  0  0  0  0  0  0  0  0  0  0
   10.3291   -4.9769   49.5038 N   0  0  0  0  0  0  0  0  0  0  0  0
    9.6549   -5.9688   50.1786 C   0  0  0  0  0  0  0  0  0  0  0  0
    8.7045   -6.6117   49.6146 C   0  0  0  0  0  0  0  0  0  0  0  0
    8.7421   -8.0565   49.7920 C   0  0  0  0  0  0  0  0  0  0  0  0
    8.7207   -8.4983   50.9648 C   0  0  0  0  0  0  0  0  0  0  0  0
    9.6273   -7.7821   51.9254 C   0  0  0  0  0  0  0  0  0  0  0  0
   10.0853   -6.4588   51.5374 C   0  0  0  0  0  0  0  0  0  0  0  0
   10.9109   -3.8647   50.4496 C   0  0  0  0  0  0  0  0  0  0  0  0
   10.8211   -5.7175   47.6262 O   0  0  0  0  0  0  0  0  0  0  0  0
  1  2  2  0
  2  3  1  0
  2  4  1  0
  3  5  1  0
  7 11  1  0
 15 21  1  0
 21 22  1  0
 22 23  1  0
 16 24  1  0
 23 24  1  0
 21 25  2  0
 24 26  1  6
 26 27  1  0
 27 28  1  0
 27 34  1  0
 26 35  2  0
 11 12  2  0
 12 13  1  0
 18 20  1  0
 20 19  2  0
 19 11  1  0
  5  6  2  0
  6  7  1  0
  7  8  2  0
  8  9  1  0
  9 10  2  0
 10  5  1  0
 28 29  2  0
 29 30  1  0
 30 31  2  0
 31 32  1  0
 32 33  2  0
 33 28  1  0
 13 14  2  0
 14 15  1  0
 15 16  2  0
 16 17  1  0
 17 18  2  0
 18 13  1  0
M  END
$$$$
O14757_PocketFlow_idx-in-all-generaetd-143
     RDKit          3D

  7  7  0  0  0  0  0  0  0  0999 V2000
   -0.6395   -2.0713   41.4947 C   0  0  0  0  0  0  0  0  0  0  0  0
    0.6719   -2.2449   41.7518 C   0  0  0  0  0  0  0  0  0  0  0  0
    1.1287   -3.3339   42.4778 C   0  0  0  0  0  0  0  0  0  0  0  0
    2.2706   -3.1945   43.3374 C   0  0  0  0  0  0  0  0  0  0  0  0
    3.1681   -2.1636   43.0472 C   0  0  0  0  0  0  0  0  0  0  0  0
    2.7770   -1.0548   42.2739 C   0  0  0  0  0  0  0  0  0  0  0  0
    1.4918   -1.1085   41.6774 C   0  0  0  0  0  0  0  0  0  0  0  0
  1  2  1  0
  2  3  2  0
  3  4  1  0
  4  5  2  0
  5  6  1  0
  6  7  2  0
  7  2  1  0
M  END
$$$$
O14757_PocketFlow_idx-in-all-generaetd-144
     RDKit          3D

 17 19  0  0  0  0  0  0  0  0999 V2000
    0.0138   -2.7927   42.5918 N   0  0  0  0  0  0  0  0  0  0  0  0
    1.1722   -3.1858   42.8673 C   0  0  0  0  0  0  0  0  0  0  0  0
    1.4725   -4.0593   43.8477 C   0  0  0  0  0  0  0  0  0  0  0  0
    2.6678   -4.0777   44.5978 C   0  0  0  0  0  0  0  0  0  0  0  0
    3.6698   -3.1383   44.1778 C   0  0  0  0  0  0  0  0  0  0  0  0
    3.4406   -2.1526   43.2407 C   0  0  0  0  0  0  0  0  0  0  0  0
    2.1688   -2.1850   42.6962 C   0  0  0  0  0  0  0  0  0  0  0  0
   -0.1251   -1.7071   41.8172 C   0  0  0  0  0  0  0  0  0  0  0  0
    1.6161   -1.1184   41.8639 C   0  0  0  0  0  0  0  0  0  0  0  0
    0.4826   -5.1567   44.2402 C   0  0  0  0  0  0  0  0  0  0  0  0
    0.5080   -5.7841   45.1243 C   0  0  0  0  0  0  0  0  0  0  0  0
   -0.5016   -6.8228   45.4147 C   0  0  0  0  0  0  0  0  0  0  0  0
   -1.6422   -6.8203   44.6800 C   0  0  0  0  0  0  0  0  0  0  0  0
   -2.5823   -7.8991   44.9790 C   0  0  0  0  0  0  0  0  0  0  0  0
   -2.4021   -8.6882   46.0888 C   0  0  0  0  0  0  0  0  0  0  0  0
   -1.3453   -8.5908   46.9126 C   0  0  0  0  0  0  0  0  0  0  0  0
   -0.3401   -7.6282   46.6618 C   0  0  0  0  0  0  0  0  0  0  0  0
  1  2  1  0
  1  8  2  0
  7  9  1  0
  8  9  1  0
  3 10  1  0
 10 11  2  3
 11 12  1  0
 12 13  2  0
 13 14  1  0
 14 15  2  0
 15 16  1  0
 16 17  2  0
 17 12  1  0
  2  3  2  0
  3  4  1  0
  4  5  2  0
  5  6  1  0
  6  7  2  0
  7  2  1  0
M  END
$$$$
O14757_PocketFlow_idx-in-all-generaetd-145
     RDKit          3D

 13 14  0  0  0  0  0  0  0  0999 V2000
   -0.6395   -2.0713   41.4947 C   0  0  0  0  0  0  0  0  0  0  0  0
    0.1859   -1.1027   41.5970 C   0  0  0  0  0  0  0  0  0  0  0  0
    1.5836   -1.3270   41.4669 C   0  0  0  0  0  0  0  0  0  0  0  0
   -0.2462   -3.3905   41.2409 C   0  0  0  0  0  0  0  0  0  0  0  0
    2.5788   -0.3160   41.7511 C   0  0  0  0  0  0  0  0  0  0  0  0
    3.8805   -0.6481   42.0316 C   0  0  0  0  0  0  0  0  0  0  0  0
    4.1140   -1.7786   42.9289 C   0  0  0  0  0  0  0  0  0  0  0  0
    3.0425   -2.6868   43.1417 C   0  0  1  0  0  0  0  0  0  0  0  0
    3.2654   -3.7751   44.0096 C   0  0  0  0  0  0  0  0  0  0  0  0
    4.5257   -4.0638   44.4809 C   0  0  0  0  0  0  0  0  0  0  0  0
    1.7172   -2.3985   42.5600 C   0  0  0  0  0  0  0  0  0  0  0  0
    0.9536   -3.6494   42.2005 C   0  0  0  0  0  0  0  0  0  0  0  0
    4.5845   -4.9907   45.4978 C   0  0  0  0  0  0  0  0  0  0  0  0
  3  5  1  0
  5  6  1  0
  6  7  1  0
  8  7  1  1
  8  9  1  0
  9 10  2  3
  8 11  1  0
 10 13  1  0
  1  2  2  0
  2  3  1  0
  3 11  2  0
 11 12  1  0
 12  4  2  0
  4  1  1  0
M  END
$$$$
O14757_PocketFlow_idx-in-all-generaetd-146
     RDKit          3D

 27 28  0  0  0  0  0  0  0  0999 V2000
    0.2881   -2.9111   42.4378 C   0  0  0  0  0  0  0  0  0  0  0  0
   -0.0650   -2.5021   41.5798 C   0  0  0  0  0  0  0  0  0  0  0  0
    1.6108   -3.5167   42.6657 C   0  0  0  0  0  0  0  0  0  0  0  0
    2.0262   -4.1022   43.9169 C   0  0  0  0  0  0  0  0  0  0  0  0
    3.3116   -4.3084   44.3274 C   0  0  0  0  0  0  0  0  0  0  0  0
    3.6450   -5.1190   45.4311 C   0  0  0  0  0  0  0  0  0  0  0  0
    2.6115   -5.7799   46.0015 C   0  0  0  0  0  0  0  0  0  0  0  0
    1.2816   -5.6155   45.6827 C   0  0  0  0  0  0  0  0  0  0  0  0
    0.9586   -4.7841   44.5269 C   0  0  0  0  0  0  0  0  0  0  0  0
   -1.4473   -1.9746   41.4671 C   0  0  0  0  0  0  0  0  0  0  0  0
    0.1709   -6.3351   46.3172 C   0  0  1  0  0  0  0  0  0  0  0  0
   -1.1072   -6.1583   45.6993 C   0  0  1  0  0  0  0  0  0  0  0  0
   -1.3585   -7.4740   44.9628 C   0  0  2  0  0  0  0  0  0  0  0  0
   -2.4023   -7.5567   44.2016 O   0  0  0  0  0  0  0  0  0  0  0  0
    4.6174   -3.2833   43.7180 Cl  0  0  0  0  0  0  0  0  0  0  0  0
   -2.2632   -2.2032   40.9345 F   0  0  0  0  0  0  0  0  0  0  0  0
   -1.2431   -0.4649   41.0753 F   0  0  0  0  0  0  0  0  0  0  0  0
   -2.2098   -6.2512   46.8025 N   0  0  0  0  0  0  0  0  0  0  0  0
    0.4875   -7.6606   46.6919 O   0  0  0  0  0  0  0  0  0  0  0  0
   -0.4431   -8.5041   46.0475 C   0  0  1  0  0  0  0  0  0  0  0  0
   -1.4638   -9.0161   46.9840 C   0  0  0  0  0  0  0  0  0  0  0  0
   -0.9305   -9.9170   47.8246 C   0  0  0  0  0  0  0  0  0  0  0  0
   -1.0696  -11.0264   47.5468 C   0  0  0  0  0  0  0  0  0  0  0  0
   -0.9055  -12.1206   48.1843 C   0  0  0  0  0  0  0  0  0  0  0  0
   -1.1178  -13.4120   47.6795 C   0  0  0  0  0  0  0  0  0  0  0  0
   -1.4909  -13.5600   46.3023 C   0  0  0  0  0  0  0  0  0  0  0  0
   -1.7473  -12.3911   45.6428 C   0  0  0  0  0  0  0  0  0  0  0  0
  1  2  2  3
  1  3  1  0
  3  4  1  0
  2 10  1  0
 11  8  1  6
 11 12  1  0
 12 13  1  0
 13 14  1  1
  5 15  1  0
 10 16  1  0
 10 17  1  0
 12 18  1  1
 11 19  1  0
 13 20  1  0
 19 20  1  0
 20 21  1  1
 21 22  1  0
 22 23  2  3
 23 24  1  0
 24 25  2  3
 25 26  1  0
 26 27  2  0
  4  5  2  0
  5  6  1  0
  6  7  2  0
  7  8  1  0
  8  9  2  0
  9  4  1  0
M  END
$$$$
O14757_PocketFlow_idx-in-all-generaetd-147
     RDKit          3D

 29 33  0  0  0  0  0  0  0  0999 V2000
    0.2881   -2.9111   42.4378 C   0  0  0  0  0  0  0  0  0  0  0  0
   -0.0650   -2.5021   41.5798 C   0  0  1  0  0  0  0  0  0  0  0  0
    1.5584   -2.5265   43.0885 C   0  0  0  0  0  0  0  0  0  0  0  0
    2.2571   -1.5118   42.4661 C   0  0  0  0  0  0  0  0  0  0  0  0
    3.4685   -1.0138   43.0315 C   0  0  0  0  0  0  0  0  0  0  0  0
    4.0580   -1.7733   44.0719 C   0  0  0  0  0  0  0  0  0  0  0  0
    3.4077   -2.9210   44.5707 C   0  0  0  0  0  0  0  0  0  0  0  0
    2.1973   -3.3639   44.0877 C   0  0  0  0  0  0  0  0  0  0  0  0
   -1.4255   -2.8171   41.0574 C   0  0  0  0  0  0  0  0  0  0  0  0
    5.3923   -1.3739   44.6002 C   0  0  0  0  0  0  0  0  0  0  0  0
    5.8675   -1.7619   45.6083 C   0  0  0  0  0  0  0  0  0  0  0  0
    7.1897   -1.4845   46.0573 C   0  0  0  0  0  0  0  0  0  0  0  0
    7.8853   -2.2666   47.0467 C   0  0  0  0  0  0  0  0  0  0  0  0
    7.1579   -3.3658   47.6264 C   0  0  0  0  0  0  0  0  0  0  0  0
    5.8497   -3.6662   47.1383 C   0  0  0  0  0  0  0  0  0  0  0  0
    5.2588   -2.8865   46.2080 C   0  0  0  0  0  0  0  0  0  0  0  0
    4.0346   -3.4883   45.7099 C   0  0  0  0  0  0  0  0  0  0  0  0
    1.4908   -0.9052   41.4359 C   0  0  0  0  0  0  0  0  0  0  0  0
    0.3484   -1.2923   41.0471 N   0  0  0  0  0  0  0  0  0  0  0  0
    2.0243    0.2487   40.9650 O   0  0  0  0  0  0  0  0  0  0  0  0
    9.2034   -1.9340   47.5528 C   0  0  0  0  0  0  0  0  0  0  0  0
    9.5639   -1.9075   48.6899 N   0  0  0  0  0  0  0  0  0  0  0  0
    8.8666   -1.7415   49.7283 C   0  0  0  0  0  0  0  0  0  0  0  0
    9.5621   -1.6362   51.0501 C   0  0  0  0  0  0  0  0  0  0  0  0
   11.0150   -2.0801   48.9919 C   0  0  0  0  0  0  0  0  0  0  0  0
   11.6142   -1.9548   50.1972 C   0  0  0  0  0  0  0  0  0  0  0  0
   10.7975   -1.7532   51.3081 C   0  0  0  0  0  0  0  0  0  0  0  0
    9.9079   -1.2816   46.6051 O   0  0  0  0  0  0  0  0  0  0  0  0
    1.6030   -4.3787   44.5407 F   0  0  0  0  0  0  0  0  0  0  0  0
  1  3  1  0
  2  9  1  1
  4 18  1  0
  2 19  1  0
 18 19  1  0
 18 20  2  0
 13 21  1  0
 21 22  1  0
 22 23  1  0
 22 25  1  0
 24 27  1  0
 26 27  1  0
 21 28  2  0
  8 29  1  0
 23 24  1  0
 26 25  1  0
  1  2  1  0
  7 17  1  0
 17 16  2  0
 11 10  2  0
 10  6  1  0
  3  4  2  0
  4  5  1  0
  5  6  2  0
  6  7  1  0
  7  8  2  0
  8  3  1  0
 11 12  1  0
 12 13  2  0
 13 14  1  0
 14 15  2  0
 15 16  1  0
 16 11  1  0
M  END
$$$$
O14757_PocketFlow_idx-in-all-generaetd-148
     RDKit          3D

 10 10  0  0  0  0  0  0  0  0999 V2000
   -0.6395   -2.0713   41.4947 C   0  0  0  0  0  0  0  0  0  0  0  0
    0.1859   -1.1027   41.5970 C   0  0  0  0  0  0  0  0  0  0  0  0
    1.5836   -1.3270   41.4670 C   0  0  0  0  0  0  0  0  0  0  0  0
   -0.2462   -3.3905   41.2409 C   0  0  0  0  0  0  0  0  0  0  0  0
    2.3477   -1.2946   42.4061 C   0  0  0  0  0  0  0  0  0  0  0  0
    2.7729   -2.4267   43.1219 C   0  0  0  0  0  0  0  0  0  0  0  0
    3.9041   -2.4167   44.0670 C   0  0  0  0  0  0  0  0  0  0  0  0
    4.5712   -1.2218   44.2757 C   0  0  0  0  0  0  0  0  0  0  0  0
    4.3259   -0.1595   43.4273 C   0  0  0  0  0  0  0  0  0  0  0  0
    3.3207   -0.1444   42.5129 C   0  0  0  0  0  0  0  0  0  0  0  0
  1  2  1  0
  2  3  2  3
  1  4  1  0
  3  5  1  0
  5  6  2  0
  6  7  1  0
  7  8  2  0
  8  9  1  0
  9 10  2  0
 10  5  1  0
M  END
$$$$
O14757_PocketFlow_idx-in-all-generaetd-149
     RDKit          3D

 22 23  0  0  0  0  0  0  0  0999 V2000
   -0.6395   -2.0713   41.4947 C   0  0  0  0  0  0  0  0  0  0  0  0
   -0.2671   -3.2464   41.6546 C   0  0  0  0  0  0  0  0  0  0  0  0
   -2.0053   -1.6706   41.3987 C   0  0  0  0  0  0  0  0  0  0  0  0
   -2.2862   -0.2693   41.2308 C   0  0  0  0  0  0  0  0  0  0  0  0
   -1.0982    0.4389   41.2497 N   0  0  0  0  0  0  0  0  0  0  0  0
    0.1425   -0.8167   41.4211 C   0  0  0  0  0  0  0  0  0  0  0  0
    1.4243   -0.4857   41.4720 C   0  0  0  0  0  0  0  0  0  0  0  0
    2.0782    0.7479   41.5565 C   0  0  0  0  0  0  0  0  0  0  0  0
    2.2752   -1.6237   41.7905 C   0  0  0  0  0  0  0  0  0  0  0  0
    3.5878   -1.4930   42.1927 C   0  0  0  0  0  0  0  0  0  0  0  0
    3.7691   -0.9166   43.2931 C   0  0  0  0  0  0  0  0  0  0  0  0
    5.0689   -1.2409   43.9955 C   0  0  0  0  0  0  0  0  0  0  0  0
    5.9738   -0.9028   44.3568 C   0  0  0  0  0  0  0  0  0  0  0  0
    6.9777   -1.6326   45.1337 C   0  0  0  0  0  0  0  0  0  0  0  0
    6.6156   -2.7121   45.7796 C   0  0  0  0  0  0  0  0  0  0  0  0
    4.6815   -2.6559   44.6844 C   0  0  0  0  0  0  0  0  0  0  0  0
    5.4574   -3.2691   45.4751 C   0  0  0  0  0  0  0  0  0  0  0  0
    7.4914   -3.5061   46.6883 C   0  0  0  0  0  0  0  0  0  0  0  0
    8.8129   -3.3313   46.8285 N   0  0  0  0  0  0  0  0  0  0  0  0
    9.6312   -4.1960   47.3994 C   0  0  0  0  0  0  0  0  0  0  0  0
    6.9910   -4.1071   47.7099 O   0  0  0  0  0  0  0  0  0  0  0  0
    9.3288   -5.1015   48.0239 C   0  0  0  0  0  0  0  0  0  0  0  0
  1  2  1  0
  1  3  1  0
  3  4  2  0
  4  5  1  0
  1  6  1  0
  5  6  1  0
  6  7  1  0
  7  8  2  0
  7  9  1  0
  9 10  1  0
 10 11  1  0
 11 12  1  0
 15 18  1  0
 18 19  1  0
 19 20  1  0
 18 21  2  0
 20 22  1  0
 12 13  2  0
 13 14  1  0
 14 15  2  0
 15 17  1  0
 17 16  2  0
 16 12  1  0
M  END
$$$$
O14757_PocketFlow_idx-in-all-generaetd-150
     RDKit          3D

 32 35  0  0  0  0  0  0  0  0999 V2000
   -0.6395   -2.0713   41.4947 C   0  0  0  0  0  0  0  0  0  0  0  0
    0.1859   -1.1027   41.5970 C   0  0  0  0  0  0  0  0  0  0  0  0
   -0.2410   -3.3795   41.5297 C   0  0  0  0  0  0  0  0  0  0  0  0
    1.6125   -1.3642   41.8466 C   0  0  0  0  0  0  0  0  0  0  0  0
    1.9568   -2.7213   42.1561 C   0  0  0  0  0  0  0  0  0  0  0  0
    3.2405   -2.9356   42.7549 C   0  0  0  0  0  0  0  0  0  0  0  0
    1.0096   -3.6954   41.9519 C   0  0  0  0  0  0  0  0  0  0  0  0
    3.3422   -3.8674   43.8357 C   0  0  0  0  0  0  0  0  0  0  0  0
    4.5844   -3.8432   44.5814 C   0  0  0  0  0  0  0  0  0  0  0  0
    5.4210   -2.7109   44.5702 C   0  0  0  0  0  0  0  0  0  0  0  0
    5.1701   -1.6852   43.6066 C   0  0  0  0  0  0  0  0  0  0  0  0
    4.0486   -1.7156   42.8243 C   0  0  0  0  0  0  0  0  0  0  0  0
   -2.0770   -1.8099   41.0731 C   0  0  0  0  0  0  0  0  0  0  0  0
   -2.7843   -2.6755   40.5591 O   0  0  0  0  0  0  0  0  0  0  0  0
   -2.5394   -0.5972   41.2885 O   0  0  0  0  0  0  0  0  0  0  0  0
    6.6575   -2.6201   45.3734 C   0  0  0  0  0  0  0  0  0  0  0  0
    7.3529   -1.5211   45.4493 N   0  0  0  0  0  0  0  0  0  0  0  0
    8.5004   -1.5130   46.2344 C   0  0  0  0  0  0  0  0  0  0  0  0
    8.8326   -2.5350   47.0349 C   0  0  0  0  0  0  0  0  0  0  0  0
    7.0036   -3.6827   46.2497 C   0  0  0  0  0  0  0  0  0  0  0  0
    8.0895   -3.6498   47.0301 C   0  0  0  0  0  0  0  0  0  0  0  0
   10.0967   -2.3802   47.8628 C   0  0  0  0  0  0  0  0  0  0  0  0
   11.2232   -2.0677   47.3397 C   0  0  0  0  0  0  0  0  0  0  0  0
   11.6733   -2.3320   46.3111 C   0  0  0  0  0  0  0  0  0  0  0  0
   12.8171   -2.0854   45.8565 C   0  0  0  0  0  0  0  0  0  0  0  0
   13.7467   -1.2411   46.5253 C   0  0  0  0  0  0  0  0  0  0  0  0
   12.1225   -1.2733   48.2432 C   0  0  0  0  0  0  0  0  0  0  0  0
   13.3651   -0.8474   47.8249 C   0  0  0  0  0  0  0  0  0  0  0  0
    9.8500   -2.6957   49.3111 C   0  0  0  0  0  0  0  0  0  0  0  0
    9.2079   -1.6699   50.1035 C   0  0  0  0  0  0  0  0  0  0  0  0
    8.9462   -1.9374   51.4914 C   0  0  0  0  0  0  0  0  0  0  0  0
    8.2880   -1.1152   52.3229 C   0  0  0  0  0  0  0  0  0  0  0  0
  5  6  1  0
  1 13  1  0
 13 14  2  0
 13 15  1  0
 10 16  1  0
 19 22  1  0
 22 23  1  0
 22 29  1  0
 29 30  1  0
 30 31  2  3
 31 32  1  0
  1  2  2  0
  2  4  1  0
  4  5  2  0
  5  7  1  0
  7  3  2  0
  3  1  1  0
 23 24  2  0
 24 25  1  0
 25 26  2  0
 26 28  1  0
 28 27  2  0
 27 23  1  0
  6  8  2  0
  8  9  1  0
  9 10  2  0
 10 11  1  0
 11 12  2  0
 12  6  1  0
 16 17  2  0
 17 18  1  0
 18 19  2  0
 19 21  1  0
 21 20  2  0
 20 16  1  0
M  END
$$$$
O14757_PocketFlow_idx-in-all-generaetd-151
     RDKit          3D

 20 22  0  0  0  0  0  0  0  0999 V2000
   -0.6395   -2.0713   41.4947 C   0  0  0  0  0  0  0  0  0  0  0  0
   -0.2671   -3.2464   41.6546 C   0  0  0  0  0  0  0  0  0  0  0  0
    0.2277   -0.9875   41.6495 C   0  0  0  0  0  0  0  0  0  0  0  0
    1.6284   -1.2752   41.8841 C   0  0  0  0  0  0  0  0  0  0  0  0
    1.9209   -2.6657   42.2361 C   0  0  0  0  0  0  0  0  0  0  0  0
    0.9459   -3.6290   42.1337 C   0  0  0  0  0  0  0  0  0  0  0  0
    2.5663   -0.2443   42.1477 C   0  0  0  0  0  0  0  0  0  0  0  0
    3.9004   -0.5388   42.5613 C   0  0  0  0  0  0  0  0  0  0  0  0
    4.1674   -1.7913   43.1599 C   0  0  0  0  0  0  0  0  0  0  0  0
    3.1445   -2.8565   42.9696 C   0  0  0  0  0  0  0  0  0  0  0  0
    5.4136   -2.0640   43.8033 C   0  0  0  0  0  0  0  0  0  0  0  0
    5.6515   -2.2961   44.8142 C   0  0  0  0  0  0  0  0  0  0  0  0
    7.0166   -2.4601   45.5244 C   0  0  0  0  0  0  0  0  0  0  0  0
    7.1645   -3.1029   46.7786 C   0  0  0  0  0  0  0  0  0  0  0  0
    6.2357   -3.7622   47.1873 C   0  0  0  0  0  0  0  0  0  0  0  0
    4.8640   -3.7211   46.7354 C   0  0  0  0  0  0  0  0  0  0  0  0
    4.6723   -3.0571   45.6012 C   0  0  0  0  0  0  0  0  0  0  0  0
   -2.0253   -1.7058   41.0192 C   0  0  2  0  0  0  0  0  0  0  0  0
   -2.6343   -0.5377   41.2839 N   0  0  0  0  0  0  0  0  0  0  0  0
   -2.7390   -2.5595   40.4997 F   0  0  0  0  0  0  0  0  0  0  0  0
  9 11  1  0
  1 18  1  0
 18 19  1  1
 18 20  1  0
 11 12  1  0
 12 13  2  0
 13 14  1  0
 14 15  2  0
 15 16  1  0
 16 17  2  0
 17 12  1  0
  5 10  1  0
 10  9  2  0
  9  8  1  0
  8  7  2  0
  7  4  1  0
  1  2  2  0
  2  6  1  0
  6  5  2  0
  5  4  1  0
  4  3  2  0
  3  1  1  0
M  END
$$$$
O14757_PocketFlow_idx-in-all-generaetd-152
     RDKit          3D

 35 38  0  0  0  0  0  0  0  0999 V2000
   -0.6395   -2.0713   41.4947 C   0  0  0  0  0  0  0  0  0  0  0  0
    0.1859   -1.1027   41.5970 C   0  0  0  0  0  0  0  0  0  0  0  0
    1.5858   -1.4430   41.9548 C   0  0  0  0  0  0  0  0  0  0  0  0
   -0.3290   -3.4217   41.4987 C   0  0  0  0  0  0  0  0  0  0  0  0
    1.8734   -2.7956   42.1741 C   0  0  0  0  0  0  0  0  0  0  0  0
    0.8724   -3.7449   42.0341 C   0  0  0  0  0  0  0  0  0  0  0  0
    2.6019   -0.4572   42.2191 C   0  0  0  0  0  0  0  0  0  0  0  0
    3.8719   -0.7666   42.7314 C   0  0  0  0  0  0  0  0  0  0  0  0
    4.6385   -0.2465   43.4917 C   0  0  0  0  0  0  0  0  0  0  0  0
   -2.0985   -1.7426   41.0626 C   0  0  0  0  0  0  0  0  0  0  0  0
    5.9954   -0.7699   43.7157 C   0  0  0  0  0  0  0  0  0  0  0  0
    6.1892   -1.9049   44.5568 C   0  0  0  0  0  0  0  0  0  0  0  0
    5.2015   -2.8538   44.7785 C   0  0  0  0  0  0  0  0  0  0  0  0
    5.4119   -3.9954   45.6212 C   0  0  0  0  0  0  0  0  0  0  0  0
    4.3306   -4.7574   46.0006 C   0  0  0  0  0  0  0  0  0  0  0  0
    3.1219   -4.6172   45.3116 C   0  0  0  0  0  0  0  0  0  0  0  0
    2.0711   -5.5030   45.6143 C   0  0  0  0  0  0  0  0  0  0  0  0
    0.7360   -5.1107   45.6305 C   0  0  0  0  0  0  0  0  0  0  0  0
   -0.1716   -5.8330   46.2956 C   0  0  0  0  0  0  0  0  0  0  0  0
   -0.7853   -6.9567   45.5726 C   0  0  0  0  0  0  0  0  0  0  0  0
   -0.5326   -7.0903   44.2670 C   0  0  0  0  0  0  0  0  0  0  0  0
   -1.6428   -7.9527   46.1882 C   0  0  0  0  0  0  0  0  0  0  0  0
   -1.2548   -8.4375   47.3650 C   0  0  0  0  0  0  0  0  0  0  0  0
   -2.8028   -8.3664   45.6097 C   0  0  0  0  0  0  0  0  0  0  0  0
   -3.2273   -7.8477   44.3727 C   0  0  0  0  0  0  0  0  0  0  0  0
   -4.4962   -8.3696   43.8798 C   0  0  0  0  0  0  0  0  0  0  0  0
   -5.0359   -9.4174   44.4458 C   0  0  0  0  0  0  0  0  0  0  0  0
   -3.6368   -9.3140   46.1380 C   0  0  0  0  0  0  0  0  0  0  0  0
   -4.7345   -9.8360   45.6679 C   0  0  0  0  0  0  0  0  0  0  0  0
   -2.8495   -2.5876   40.5648 O   0  0  0  0  0  0  0  0  0  0  0  0
   -2.5661   -0.5832   41.5355 O   0  0  0  0  0  0  0  0  0  0  0  0
    3.0960   -3.5505   44.4256 C   0  0  0  0  0  0  0  0  0  0  0  0
    4.0736   -2.6461   44.2049 C   0  0  0  0  0  0  0  0  0  0  0  0
    3.8204   -2.2257   42.7679 O   0  0  0  0  0  0  0  0  0  0  0  0
   -0.4126   -9.3859   47.3824 C   0  0  0  0  0  0  0  0  0  0  0  0
  3  7  1  0
  7  8  2  3
  8  9  1  0
  1 10  1  0
  9 11  2  0
 11 12  1  0
 16 17  1  0
 17 18  1  0
 18 19  1  0
 19 20  1  0
 20 21  1  0
 20 22  1  0
 22 23  2  3
 22 24  1  0
 10 30  2  0
 10 31  1  0
  8 34  1  0
 33 34  1  0
 23 35  1  0
 12 13  1  0
  1  2  2  0
  2  3  1  0
  3  5  2  0
  5  6  1  0
  6  4  2  0
  4  1  1  0
 24 25  2  0
 25 26  1  0
 26 27  2  0
 27 29  1  0
 29 28  2  0
 28 24  1  0
 13 14  2  0
 14 15  1  0
 15 16  2  0
 16 32  1  0
 32 33  2  0
 33 13  1  0
M  END
$$$$
O14757_PocketFlow_idx-in-all-generaetd-153
     RDKit          3D

  8  7  0  0  0  0  0  0  0  0999 V2000
   -0.6395   -2.0713   41.4947 C   0  0  0  0  0  0  0  0  0  0  0  0
    0.6719   -2.2449   41.7518 C   0  0  0  0  0  0  0  0  0  0  0  0
    1.3815   -1.6359   42.7231 C   0  0  0  0  0  0  0  0  0  0  0  0
    2.6262   -2.3088   43.1218 C   0  0  0  0  0  0  0  0  0  0  0  0
    3.8495   -1.6378   43.2724 C   0  0  0  0  0  0  0  0  0  0  0  0
    4.8997   -2.2675   44.0415 C   0  0  0  0  0  0  0  0  0  0  0  0
    6.0137   -1.5133   44.5181 C   0  0  0  0  0  0  0  0  0  0  0  0
   -1.4200   -3.0325   40.9074 C   0  0  0  0  0  0  0  0  0  0  0  0
  1  2  1  0
  2  3  1  0
  3  4  1  0
  4  5  2  3
  5  6  1  0
  6  7  2  0
  1  8  1  0
M  END
$$$$
O14757_PocketFlow_idx-in-all-generaetd-154
     RDKit          3D

 26 29  0  0  0  0  0  0  0  0999 V2000
    0.2881   -2.9111   42.4378 C   0  0  0  0  0  0  0  0  0  0  0  0
    1.3023   -2.0648   42.1981 C   0  0  0  0  0  0  0  0  0  0  0  0
    0.9971   -0.8647   41.5341 C   0  0  0  0  0  0  0  0  0  0  0  0
   -0.8757   -2.7270   42.0624 O   0  0  0  0  0  0  0  0  0  0  0  0
    0.7126   -4.2122   42.8991 N   0  0  0  0  0  0  0  0  0  0  0  0
    2.0644    0.1282   41.4626 C   0  0  0  0  0  0  0  0  0  0  0  0
    3.2535   -0.0611   42.1034 C   0  0  0  0  0  0  0  0  0  0  0  0
    3.5789   -1.2249   42.7736 C   0  0  0  0  0  0  0  0  0  0  0  0
    2.5703   -2.2154   42.9135 C   0  0  0  0  0  0  0  0  0  0  0  0
    4.8397   -1.3433   43.4738 C   0  0  0  0  0  0  0  0  0  0  0  0
    5.7098   -0.2972   43.7545 C   0  0  0  0  0  0  0  0  0  0  0  0
    5.1613   -2.6492   44.0025 C   0  0  0  0  0  0  0  0  0  0  0  0
    1.6141   -4.4191   43.8699 C   0  0  1  0  0  0  0  0  0  0  0  0
    1.6114   -5.5952   44.6267 C   0  0  0  0  0  0  0  0  0  0  0  0
    2.7336   -3.5409   44.0620 C   0  0  1  0  0  0  0  0  0  0  0  0
    4.1034   -3.6040   44.3120 C   0  0  0  0  0  0  0  0  0  0  0  0
    0.7103   -5.5615   45.7487 C   0  0  0  0  0  0  0  0  0  0  0  0
   -0.0632   -6.7093   46.0898 C   0  0  0  0  0  0  0  0  0  0  0  0
   -1.3643   -6.7050   45.9753 C   0  0  0  0  0  0  0  0  0  0  0  0
   -2.1690   -7.9274   46.1120 C   0  0  0  0  0  0  0  0  0  0  0  0
   -1.4329   -9.0262   46.5440 C   0  0  0  0  0  0  0  0  0  0  0  0
   -0.0671   -9.0587   46.6588 C   0  0  0  0  0  0  0  0  0  0  0  0
    0.6283   -7.8165   46.4788 C   0  0  0  0  0  0  0  0  0  0  0  0
   -3.5691   -7.9394   45.9260 C   0  0  0  0  0  0  0  0  0  0  0  0
   -4.2824   -8.5914   46.6207 N   0  0  0  0  0  0  0  0  0  0  0  0
   -4.0013   -7.6361   44.6694 O   0  0  0  0  0  0  0  0  0  0  0  0
  1  2  1  0
  1  4  2  0
  1  5  1  0
  8 10  1  0
 10 11  2  0
 10 12  1  0
  5 13  1  0
 13 14  1  6
  9 15  1  0
 13 15  1  0
 12 16  1  0
 15 16  1  6
 14 17  1  0
 20 24  1  0
 24 25  1  0
 24 26  2  0
 17 18  1  0
 18 19  2  0
 19 20  1  0
 20 21  2  0
 21 22  1  0
 22 23  2  0
 23 18  1  0
  2  3  2  0
  3  6  1  0
  6  7  2  0
  7  8  1  0
  8  9  2  0
  9  2  1  0
M  END
$$$$
O14757_PocketFlow_idx-in-all-generaetd-155
     RDKit          3D

 14 15  0  0  0  0  0  0  0  0999 V2000
   -0.6395   -2.0713   41.4947 C   0  0  0  0  0  0  0  0  0  0  0  0
   -0.2671   -3.2464   41.6546 C   0  0  0  0  0  0  0  0  0  0  0  0
   -1.9911   -1.6663   41.2869 C   0  0  0  0  0  0  0  0  0  0  0  0
   -2.8197   -2.6218   40.7055 C   0  0  0  0  0  0  0  0  0  0  0  0
    1.0882   -3.6261   41.9223 C   0  0  0  0  0  0  0  0  0  0  0  0
    1.9507   -2.5381   42.2089 C   0  0  0  0  0  0  0  0  0  0  0  0
    1.4880   -1.2272   42.1560 C   0  0  0  0  0  0  0  0  0  0  0  0
    0.1721   -0.9457   41.8050 C   0  0  0  0  0  0  0  0  0  0  0  0
    2.4862   -0.1031   42.3292 C   0  0  0  0  0  0  0  0  0  0  0  0
    3.7943   -0.3595   42.7846 C   0  0  0  0  0  0  0  0  0  0  0  0
    4.2740   -1.6087   42.7866 C   0  0  0  0  0  0  0  0  0  0  0  0
    3.5095   -2.7032   42.8573 C   0  0  0  0  0  0  0  0  0  0  0  0
   -4.0581   -2.1295   40.2914 N   0  0  0  0  0  0  0  0  0  0  0  0
    4.6540    0.6282   42.8549 F   0  0  0  0  0  0  0  0  0  0  0  0
  1  3  1  0
  3  4  2  3
  4 13  1  0
 10 14  1  0
  7  9  1  0
  9 10  2  0
 10 11  1  0
 11 12  2  0
 12  6  1  0
  1  2  2  0
  2  5  1  0
  5  6  2  0
  6  7  1  0
  7  8  2  0
  8  1  1  0
M  END
$$$$
O14757_PocketFlow_idx-in-all-generaetd-156
     RDKit          3D

 12 13  0  0  0  0  0  0  0  0999 V2000
    0.2881   -2.9111   42.4378 C   0  0  0  0  0  0  0  0  0  0  0  0
   -0.0650   -2.5021   41.5798 C   0  0  0  0  0  0  0  0  0  0  0  0
    1.5584   -2.5265   43.0884 C   0  0  0  0  0  0  0  0  0  0  0  0
    2.2471   -3.1944   44.1996 C   0  0  0  0  0  0  0  0  0  0  0  0
    3.5140   -2.9109   44.5638 C   0  0  0  0  0  0  0  0  0  0  0  0
    4.2251   -3.6883   45.5589 C   0  0  0  0  0  0  0  0  0  0  0  0
    0.3900   -1.1796   41.0663 C   0  0  0  0  0  0  0  0  0  0  0  0
    1.5260   -0.6249   41.6997 C   0  0  0  0  0  0  0  0  0  0  0  0
    2.1347   -1.3269   42.6921 C   0  0  0  0  0  0  0  0  0  0  0  0
    1.5345   -4.0847   45.0924 C   0  0  0  0  0  0  0  0  0  0  0  0
    2.2128   -4.7862   46.1463 C   0  0  0  0  0  0  0  0  0  0  0  0
    3.5290   -4.5216   46.3346 C   0  0  0  0  0  0  0  0  0  0  0  0
  3  4  1  0
  4  5  2  0
  5  6  1  0
  6 12  2  0
 12 11  1  0
 11 10  2  0
 10  4  1  0
  1  2  2  0
  2  7  1  0
  7  8  2  0
  8  9  1  0
  9  3  2  0
  3  1  1  0
M  END
$$$$
O14757_PocketFlow_idx-in-all-generaetd-157
     RDKit          3D

 30 32  0  0  0  0  0  0  0  0999 V2000
   -0.6395   -2.0713   41.4947 C   0  0  0  0  0  0  0  0  0  0  0  0
    0.6719   -2.2449   41.7518 C   0  0  0  0  0  0  0  0  0  0  0  0
    1.5951   -1.1948   41.6106 C   0  0  0  0  0  0  0  0  0  0  0  0
    2.9587   -1.3961   42.0240 C   0  0  0  0  0  0  0  0  0  0  0  0
    3.8815   -0.3441   42.0598 C   0  0  0  0  0  0  0  0  0  0  0  0
    5.0972   -0.5585   42.8399 C   0  0  0  0  0  0  0  0  0  0  0  0
    5.2418   -1.6670   43.6610 C   0  0  0  0  0  0  0  0  0  0  0  0
    4.2343   -2.6445   43.6677 C   0  0  0  0  0  0  0  0  0  0  0  0
    3.0537   -2.4403   42.9427 C   0  0  0  0  0  0  0  0  0  0  0  0
    4.3930   -3.8446   44.4975 C   0  0  0  0  0  0  0  0  0  0  0  0
    3.7427   -4.0504   45.6212 C   0  0  0  0  0  0  0  0  0  0  0  0
    3.2639   -5.2981   46.0347 C   0  0  0  0  0  0  0  0  0  0  0  0
   -1.0229   -0.7859   41.2118 C   0  0  0  0  0  0  0  0  0  0  0  0
   -2.4138   -0.6043   41.0461 N   0  0  0  0  0  0  0  0  0  0  0  0
    1.9676   -5.7059   45.3768 C   0  0  0  0  0  0  0  0  0  0  0  0
    1.5930   -7.0108   45.3162 C   0  0  0  0  0  0  0  0  0  0  0  0
    0.3000   -7.2909   44.8190 C   0  0  0  0  0  0  0  0  0  0  0  0
   -0.2586   -6.5194   43.7688 C   0  0  0  0  0  0  0  0  0  0  0  0
    0.3071   -5.1760   43.6823 C   0  0  0  0  0  0  0  0  0  0  0  0
    1.4517   -4.7906   44.4139 C   0  0  0  0  0  0  0  0  0  0  0  0
    6.3872   -1.7665   44.4171 N   0  0  0  0  0  0  0  0  0  0  0  0
    6.8275   -0.8031   45.2775 C   0  0  0  0  0  0  0  0  0  0  0  0
    8.1152   -1.2653   45.9685 C   0  0  0  0  0  0  0  0  0  0  0  0
    8.2440   -2.4446   46.6876 C   0  0  0  0  0  0  0  0  0  0  0  0
    7.2152   -3.3495   46.7543 C   0  0  0  0  0  0  0  0  0  0  0  0
    7.4092   -4.5385   47.4868 C   0  0  0  0  0  0  0  0  0  0  0  0
    8.6091   -4.7295   48.1450 C   0  0  0  0  0  0  0  0  0  0  0  0
    9.4354   -2.7868   47.4327 C   0  0  0  0  0  0  0  0  0  0  0  0
    9.6275   -3.8317   48.1221 C   0  0  0  0  0  0  0  0  0  0  0  0
    1.0979    0.0817   41.2387 C   0  0  0  0  0  0  0  0  0  0  0  0
  1  2  1  0
  2  3  2  3
  3  4  1  0
  8 10  1  0
 10 11  1  0
 11 12  2  3
  1 13  1  0
 13 14  2  3
 12 15  1  0
  7 21  1  0
 21 22  1  0
 22 23  1  0
 23 24  1  0
  3 30  1  0
 15 16  2  0
 16 17  1  0
 17 18  2  0
 18 19  1  0
 19 20  2  0
 20 15  1  0
 24 25  2  0
 25 26  1  0
 26 27  2  0
 27 29  1  0
 29 28  2  0
 28 24  1  0
  4  5  2  0
  5  6  1  0
  6  7  2  0
  7  8  1  0
  8  9  2  0
  9  4  1  0
M  END
$$$$
O14757_PocketFlow_idx-in-all-generaetd-158
     RDKit          3D

 24 26  0  0  0  0  0  0  0  0999 V2000
   -0.6395   -2.0713   41.4947 C   0  0  0  0  0  0  0  0  0  0  0  0
    0.6719   -2.2449   41.7518 C   0  0  0  0  0  0  0  0  0  0  0  0
    1.3815   -1.6359   42.7231 C   0  0  0  0  0  0  0  0  0  0  0  0
   -1.3884   -2.9047   40.6798 C   0  0  0  0  0  0  0  0  0  0  0  0
    2.7413   -2.0881   43.0207 C   0  0  0  0  0  0  0  0  0  0  0  0
    3.0175   -3.1895   43.8927 C   0  0  0  0  0  0  0  0  0  0  0  0
    4.2166   -3.3155   44.5542 C   0  0  0  0  0  0  0  0  0  0  0  0
    5.1803   -2.2729   44.3519 C   0  0  0  0  0  0  0  0  0  0  0  0
    4.9318   -1.2261   43.5038 C   0  0  0  0  0  0  0  0  0  0  0  0
    3.6975   -1.0878   42.9643 C   0  0  0  0  0  0  0  0  0  0  0  0
    3.4359    0.0411   42.2038 N   0  0  0  0  0  0  0  0  0  0  0  0
    4.5265   -4.4964   45.3277 C   0  0  0  0  0  0  0  0  0  0  0  0
    3.5721   -5.3827   45.6915 C   0  0  0  0  0  0  0  0  0  0  0  0
    2.2393   -5.1548   45.2717 C   0  0  0  0  0  0  0  0  0  0  0  0
    1.9625   -4.0423   44.2940 C   0  0  0  0  0  0  0  0  0  0  0  0
    1.1423   -6.0594   45.5171 C   0  0  1  0  0  0  0  0  0  0  0  0
    1.2472   -7.3311   45.2285 C   0  0  0  0  0  0  0  0  0  0  0  0
    0.5842   -5.7949   46.9261 C   0  0  0  0  0  0  0  0  0  0  0  0
   -0.9814   -6.1254   46.8008 C   0  0  0  0  0  0  0  0  0  0  0  0
   -1.2031   -6.9396   46.0686 Cl  0  0  0  0  0  0  0  0  0  0  0  0
   -2.7112   -2.5977   40.6121 N   0  0  0  0  0  0  0  0  0  0  0  0
   -2.8402   -1.4091   41.1654 N   0  0  0  0  0  0  0  0  0  0  0  0
   -1.5978   -1.0443   41.6353 C   0  0  0  0  0  0  0  0  0  0  0  0
    0.2290   -7.9965   44.7165 O   0  0  0  0  0  0  0  0  0  0  0  0
  1  2  1  0
  2  3  2  3
  1  4  1  0
  3  5  1  0
 10 11  1  0
 14 16  1  0
 16 17  1  1
 16 18  1  0
 18 19  1  0
 19 20  1  0
  4 21  1  0
 21 22  2  0
  1 23  1  0
 22 23  1  0
 17 24  1  0
  5  6  2  0
  7  8  2  0
  8  9  1  0
  9 10  2  0
 10  5  1  0
  6  7  1  0
  7 12  1  0
 12 13  2  0
 13 14  1  0
 14 15  2  0
 15  6  1  0
M  END
$$$$
O14757_PocketFlow_idx-in-all-generaetd-159
     RDKit          3D

 35 38  0  0  0  0  0  0  0  0999 V2000
   -0.6395   -2.0713   41.4947 C   0  0  0  0  0  0  0  0  0  0  0  0
   -0.2671   -3.2464   41.6546 C   0  0  0  0  0  0  0  0  0  0  0  0
    0.2277   -0.9875   41.6495 C   0  0  0  0  0  0  0  0  0  0  0  0
    1.6284   -1.2752   41.8841 C   0  0  0  0  0  0  0  0  0  0  0  0
    2.6421   -0.3335   42.0825 C   0  0  0  0  0  0  0  0  0  0  0  0
    3.8980   -0.6935   42.5215 C   0  0  0  0  0  0  0  0  0  0  0  0
    4.0537   -1.9942   43.1141 C   0  0  0  0  0  0  0  0  0  0  0  0
    2.9046   -2.8528   43.1593 C   0  0  0  0  0  0  0  0  0  0  0  0
    1.6962   -2.4158   42.6618 C   0  0  0  0  0  0  0  0  0  0  0  0
    0.7669   -3.4928   42.3913 C   0  0  0  0  0  0  0  0  0  0  0  0
    4.9698    0.0253   42.5180 F   0  0  0  0  0  0  0  0  0  0  0  0
   -2.0668   -1.6788   41.1718 C   0  0  0  0  0  0  0  0  0  0  0  0
   -2.5666   -0.4835   41.4198 N   0  0  0  0  0  0  0  0  0  0  0  0
   -2.8314   -2.5079   40.6213 O   0  0  0  0  0  0  0  0  0  0  0  0
    3.0379   -4.0262   44.0870 C   0  0  0  0  0  0  0  0  0  0  0  0
    3.3584   -3.9208   45.3550 C   0  0  0  0  0  0  0  0  0  0  0  0
    3.2050   -5.0646   46.1491 C   0  0  0  0  0  0  0  0  0  0  0  0
    3.1248   -6.2357   45.5074 C   0  0  0  0  0  0  0  0  0  0  0  0
    2.7592   -6.3368   44.2023 C   0  0  0  0  0  0  0  0  0  0  0  0
    2.7837   -5.2293   43.5386 C   0  0  0  0  0  0  0  0  0  0  0  0
    3.2181   -7.7236   46.4925 Cl  0  0  0  0  0  0  0  0  0  0  0  0
   -3.8405    0.0270   41.0314 C   0  0  0  0  0  0  0  0  0  0  0  0
    5.1962   -2.2973   43.7002 O   0  0  0  0  0  0  0  0  0  0  0  0
    5.7360   -1.5717   44.7695 C   0  0  0  0  0  0  0  0  0  0  0  0
    6.9729   -2.1995   45.2985 C   0  0  0  0  0  0  0  0  0  0  0  0
    7.1217   -2.6201   46.2531 C   0  0  0  0  0  0  0  0  0  0  0  0
    8.3973   -3.3337   46.7094 C   0  0  0  0  0  0  0  0  0  0  0  0
    8.9411   -3.5471   47.7434 C   0  0  0  0  0  0  0  0  0  0  0  0
    7.9565   -3.8354   48.8220 C   0  0  0  0  0  0  0  0  0  0  0  0
    6.5702   -3.6343   48.5335 C   0  0  0  0  0  0  0  0  0  0  0  0
    6.1721   -3.0347   47.3268 C   0  0  0  0  0  0  0  0  0  0  0  0
    8.3945   -4.4272   50.3766 Cl  0  0  0  0  0  0  0  0  0  0  0  0
   10.3120   -4.0393   47.9913 C   0  0  0  0  0  0  0  0  0  0  0  0
   10.7664   -5.1092   47.2155 C   0  0  0  0  0  0  0  0  0  0  0  0
   11.9074   -5.1491   46.7837 C   0  0  0  0  0  0  0  0  0  0  0  0
  6 11  1  0
  1 12  1  0
 12 13  1  0
 12 14  2  0
  8 15  1  0
 18 21  1  0
 13 22  1  0
  7 23  1  0
 23 24  1  0
 24 25  1  0
 29 32  1  0
 28 33  1  0
 33 34  1  0
 34 35  2  0
 25 26  1  0
  1  2  2  0
  2 10  1  0
 10  9  2  0
  4  3  2  0
  3  1  1  0
 26 27  2  0
 27 28  1  0
 28 29  2  0
 29 30  1  0
 30 31  2  0
 31 26  1  0
 15 16  2  0
 16 17  1  0
 17 18  2  0
 18 19  1  0
 19 20  2  0
 20 15  1  0
  4  5  1  0
  5  6  2  0
  6  7  1  0
  7  8  2  0
  8  9  1  0
  9  4  1  0
M  END
$$$$
O14757_PocketFlow_idx-in-all-generaetd-160
     RDKit          3D

 10 10  0  0  0  0  0  0  0  0999 V2000
    0.2881   -2.9111   42.4378 C   0  0  0  0  0  0  0  0  0  0  0  0
    1.1784   -3.4293   42.9321 C   0  0  0  0  0  0  0  0  0  0  0  0
    2.4696   -2.7231   42.8997 C   0  0  0  0  0  0  0  0  0  0  0  0
    2.5380   -1.5398   42.2487 C   0  0  0  0  0  0  0  0  0  0  0  0
    0.2254   -1.7181   41.6878 C   0  0  0  0  0  0  0  0  0  0  0  0
    1.4043   -1.0577   41.5785 C   0  0  0  0  0  0  0  0  0  0  0  0
    3.6662   -3.1326   43.6719 C   0  0  0  0  0  0  0  0  0  0  0  0
    3.9374   -2.8434   44.9484 C   0  0  0  0  0  0  0  0  0  0  0  0
    4.1167   -1.6966   45.5315 C   0  0  0  0  0  0  0  0  0  0  0  0
    3.8866   -4.0488   45.8716 C   0  0  0  0  0  0  0  0  0  0  0  0
  3  7  1  0
  7  8  1  0
  8  9  2  0
  8 10  1  0
  1  2  2  0
  2  3  1  0
  3  4  2  0
  4  6  1  0
  6  5  2  0
  5  1  1  0
M  END
$$$$
O14757_PocketFlow_idx-in-all-generaetd-161
     RDKit          3D

 35 39  0  0  0  0  0  0  0  0999 V2000
   -0.6395   -2.0713   41.4947 C   0  0  0  0  0  0  0  0  0  0  0  0
    0.1859   -1.1027   41.5970 C   0  0  0  0  0  0  0  0  0  0  0  0
    1.5836   -1.3270   41.4670 C   0  0  0  0  0  0  0  0  0  0  0  0
   -0.2462   -3.3905   41.2409 C   0  0  0  0  0  0  0  0  0  0  0  0
    2.5675   -0.3472   41.7943 C   0  0  0  0  0  0  0  0  0  0  0  0
    3.8546   -0.6776   42.2362 C   0  0  1  0  0  0  0  0  0  0  0  0
    4.7501    0.3011   42.7357 C   0  0  0  0  0  0  0  0  0  0  0  0
   -1.1593   -4.4139   41.5761 C   0  0  0  0  0  0  0  0  0  0  0  0
   -0.4653   -5.7285   41.7937 C   0  0  0  0  0  0  0  0  0  0  0  0
    5.8273   -0.2740   43.4657 N   0  0  0  0  0  0  0  0  0  0  0  0
    5.6846   -1.5052   44.0217 C   0  0  0  0  0  0  0  0  0  0  0  0
    4.8168   -1.8827   44.6884 C   0  0  0  0  0  0  0  0  0  0  0  0
    3.6318   -2.4960   43.9637 C   0  0  0  0  0  0  0  0  0  0  0  0
    2.8298   -3.5534   44.4660 C   0  0  0  0  0  0  0  0  0  0  0  0
    3.2264   -4.2992   45.4998 C   0  0  0  0  0  0  0  0  0  0  0  0
    4.3214   -3.8636   46.2821 C   0  0  0  0  0  0  0  0  0  0  0  0
    5.1438   -2.7316   45.8199 C   0  0  0  0  0  0  0  0  0  0  0  0
    3.1549   -1.6905   42.8416 C   0  0  2  0  0  0  0  0  0  0  0  0
    2.1959   -2.2636   42.0518 N   0  0  0  0  0  0  0  0  0  0  0  0
    2.3987   -5.3729   46.0150 C   0  0  0  0  0  0  0  0  0  0  0  0
    2.6429   -6.5682   45.1885 C   0  0  0  0  0  0  0  0  0  0  0  0
    1.6074   -7.4194   45.2578 C   0  0  0  0  0  0  0  0  0  0  0  0
    0.3631   -7.1695   45.5131 C   0  0  0  0  0  0  0  0  0  0  0  0
   -0.4795   -7.5864   46.1092 C   0  0  0  0  0  0  0  0  0  0  0  0
   -1.9664   -7.2939   46.0017 C   0  0  0  0  0  0  0  0  0  0  0  0
   -0.3320   -8.7988   46.9804 C   0  0  0  0  0  0  0  0  0  0  0  0
   -2.8535   -7.8570   46.5656 O   0  0  0  0  0  0  0  0  0  0  0  0
    0.4497   -8.5554   48.0256 C   0  0  0  0  0  0  0  0  0  0  0  0
    0.6812   -9.6141   49.0321 C   0  0  0  0  0  0  0  0  0  0  0  0
   -0.0859  -10.6529   49.0142 C   0  0  0  0  0  0  0  0  0  0  0  0
   -0.9357  -10.8648   47.8774 C   0  0  0  0  0  0  0  0  0  0  0  0
   -1.1306   -9.9252   46.9045 C   0  0  0  0  0  0  0  0  0  0  0  0
   -1.9622   -1.8445   41.5552 O   0  0  0  0  0  0  0  0  0  0  0  0
   -0.6055   -6.2289   43.1673 C   0  0  0  0  0  0  0  0  0  0  0  0
    0.1855   -6.6647   44.1491 C   0  0  0  0  0  0  0  0  0  0  0  0
  1  2  1  0
  2  3  2  0
  1  4  1  0
  3  5  1  0
  6  5  1  1
  6  7  1  0
  4  8  1  0
  8  9  1  0
  7 10  1  0
 10 11  1  0
  6 18  1  0
 13 18  1  0
  3 19  1  0
 18 19  1  6
 15 20  1  0
 20 21  1  0
 21 22  1  0
 22 23  1  0
 23 24  2  3
 24 25  1  0
 24 26  1  0
 25 27  2  0
  1 33  2  0
  9 34  1  0
 23 35  1  0
 34 35  2  0
 11 12  1  0
 12 13  2  0
 13 14  1  0
 14 15  2  0
 15 16  1  0
 16 17  2  0
 17 12  1  0
 26 28  2  0
 28 29  1  0
 29 30  2  0
 30 31  1  0
 31 32  2  0
 32 26  1  0
M  END
$$$$
O14757_PocketFlow_idx-in-all-generaetd-162
     RDKit          3D

 35 38  0  0  0  0  0  0  0  0999 V2000
   -0.6395   -2.0713   41.4947 C   0  0  0  0  0  0  0  0  0  0  0  0
    0.1859   -1.1027   41.5970 C   0  0  0  0  0  0  0  0  0  0  0  0
    1.5836   -1.3270   41.4669 C   0  0  0  0  0  0  0  0  0  0  0  0
   -0.2462   -3.3905   41.2409 C   0  0  0  0  0  0  0  0  0  0  0  0
    2.0075   -2.6977   41.3340 C   0  0  0  0  0  0  0  0  0  0  0  0
    1.0655   -3.6470   41.1373 C   0  0  0  0  0  0  0  0  0  0  0  0
    2.5627   -0.2735   41.7330 C   0  0  0  0  0  0  0  0  0  0  0  0
    3.7265   -0.5478   42.4255 N   0  0  0  0  0  0  0  0  0  0  0  0
    3.8674   -1.6714   43.1643 C   0  0  0  0  0  0  0  0  0  0  0  0
    5.0558   -1.7627   43.9763 C   0  0  2  0  0  0  0  0  0  0  0  0
    5.2784   -2.7920   44.9056 C   0  0  0  0  0  0  0  0  0  0  0  0
    6.3888   -2.8344   45.7802 C   0  0  0  0  0  0  0  0  0  0  0  0
    6.6141   -3.8995   46.6871 C   0  0  0  0  0  0  0  0  0  0  0  0
    5.4554   -4.6747   46.9473 C   0  0  0  0  0  0  0  0  0  0  0  0
    4.3092   -4.5526   46.2520 C   0  0  0  0  0  0  0  0  0  0  0  0
    4.2470   -3.6050   45.2393 C   0  0  0  0  0  0  0  0  0  0  0  0
    4.8911    0.1974   42.4845 C   0  0  0  0  0  0  0  0  0  0  0  0
    5.7618   -0.4968   43.7178 C   0  0  0  0  0  0  0  0  0  0  0  0
    7.8676   -3.9471   47.4268 C   0  0  0  0  0  0  0  0  0  0  0  0
    8.0002   -4.7435   48.4015 C   0  0  0  0  0  0  0  0  0  0  0  0
    9.2163   -4.8467   49.1763 C   0  0  0  0  0  0  0  0  0  0  0  0
    9.0340   -3.3304   46.9117 C   0  0  0  0  0  0  0  0  0  0  0  0
   10.2752   -3.4614   47.5312 C   0  0  0  0  0  0  0  0  0  0  0  0
   10.3356   -4.1867   48.7140 C   0  0  0  0  0  0  0  0  0  0  0  0
   -2.0231   -1.8209   41.5466 O   0  0  0  0  0  0  0  0  0  0  0  0
    2.3363    0.8736   41.3628 O   0  0  0  0  0  0  0  0  0  0  0  0
   -2.7057   -1.3163   40.4777 C   0  0  0  0  0  0  0  0  0  0  0  0
   -3.9899   -2.0228   40.4076 C   0  0  0  0  0  0  0  0  0  0  0  0
    2.7557   -3.5399   44.3625 Cl  0  0  0  0  0  0  0  0  0  0  0  0
   -4.7634   -1.4901   39.5501 O   0  0  0  0  0  0  0  0  0  0  0  0
   -3.8606   -3.3782   40.3365 O   0  0  0  0  0  0  0  0  0  0  0  0
   11.4464   -2.7555   46.9890 C   0  0  0  0  0  0  0  0  0  0  0  0
   12.0099   -1.7954   47.7325 N   0  0  0  0  0  0  0  0  0  0  0  0
   12.8175   -0.8658   47.2918 C   0  0  0  0  0  0  0  0  0  0  0  0
   14.0886   -0.9795   47.2120 C   0  0  0  0  0  0  0  0  0  0  0  0
  3  7  1  0
  7  8  1  0
  8  9  1  0
  9 10  1  0
  8 17  1  0
 10 18  1  0
 17 18  1  0
 13 19  1  0
  1 25  1  0
  7 26  2  0
 25 27  1  0
 27 28  1  0
 16 29  1  0
 28 30  2  0
 28 31  1  0
 23 32  1  0
 32 33  1  0
 33 34  1  0
 34 35  1  0
 10 11  1  1
 11 12  2  0
 12 13  1  0
 13 14  2  0
 14 15  1  0
 15 16  2  0
 16 11  1  0
 19 20  2  0
 20 21  1  0
 21 24  2  0
 24 23  1  0
 23 22  2  0
 22 19  1  0
  1  2  2  0
  2  3  1  0
  3  5  2  0
  5  6  1  0
  6  4  2  0
  4  1  1  0
M  END
$$$$
O14757_PocketFlow_idx-in-all-generaetd-163
     RDKit          3D

 35 37  0  0  0  0  0  0  0  0999 V2000
   -0.6395   -2.0713   41.4947 C   0  0  0  0  0  0  0  0  0  0  0  0
    0.6719   -2.2449   41.7518 C   0  0  0  0  0  0  0  0  0  0  0  0
    1.1287   -3.3339   42.4778 C   0  0  0  0  0  0  0  0  0  0  0  0
    0.6549   -3.7580   43.2738 C   0  0  0  0  0  0  0  0  0  0  0  0
    1.1474   -4.8681   44.1347 C   0  0  0  0  0  0  0  0  0  0  0  0
    1.5371   -4.9739   45.2548 C   0  0  0  0  0  0  0  0  0  0  0  0
    0.8610   -5.7910   46.1887 C   0  0  0  0  0  0  0  0  0  0  0  0
    0.3414   -7.0455   45.5986 C   0  0  0  0  0  0  0  0  0  0  0  0
   -0.2862   -7.9495   46.4100 C   0  0  0  0  0  0  0  0  0  0  0  0
   -1.6661   -8.2655   46.0906 C   0  0  0  0  0  0  0  0  0  0  0  0
   -2.5741   -8.7412   46.1106 C   0  0  0  0  0  0  0  0  0  0  0  0
   -3.8272   -9.2317   45.7512 C   0  0  1  0  0  0  0  0  0  0  0  0
   -4.6716   -9.1497   45.0542 C   0  0  0  0  0  0  0  0  0  0  0  0
   -4.5051   -8.0126   44.0441 C   0  0  0  0  0  0  0  0  0  0  0  0
   -5.4475   -7.8520   42.9166 C   0  0  0  0  0  0  0  0  0  0  0  0
    0.3079   -6.9627   44.1894 C   0  0  0  0  0  0  0  0  0  0  0  0
    0.4692   -5.8692   43.4573 C   0  0  0  0  0  0  0  0  0  0  0  0
   -1.0993   -0.9114   40.9849 N   0  0  0  0  0  0  0  0  0  0  0  0
    1.5177   -1.2306   41.1196 C   0  0  0  0  0  0  0  0  0  0  0  0
    2.2198   -0.3795   42.1720 C   0  0  0  0  0  0  0  0  0  0  0  0
    3.4973   -0.4629   42.5596 C   0  0  0  0  0  0  0  0  0  0  0  0
    4.2136    0.3836   43.1975 C   0  0  0  0  0  0  0  0  0  0  0  0
   -6.6485   -8.4375   43.0153 C   0  0  0  0  0  0  0  0  0  0  0  0
   -7.0128   -9.3664   44.0421 C   0  0  0  0  0  0  0  0  0  0  0  0
   -6.0608   -9.5890   45.0364 C   0  0  0  0  0  0  0  0  0  0  0  0
   -3.9219  -10.6347   46.6341 C   0  0  0  0  0  0  0  0  0  0  0  0
    4.1167   -1.8050   42.3761 C   0  0  0  0  0  0  0  0  0  0  0  0
   -1.5326   -2.9908   41.7021 O   0  0  0  0  0  0  0  0  0  0  0  0
    5.1646   -2.1433   43.3291 C   0  0  0  0  0  0  0  0  0  0  0  0
    5.3895    0.1515   43.8927 C   0  0  0  0  0  0  0  0  0  0  0  0
    5.8527   -1.1418   43.9591 C   0  0  0  0  0  0  0  0  0  0  0  0
    7.0521   -1.4725   44.7680 C   0  0  1  0  0  0  0  0  0  0  0  0
    8.1108   -0.8750   45.0206 N   0  0  0  0  0  0  0  0  0  0  0  0
    6.8717   -2.7791   45.5619 C   0  0  0  0  0  0  0  0  0  0  0  0
    5.7741   -3.5213   45.7299 C   0  0  0  0  0  0  0  0  0  0  0  0
  1  2  1  0
  2  3  2  3
  3  4  1  0
  4  5  1  0
  8  9  1  0
  9 10  1  0
 10 11  3  0
 11 12  1  0
  1 18  1  0
  2 19  1  0
 19 20  1  0
 20 21  1  0
 12 26  1  6
  1 28  2  0
 31 32  1  0
 32 33  1  1
 32 34  1  0
 34 35  1  0
 12 13  1  0
  5  6  2  0
  6  7  1  0
  7  8  2  0
  8 16  1  0
 16 17  2  0
 17  5  1  0
 21 22  2  0
 22 30  1  0
 30 31  2  0
 31 29  1  0
 29 27  2  0
 27 21  1  0
 13 14  2  0
 14 15  1  0
 15 23  2  0
 23 24  1  0
 24 25  2  0
 25 13  1  0
M  END
$$$$
O14757_PocketFlow_idx-in-all-generaetd-164
     RDKit          3D

 35 37  0  0  0  0  0  0  0  0999 V2000
    0.2881   -2.9111   42.4378 C   0  0  0  0  0  0  0  0  0  0  0  0
    1.3023   -2.0648   42.1981 C   0  0  0  0  0  0  0  0  0  0  0  0
    0.9971   -0.8647   41.5341 C   0  0  0  0  0  0  0  0  0  0  0  0
    0.6297   -4.1493   43.0166 N   0  0  0  0  0  0  0  0  0  0  0  0
   -0.1808   -5.0369   43.4521 C   0  0  0  0  0  0  0  0  0  0  0  0
    0.6911   -6.0927   44.1420 C   0  0  0  0  0  0  0  0  0  0  0  0
    2.0692    0.0653   41.4306 C   0  0  0  0  0  0  0  0  0  0  0  0
    3.2689   -0.0502   42.0769 C   0  0  0  0  0  0  0  0  0  0  0  0
    3.5853   -1.2322   42.7478 C   0  0  0  0  0  0  0  0  0  0  0  0
    2.5697   -2.2549   42.8805 C   0  0  0  0  0  0  0  0  0  0  0  0
    4.8541   -1.3729   43.4761 C   0  0  0  0  0  0  0  0  0  0  0  0
    5.6988   -0.3006   43.8193 C   0  0  0  0  0  0  0  0  0  0  0  0
    5.1483   -2.6814   43.9918 C   0  0  1  0  0  0  0  0  0  0  0  0
    0.1074   -7.0885   44.9447 C   0  0  0  0  0  0  0  0  0  0  0  0
   -1.3066   -7.0636   45.2006 C   0  0  0  0  0  0  0  0  0  0  0  0
   -1.8881   -8.2696   45.2060 C   0  0  0  0  0  0  0  0  0  0  0  0
   -3.2773   -8.3761   44.7988 C   0  0  0  0  0  0  0  0  0  0  0  0
   -3.4939   -8.4994   43.3968 C   0  0  0  0  0  0  0  0  0  0  0  0
   -4.8378   -8.4995   42.9132 C   0  0  0  0  0  0  0  0  0  0  0  0
   -5.0685   -8.5357   41.6033 C   0  0  0  0  0  0  0  0  0  0  0  0
   -5.7745   -8.8445   43.9468 C   0  0  0  0  0  0  0  0  0  0  0  0
   -5.5834   -8.8022   45.3057 C   0  0  0  0  0  0  0  0  0  0  0  0
   -4.2586   -8.5510   45.7303 C   0  0  0  0  0  0  0  0  0  0  0  0
   -0.8214   -2.8041   41.9832 O   0  0  0  0  0  0  0  0  0  0  0  0
    6.0523   -2.8115   45.1528 C   0  0  0  0  0  0  0  0  0  0  0  0
    6.0929   -3.8625   46.0398 C   0  0  0  0  0  0  0  0  0  0  0  0
    4.8760   -4.3034   46.5513 C   0  0  2  0  0  0  0  0  0  0  0  0
    3.7238   -3.9899   45.9681 C   0  0  0  0  0  0  0  0  0  0  0  0
    3.6705   -4.1322   44.7918 C   0  0  0  0  0  0  0  0  0  0  0  0
    4.3224   -3.6456   43.7746 N   0  0  0  0  0  0  0  0  0  0  0  0
    5.1012   -4.9924   47.8746 C   0  0  0  0  0  0  0  0  0  0  0  0
    6.0395   -4.3771   48.8542 C   0  0  0  0  0  0  0  0  0  0  0  0
    7.4326   -4.9214   48.7377 C   0  0  0  0  0  0  0  0  0  0  0  0
    8.3384   -4.1557   49.2431 C   0  0  0  0  0  0  0  0  0  0  0  0
    8.2451   -3.7534   50.6216 C   0  0  0  0  0  0  0  0  0  0  0  0
  1  2  1  0
  1  4  1  0
  4  5  1  0
  5  6  1  0
  9 11  1  0
 11 12  2  0
 13 11  1  1
  6 14  2  3
 14 15  1  0
 15 16  1  0
 16 17  1  0
  1 24  2  0
 13 25  1  0
 25 26  1  0
 26 27  1  0
 27 28  1  0
 28 29  1  0
 13 30  1  0
 29 30  1  0
 27 31  1  1
 31 32  1  0
 32 33  1  0
 33 34  2  3
 34 35  1  0
 20 19  1  0
 17 18  2  0
 18 19  1  0
 19 21  2  0
 21 22  1  0
 22 23  2  0
 23 17  1  0
  2  3  2  0
  3  7  1  0
  7  8  2  0
  8  9  1  0
  9 10  2  0
 10  2  1  0
M  END
$$$$
O14757_PocketFlow_idx-in-all-generaetd-165
     RDKit          3D

 13 13  0  0  0  0  0  0  0  0999 V2000
   -0.6395   -2.0713   41.4947 C   0  0  0  0  0  0  0  0  0  0  0  0
    0.1859   -1.1027   41.5970 C   0  0  0  0  0  0  0  0  0  0  0  0
    1.5836   -1.3270   41.4670 C   0  0  0  0  0  0  0  0  0  0  0  0
   -2.0616   -1.8375   41.5032 C   0  0  0  0  0  0  0  0  0  0  0  0
    2.3736   -1.5677   42.3518 C   0  0  0  0  0  0  0  0  0  0  0  0
    3.3477   -1.2114   42.8775 C   0  0  0  0  0  0  0  0  0  0  0  0
    4.1603   -0.0348   42.4994 C   0  0  0  0  0  0  0  0  0  0  0  0
    5.3401    0.1915   43.2349 N   0  0  0  0  0  0  0  0  0  0  0  0
    4.3152   -1.9769   43.8190 C   0  0  0  0  0  0  0  0  0  0  0  0
    5.4742   -1.0931   43.9756 C   0  0  0  0  0  0  0  0  0  0  0  0
   -2.4676   -0.5554   41.1425 C   0  0  0  0  0  0  0  0  0  0  0  0
   -3.8701   -0.2819   41.0907 C   0  0  0  0  0  0  0  0  0  0  0  0
    1.8795   -2.9895   43.0121 C   0  0  0  0  0  0  0  0  0  0  0  0
  1  2  1  0
  2  3  2  3
  1  4  1  0
  3  5  1  0
  5  6  1  0
  6  7  2  0
  7  8  1  0
  6  9  1  0
  8 10  2  0
  9 10  2  0
  4 11  2  3
 11 12  1  0
  5 13  1  0
M  END
$$$$
O14757_PocketFlow_idx-in-all-generaetd-166
     RDKit          3D

 35 39  0  0  0  0  0  0  0  0999 V2000
    0.2881   -2.9111   42.4378 C   0  0  0  0  0  0  0  0  0  0  0  0
    1.1784   -3.4293   42.9321 C   0  0  0  0  0  0  0  0  0  0  0  0
    1.1643   -4.3749   43.9960 C   0  0  0  0  0  0  0  0  0  0  0  0
    1.9792   -5.0985   44.4432 C   0  0  0  0  0  0  0  0  0  0  0  0
    0.1725   -2.3810   41.2103 C   0  0  0  0  0  0  0  0  0  0  0  0
    1.8198   -6.1777   45.4078 C   0  0  0  0  0  0  0  0  0  0  0  0
    1.3639   -1.5968   40.8763 C   0  0  0  0  0  0  0  0  0  0  0  0
    2.4655   -1.7303   41.7972 C   0  0  0  0  0  0  0  0  0  0  0  0
    2.4064   -2.5744   42.8679 C   0  0  0  0  0  0  0  0  0  0  0  0
    0.7705   -6.7225   45.3231 C   0  0  0  0  0  0  0  0  0  0  0  0
   -0.4590   -6.1845   44.6810 C   0  0  0  0  0  0  0  0  0  0  0  0
   -0.1056   -5.1031   43.9014 N   0  0  0  0  0  0  0  0  0  0  0  0
    3.6091   -2.7235   43.7002 C   0  0  0  0  0  0  0  0  0  0  0  0
    4.5961   -1.7550   43.6236 C   0  0  0  0  0  0  0  0  0  0  0  0
    5.6808   -1.8940   44.5060 C   0  0  0  0  0  0  0  0  0  0  0  0
    6.7513   -1.0241   44.5635 C   0  0  0  0  0  0  0  0  0  0  0  0
    5.4447   -2.8168   45.5974 C   0  0  0  0  0  0  0  0  0  0  0  0
    6.5053   -3.0006   46.6211 C   0  0  0  0  0  0  0  0  0  0  0  0
    6.3577   -4.0195   47.5582 C   0  0  0  0  0  0  0  0  0  0  0  0
    7.2111   -4.1808   48.6439 C   0  0  0  0  0  0  0  0  0  0  0  0
    8.3812   -3.5077   48.6840 C   0  0  0  0  0  0  0  0  0  0  0  0
    8.6723   -2.5706   47.6396 C   0  0  0  0  0  0  0  0  0  0  0  0
    7.7125   -2.3265   46.6144 C   0  0  0  0  0  0  0  0  0  0  0  0
    7.8113   -1.3391   45.4830 C   0  0  0  0  0  0  0  0  0  0  0  0
    0.4346   -8.0228   46.1583 C   0  0  0  0  0  0  0  0  0  0  0  0
   -0.9477   -8.1456   46.4624 C   0  0  0  0  0  0  0  0  0  0  0  0
   -1.2448   -8.3136   47.7671 C   0  0  0  0  0  0  0  0  0  0  0  0
   -0.1734   -8.4465   48.7024 C   0  0  0  0  0  0  0  0  0  0  0  0
    1.0580   -8.9780   48.3194 C   0  0  0  0  0  0  0  0  0  0  0  0
    1.4297   -8.5899   46.9589 C   0  0  0  0  0  0  0  0  0  0  0  0
   -2.6279   -8.2591   48.2828 C   0  0  0  0  0  0  0  0  0  0  0  0
   -3.5951   -8.5387   47.3601 N   0  0  0  0  0  0  0  0  0  0  0  0
   -4.4561   -9.5320   47.4202 C   0  0  0  0  0  0  0  0  0  0  0  0
   -5.4443   -9.5925   46.4657 N   0  0  0  0  0  0  0  0  0  0  0  0
   -4.2936  -10.5475   48.0968 O   0  0  0  0  0  0  0  0  0  0  0  0
  2  3  1  0
  9 13  1  0
 13 14  1  0
 10 25  1  0
 27 31  1  0
 31 32  1  0
 32 33  1  0
 33 34  1  0
 33 35  2  0
 14 15  1  0
 18 19  1  0
 19 20  2  0
 20 21  1  0
 21 22  2  0
 22 23  1  0
  3  4  2  0
  4  6  1  0
  6 10  2  0
 10 11  1  0
 11 12  2  0
 12  3  1  0
 25 26  2  0
 26 27  1  0
 27 28  2  0
 28 29  1  0
 29 30  2  0
 30 25  1  0
 15 16  2  0
 16 24  1  0
 24 23  2  0
 23 18  1  0
 18 17  2  0
 17 15  1  0
  1  2  2  0
  2  9  1  0
  9  8  2  0
  8  7  1  0
  7  5  2  0
  5  1  1  0
M  END
$$$$
O14757_PocketFlow_idx-in-all-generaetd-167
     RDKit          3D

 14 15  0  0  0  0  0  0  0  0999 V2000
   -0.6395   -2.0713   41.4947 C   0  0  0  0  0  0  0  0  0  0  0  0
    0.1859   -1.1027   41.5970 C   0  0  0  0  0  0  0  0  0  0  0  0
    1.5858   -1.4430   41.9548 C   0  0  0  0  0  0  0  0  0  0  0  0
    2.6622   -0.5501   42.0082 C   0  0  0  0  0  0  0  0  0  0  0  0
    3.8608   -0.8421   42.6622 C   0  0  0  0  0  0  0  0  0  0  0  0
    4.8744    0.0633   42.9841 C   0  0  0  0  0  0  0  0  0  0  0  0
   -0.2628   -3.4281   41.4503 C   0  0  0  0  0  0  0  0  0  0  0  0
    1.0244   -3.7736   41.8662 C   0  0  0  0  0  0  0  0  0  0  0  0
    1.9410   -2.7702   42.0429 C   0  0  0  0  0  0  0  0  0  0  0  0
   -1.9334   -1.8043   41.1723 F   0  0  0  0  0  0  0  0  0  0  0  0
    5.9341   -0.4896   43.7416 C   0  0  0  0  0  0  0  0  0  0  0  0
    5.8876   -1.6854   44.4239 C   0  0  0  0  0  0  0  0  0  0  0  0
    4.8194   -2.5407   44.1188 C   0  0  0  0  0  0  0  0  0  0  0  0
    3.8270   -2.0874   43.3741 C   0  0  0  0  0  0  0  0  0  0  0  0
  3  4  1  0
  4  5  1  0
  1 10  1  0
  1  2  2  0
  2  3  1  0
  3  9  2  0
  9  8  1  0
  8  7  2  0
  7  1  1  0
  5  6  2  0
  6 11  1  0
 11 12  2  0
 12 13  1  0
 13 14  2  0
 14  5  1  0
M  END
$$$$
O14757_PocketFlow_idx-in-all-generaetd-168
     RDKit          3D

 25 28  0  0  0  0  0  0  0  0999 V2000
   -0.8794   -1.9236   41.9357 O   0  0  0  0  0  0  0  0  0  0  0  0
    0.3182   -2.2442   41.7073 C   0  0  0  0  0  0  0  0  0  0  0  0
    1.3766   -1.3498   41.6019 C   0  0  0  0  0  0  0  0  0  0  0  0
    1.9368   -1.0086   42.7216 C   0  0  0  0  0  0  0  0  0  0  0  0
    3.1916   -0.1481   42.6898 C   0  0  0  0  0  0  0  0  0  0  0  0
    0.4080   -3.5917   41.3093 N   0  0  0  0  0  0  0  0  0  0  0  0
    4.3368   -0.4583   43.3189 C   0  0  0  0  0  0  0  0  0  0  0  0
    4.5849   -1.5938   44.0908 C   0  0  0  0  0  0  0  0  0  0  0  0
    5.8079   -1.6897   44.8373 C   0  0  0  0  0  0  0  0  0  0  0  0
    6.9072   -0.8999   44.4328 C   0  0  0  0  0  0  0  0  0  0  0  0
    8.0345   -1.2141   45.1609 N   0  0  0  0  0  0  0  0  0  0  0  0
    7.7439   -2.2826   45.9771 C   0  0  0  0  0  0  0  0  0  0  0  0
    6.3901   -2.6267   45.7393 C   0  0  0  0  0  0  0  0  0  0  0  0
    8.6639   -2.9678   46.8535 C   0  0  0  0  0  0  0  0  0  0  0  0
    9.9434   -2.5830   47.0043 C   0  0  0  0  0  0  0  0  0  0  0  0
    8.2016   -4.1660   47.4854 C   0  0  0  0  0  0  0  0  0  0  0  0
    9.1136   -5.0421   48.0454 C   0  0  0  0  0  0  0  0  0  0  0  0
   10.8749   -3.3705   47.6660 C   0  0  0  0  0  0  0  0  0  0  0  0
   10.4371   -4.5707   48.2617 C   0  0  0  0  0  0  0  0  0  0  0  0
    3.6581   -2.6738   44.1734 C   0  0  0  0  0  0  0  0  0  0  0  0
    3.7417   -3.9229   44.7537 C   0  0  0  0  0  0  0  0  0  0  0  0
    2.7334   -4.8325   44.7723 C   0  0  0  0  0  0  0  0  0  0  0  0
    1.5197   -4.4222   44.1840 C   0  0  0  0  0  0  0  0  0  0  0  0
    1.3204   -3.1088   43.7295 C   0  0  0  0  0  0  0  0  0  0  0  0
    2.4152   -2.2730   43.8203 C   0  0  0  0  0  0  0  0  0  0  0  0
  1  2  1  0
  2  3  1  0
  3  4  2  3
  4  5  1  0
  2  6  2  3
  5  7  1  0
  7  8  1  0
  8  9  2  3
  9 10  1  0
 10 11  2  0
 11 12  1  0
  9 13  1  0
 12 13  2  0
 12 14  1  0
  8 20  1  0
  4 25  1  0
 20 21  2  0
 21 22  1  0
 22 23  2  0
 23 24  1  0
 24 25  2  0
 25 20  1  0
 14 15  2  0
 15 18  1  0
 18 19  2  0
 19 17  1  0
 17 16  2  0
 16 14  1  0
M  END
$$$$
O14757_PocketFlow_idx-in-all-generaetd-169
     RDKit          3D

 21 23  0  0  0  0  0  0  0  0999 V2000
    0.2881   -2.9111   42.4378 C   0  0  0  0  0  0  0  0  0  0  0  0
    1.1784   -3.4292   42.9321 C   0  0  0  0  0  0  0  0  0  0  0  0
    1.1643   -4.3749   43.9960 C   0  0  0  0  0  0  0  0  0  0  0  0
    2.1193   -4.3779   45.0297 C   0  0  0  0  0  0  0  0  0  0  0  0
    3.3226   -3.5984   44.7944 C   0  0  0  0  0  0  0  0  0  0  0  0
    3.3572   -2.6754   43.7947 C   0  0  0  0  0  0  0  0  0  0  0  0
    2.3126   -2.5454   42.9438 C   0  0  0  0  0  0  0  0  0  0  0  0
    0.1908   -1.8679   41.7618 O   0  0  0  0  0  0  0  0  0  0  0  0
    4.5643   -1.8333   43.6892 C   0  0  0  0  0  0  0  0  0  0  0  0
    4.8145   -0.8940   44.5690 C   0  0  0  0  0  0  0  0  0  0  0  0
   -0.9555   -3.5063   42.4655 O   0  0  0  0  0  0  0  0  0  0  0  0
    4.0436   -0.8887   45.7463 C   0  0  0  0  0  0  0  0  0  0  0  0
    1.2994   -1.1979   41.4020 C   0  0  0  0  0  0  0  0  0  0  0  0
    2.4422   -1.4281   42.1088 C   0  0  0  0  0  0  0  0  0  0  0  0
    4.8146   -1.5053   46.8041 C   0  0  0  0  0  0  0  0  0  0  0  0
    5.9723   -2.2427   46.5587 C   0  0  0  0  0  0  0  0  0  0  0  0
    7.0955   -1.7794   45.9214 C   0  0  0  0  0  0  0  0  0  0  0  0
    8.3096   -2.5634   46.0254 C   0  0  0  0  0  0  0  0  0  0  0  0
    8.2465   -3.7849   46.7508 C   0  0  0  0  0  0  0  0  0  0  0  0
    6.2709   -3.3991   47.4245 C   0  0  0  0  0  0  0  0  0  0  0  0
    7.2399   -4.1192   47.4679 C   0  0  0  0  0  0  0  0  0  0  0  0
  1  2  1  0
  1  8  1  0
  6  9  1  0
  9 10  2  3
  1 11  2  0
 10 12  1  0
  8 13  1  0
  7 14  1  0
 13 14  1  0
 12 15  2  3
 15 16  1  0
  2  3  2  0
  3  4  1  0
  4  5  2  0
  5  6  1  0
  6  7  2  0
  7  2  1  0
 16 17  2  0
 17 18  1  0
 18 19  2  0
 19 21  1  0
 21 20  2  0
 20 16  1  0
M  END
$$$$
O14757_PocketFlow_idx-in-all-generaetd-170
     RDKit          3D

 13 14  0  0  0  0  0  0  0  0999 V2000
    0.0138   -2.7927   42.5918 N   0  0  0  0  0  0  0  0  0  0  0  0
   -0.1707   -2.5494   41.4965 C   0  0  0  0  0  0  0  0  0  0  0  0
    1.2890   -2.6566   43.0641 C   0  0  0  0  0  0  0  0  0  0  0  0
    1.9987   -1.7107   42.2992 C   0  0  0  0  0  0  0  0  0  0  0  0
    3.2931   -1.2245   42.7227 C   0  0  0  0  0  0  0  0  0  0  0  0
    3.9139   -0.1637   42.1190 C   0  0  0  0  0  0  0  0  0  0  0  0
    1.2739   -1.4582   41.1208 C   0  0  0  0  0  0  0  0  0  0  0  0
    4.1031   -2.0776   43.6209 C   0  0  0  0  0  0  0  0  0  0  0  0
    4.7299   -1.5676   44.6974 C   0  0  0  0  0  0  0  0  0  0  0  0
    5.0398    0.3975   43.0730 C   0  0  0  0  0  0  0  0  0  0  0  0
    5.3132   -2.2678   45.7460 C   0  0  0  0  0  0  0  0  0  0  0  0
    5.4019   -0.2630   44.2884 C   0  0  0  0  0  0  0  0  0  0  0  0
    4.5301   -3.3844   46.2924 C   0  0  0  0  0  0  0  0  0  0  0  0
  1  2  1  0
  1  3  1  0
  3  4  2  0
  4  5  1  0
  2  7  1  0
  4  7  1  0
  9 11  1  0
 11 13  3  0
  5  6  2  0
  6 10  1  0
 10 12  2  0
 12  9  1  0
  9  8  2  0
  8  5  1  0
M  END
$$$$
O14757_PocketFlow_idx-in-all-generaetd-171
     RDKit          3D

 14 14  0  0  0  0  0  0  0  0999 V2000
    0.0138   -2.7927   42.5918 N   0  0  0  0  0  0  0  0  0  0  0  0
   -0.1707   -2.5494   41.4965 C   0  0  0  0  0  0  0  0  0  0  0  0
    1.2399   -3.4297   42.9825 C   0  0  0  0  0  0  0  0  0  0  0  0
    1.2714   -4.3030   44.0659 C   0  0  0  0  0  0  0  0  0  0  0  0
    2.4933   -4.7243   44.6744 C   0  0  0  0  0  0  0  0  0  0  0  0
    3.6964   -3.9762   44.2907 C   0  0  0  0  0  0  0  0  0  0  0  0
    3.5447   -2.8507   43.4376 C   0  0  0  0  0  0  0  0  0  0  0  0
    2.3588   -2.5257   42.8911 C   0  0  0  0  0  0  0  0  0  0  0  0
   -1.3814   -2.1177   41.0748 N   0  0  0  0  0  0  0  0  0  0  0  0
    0.6329   -3.0293   40.5155 O   0  0  0  0  0  0  0  0  0  0  0  0
    4.9177   -4.2734   45.0023 C   0  0  0  0  0  0  0  0  0  0  0  0
    5.7255   -3.0857   45.3767 C   0  0  0  0  0  0  0  0  0  0  0  0
    5.4754   -2.5559   46.2227 C   0  0  0  0  0  0  0  0  0  0  0  0
    4.4149   -3.0035   47.1327 C   0  0  0  0  0  0  0  0  0  0  0  0
  1  2  1  0
  1  3  1  0
  2  9  1  0
  2 10  2  0
  6 11  1  0
 11 12  1  0
 12 13  2  3
 13 14  1  0
  3  4  2  0
  4  5  1  0
  5  6  2  0
  6  7  1  0
  7  8  2  0
  8  3  1  0
M  END
$$$$
O14757_PocketFlow_idx-in-all-generaetd-172
     RDKit          3D

 21 21  0  0  0  0  0  0  0  0999 V2000
   -0.6395   -2.0713   41.4947 C   0  0  0  0  0  0  0  0  0  0  0  0
   -0.2671   -3.2464   41.6546 C   0  0  0  0  0  0  0  0  0  0  0  0
    0.2407   -0.9706   41.5952 C   0  0  0  0  0  0  0  0  0  0  0  0
    1.6195   -1.2958   41.8767 C   0  0  0  0  0  0  0  0  0  0  0  0
    1.9162   -2.6816   42.2016 C   0  0  0  0  0  0  0  0  0  0  0  0
    0.9422   -3.6324   42.1156 C   0  0  0  0  0  0  0  0  0  0  0  0
    2.6136   -0.2815   42.1191 C   0  0  0  0  0  0  0  0  0  0  0  0
    3.9096   -0.5773   42.5950 C   0  0  0  0  0  0  0  0  0  0  0  0
    4.9367    0.3662   42.6897 C   0  0  0  0  0  0  0  0  0  0  0  0
   -2.0669   -1.7559   41.0542 C   0  0  0  0  0  0  0  0  0  0  0  0
   -2.8030   -2.7006   40.5388 N   0  0  0  0  0  0  0  0  0  0  0  0
   -2.6928   -0.6205   41.4806 N   0  0  0  0  0  0  0  0  0  0  0  0
    4.1634   -1.8396   43.2211 C   0  0  0  0  0  0  0  0  0  0  0  0
    4.8070   -1.8445   44.5388 C   0  0  0  0  0  0  0  0  0  0  0  0
    4.9446   -3.0705   45.1974 C   0  0  0  0  0  0  0  0  0  0  0  0
    5.8322   -3.0774   46.3421 C   0  0  0  0  0  0  0  0  0  0  0  0
    5.8515   -4.2082   47.1543 C   0  0  0  0  0  0  0  0  0  0  0  0
    6.6466   -4.2739   48.3399 C   0  0  0  0  0  0  0  0  0  0  0  0
    5.9776   -4.7447   49.4823 C   0  0  0  0  0  0  0  0  0  0  0  0
    6.8794   -5.5989   50.2348 C   0  0  0  0  0  0  0  0  0  0  0  0
    6.6833   -6.9423   49.9764 C   0  0  0  0  0  0  0  0  0  0  0  0
  4  7  1  0
  7  8  2  3
  8  9  1  0
  1 10  1  0
 10 11  1  0
 10 12  2  3
  8 13  1  0
 13 14  2  3
 14 15  1  0
 15 16  2  3
 16 17  1  0
 17 18  1  0
 18 19  1  0
 19 20  2  3
 20 21  1  0
  1  2  2  0
  2  6  1  0
  6  5  2  0
  5  4  1  0
  4  3  2  0
  3  1  1  0
M  END
$$$$
O14757_PocketFlow_idx-in-all-generaetd-173
     RDKit          3D

 11 11  0  0  0  0  0  0  0  0999 V2000
    0.0138   -2.7927   42.5918 N   0  0  0  0  0  0  0  0  0  0  0  0
   -0.1707   -2.5494   41.4965 C   0  0  0  0  0  0  0  0  0  0  0  0
    1.2764   -3.3791   42.9912 C   0  0  0  0  0  0  0  0  0  0  0  0
    1.5523   -4.0235   44.1412 C   0  0  0  0  0  0  0  0  0  0  0  0
    2.8300   -4.3596   44.5540 C   0  0  0  0  0  0  0  0  0  0  0  0
    3.1992   -5.2715   45.5475 C   0  0  0  0  0  0  0  0  0  0  0  0
    4.5821   -5.4606   45.8197 C   0  0  0  0  0  0  0  0  0  0  0  0
    5.3742   -4.3813   45.4816 C   0  0  0  0  0  0  0  0  0  0  0  0
    3.9063   -3.3375   44.3168 C   0  0  0  0  0  0  0  0  0  0  0  0
    5.1234   -3.4019   44.7481 C   0  0  0  0  0  0  0  0  0  0  0  0
   -1.3639   -2.0353   41.1521 N   0  0  0  0  0  0  0  0  0  0  0  0
  1  2  2  3
  1  3  1  0
  3  4  1  0
  4  5  1  0
  2 11  1  0
  5  6  2  0
  6  7  1  0
  7  8  2  0
  8 10  1  0
 10  9  2  0
  9  5  1  0
M  END
$$$$
O14757_PocketFlow_idx-in-all-generaetd-174
     RDKit          3D

 13 14  0  0  0  0  0  0  0  0999 V2000
    0.2881   -2.9111   42.4378 C   0  0  0  0  0  0  0  0  0  0  0  0
    1.1784   -3.4293   42.9321 C   0  0  0  0  0  0  0  0  0  0  0  0
    1.1643   -4.3749   43.9960 C   0  0  0  0  0  0  0  0  0  0  0  0
    0.3914   -5.4664   43.9687 C   0  0  0  0  0  0  0  0  0  0  0  0
    0.4190   -2.2751   41.1719 C   0  0  0  0  0  0  0  0  0  0  0  0
    1.5947   -1.5784   40.9712 C   0  0  0  0  0  0  0  0  0  0  0  0
    2.6357   -1.7270   41.9716 C   0  0  0  0  0  0  0  0  0  0  0  0
    2.4538   -2.6139   43.0016 C   0  0  0  0  0  0  0  0  0  0  0  0
    0.4348   -6.5085   44.8687 C   0  0  0  0  0  0  0  0  0  0  0  0
    1.1424   -6.2965   46.0580 C   0  0  0  0  0  0  0  0  0  0  0  0
    1.8863   -5.1145   46.2302 C   0  0  0  0  0  0  0  0  0  0  0  0
    1.8737   -4.1414   45.2871 C   0  0  0  0  0  0  0  0  0  0  0  0
    3.5692   -2.8470   43.9512 C   0  0  0  0  0  0  0  0  0  0  0  0
  2  3  1  0
  8 13  1  0
  1  2  2  0
  2  8  1  0
  8  7  2  0
  7  6  1  0
  6  5  2  0
  5  1  1  0
  3  4  2  0
  4  9  1  0
  9 10  2  0
 10 11  1  0
 11 12  2  0
 12  3  1  0
M  END
$$$$
O14757_PocketFlow_idx-in-all-generaetd-175
     RDKit          3D

 35 38  0  0  0  0  0  0  0  0999 V2000
   -0.6770   -2.0561   41.5845 Cl  0  0  0  0  0  0  0  0  0  0  0  0
    0.6635   -1.3656   41.8224 C   0  0  0  0  0  0  0  0  0  0  0  0
    1.7380   -1.9855   42.4015 C   0  0  0  0  0  0  0  0  0  0  0  0
    1.6001   -3.2467   42.9558 C   0  0  0  0  0  0  0  0  0  0  0  0
    2.5407   -3.7821   43.8587 C   0  0  0  0  0  0  0  0  0  0  0  0
    3.7862   -3.0746   43.9600 C   0  0  0  0  0  0  0  0  0  0  0  0
    3.9531   -1.8598   43.3055 C   0  0  0  0  0  0  0  0  0  0  0  0
    2.9319   -1.3510   42.5582 C   0  0  0  0  0  0  0  0  0  0  0  0
    4.8527   -3.6533   44.8322 C   0  0  0  0  0  0  0  0  0  0  0  0
    4.9016   -3.2289   46.2224 C   0  0  0  0  0  0  0  0  0  0  0  0
    5.5775   -4.0883   47.1352 C   0  0  0  0  0  0  0  0  0  0  0  0
    0.8683   -0.1194   41.2754 O   0  0  0  0  0  0  0  0  0  0  0  0
    6.6464   -3.5274   47.8054 C   0  0  0  0  0  0  0  0  0  0  0  0
    5.2361   -1.2279   43.6598 C   0  0  0  0  0  0  0  0  0  0  0  0
    5.4633   -0.1311   42.8995 O   0  0  0  0  0  0  0  0  0  0  0  0
    6.1190   -1.5397   44.4797 O   0  0  0  0  0  0  0  0  0  0  0  0
    7.8715   -4.1940   48.1138 C   0  0  0  0  0  0  0  0  0  0  0  0
    7.8002   -5.5285   48.4994 C   0  0  0  0  0  0  0  0  0  0  0  0
    6.4752   -6.1335   48.1597 C   0  0  0  0  0  0  0  0  0  0  0  0
    5.4933   -5.4474   47.3526 C   0  0  0  0  0  0  0  0  0  0  0  0
    9.0101   -3.3892   48.6031 C   0  0  0  0  0  0  0  0  0  0  0  0
    9.5671   -2.5709   47.6373 C   0  0  0  0  0  0  0  0  0  0  0  0
    9.0916   -2.1321   46.6772 C   0  0  0  0  0  0  0  0  0  0  0  0
    9.8120   -1.1253   45.7998 C   0  0  0  0  0  0  0  0  0  0  0  0
   11.0923   -0.9068   46.1703 C   0  0  0  0  0  0  0  0  0  0  0  0
   10.9825   -2.2395   47.9851 C   0  0  0  0  0  0  0  0  0  0  0  0
   11.5982   -2.8191   49.2506 C   0  0  0  0  0  0  0  0  0  0  0  0
   11.7039   -1.3237   47.2475 C   0  0  0  0  0  0  0  0  0  0  0  0
   10.6401   -3.4212   50.0998 C   0  0  0  0  0  0  0  0  0  0  0  0
    9.5425   -3.8808   49.8046 C   0  0  0  0  0  0  0  0  0  0  0  0
    2.2829   -5.0352   44.5151 C   0  0  0  0  0  0  0  0  0  0  0  0
    0.9872   -5.5636   44.5696 C   0  0  0  0  0  0  0  0  0  0  0  0
    0.5176   -6.2213   45.4590 C   0  0  0  0  0  0  0  0  0  0  0  0
   -0.7355   -7.0873   45.3159 C   0  0  0  0  0  0  0  0  0  0  0  0
   -1.1179   -7.3886   44.0558 C   0  0  0  0  0  0  0  0  0  0  0  0
  1  2  1  0
  2  3  1  0
  6  9  1  0
  9 10  1  0
 10 11  1  0
  2 12  2  0
  7 14  1  0
 14 15  2  0
 14 16  1  0
 17 21  1  0
  5 31  1  0
 31 32  2  3
 32 33  1  0
 33 34  1  0
 34 35  2  0
 11 13  2  0
 13 17  1  0
 17 18  2  0
 18 19  1  0
 19 20  2  0
 20 11  1  0
  3  4  2  0
  4  5  1  0
  5  6  2  0
  6  7  1  0
  7  8  2  0
  8  3  1  0
 21 22  1  0
 26 27  1  0
 27 29  2  0
 29 30  1  0
 30 21  2  0
 22 23  2  0
 23 24  1  0
 24 25  2  0
 25 28  1  0
 28 26  2  0
 26 22  1  0
M  END
$$$$
O14757_PocketFlow_idx-in-all-generaetd-176
     RDKit          3D

 16 17  0  0  0  0  0  0  0  0999 V2000
   -0.6395   -2.0713   41.4947 C   0  0  0  0  0  0  0  0  0  0  0  0
    0.1859   -1.1027   41.5970 C   0  0  0  0  0  0  0  0  0  0  0  0
    1.5836   -1.3270   41.4669 C   0  0  0  0  0  0  0  0  0  0  0  0
   -0.2462   -3.3905   41.2409 C   0  0  0  0  0  0  0  0  0  0  0  0
    2.5675   -0.3472   41.7943 C   0  0  0  0  0  0  0  0  0  0  0  0
    3.8546   -0.6776   42.2362 C   0  0  0  0  0  0  0  0  0  0  0  0
    4.0126   -1.8382   43.0706 C   0  0  0  0  0  0  0  0  0  0  0  0
    5.1537   -2.1455   43.8442 C   0  0  0  0  0  0  0  0  0  0  0  0
    5.1915   -3.3190   44.6226 C   0  0  0  0  0  0  0  0  0  0  0  0
    4.0563   -4.1863   44.6143 C   0  0  0  0  0  0  0  0  0  0  0  0
    2.9046   -3.8390   43.9200 C   0  0  0  0  0  0  0  0  0  0  0  0
    2.8634   -2.6645   43.1880 C   0  0  0  0  0  0  0  0  0  0  0  0
    1.1243   -3.6340   41.0345 C   0  0  0  0  0  0  0  0  0  0  0  0
    1.9873   -2.5954   41.1944 C   0  0  0  0  0  0  0  0  0  0  0  0
    2.4735   -2.9271   41.9535 F   0  0  0  0  0  0  0  0  0  0  0  0
    1.9194   -2.0096   43.9413 F   0  0  0  0  0  0  0  0  0  0  0  0
  3  5  1  0
  5  6  1  0
 14 15  1  0
 12 16  1  0
  6  7  1  0
  7  8  2  0
  8  9  1  0
  9 10  2  0
 10 11  1  0
 11 12  2  0
 12  7  1  0
  1  2  2  0
  2  3  1  0
  3 14  2  0
 14 13  1  0
 13  4  2  0
  4  1  1  0
M  END
$$$$
O14757_PocketFlow_idx-in-all-generaetd-177
     RDKit          3D

 35 40  0  0  0  0  0  0  0  0999 V2000
   -0.6395   -2.0713   41.4947 C   0  0  0  0  0  0  0  0  0  0  0  0
   -0.2671   -3.2464   41.6546 C   0  0  0  0  0  0  0  0  0  0  0  0
    0.2407   -0.9706   41.5952 C   0  0  0  0  0  0  0  0  0  0  0  0
    1.6195   -1.2958   41.8767 C   0  0  0  0  0  0  0  0  0  0  0  0
    1.9162   -2.6816   42.2016 C   0  0  0  0  0  0  0  0  0  0  0  0
    0.9422   -3.6324   42.1156 C   0  0  0  0  0  0  0  0  0  0  0  0
    2.6088   -0.2775   42.1300 C   0  0  0  0  0  0  0  0  0  0  0  0
    3.9059   -0.5876   42.5995 C   0  0  0  0  0  0  0  0  0  0  0  0
    4.1995   -0.8830   43.7313 C   0  0  0  0  0  0  0  0  0  0  0  0
    5.5985   -1.1768   44.2323 C   0  0  0  0  0  0  0  0  0  0  0  0
    5.8860   -1.8725   45.3081 C   0  0  0  0  0  0  0  0  0  0  0  0
    4.8821   -2.5622   46.0351 C   0  0  0  0  0  0  0  0  0  0  0  0
    3.5563   -2.5392   45.4846 C   0  0  0  0  0  0  0  0  0  0  0  0
    3.2953   -1.8144   44.3972 C   0  0  0  0  0  0  0  0  0  0  0  0
    7.3183   -1.8855   45.7963 C   0  0  0  0  0  0  0  0  0  0  0  0
    8.2009   -0.9181   45.6962 C   0  0  0  0  0  0  0  0  0  0  0  0
    7.6487   -3.0840   46.5853 C   0  0  0  0  0  0  0  0  0  0  0  0
    8.9727   -3.3411   46.9653 C   0  0  0  0  0  0  0  0  0  0  0  0
    9.5714   -1.0804   46.2160 C   0  0  0  0  0  0  0  0  0  0  0  0
    9.8888   -2.2651   46.8710 C   0  0  0  0  0  0  0  0  0  0  0  0
   -1.8912   -1.5656   41.0085 O   0  0  0  0  0  0  0  0  0  0  0  0
    9.3353   -4.5848   47.6036 C   0  0  0  0  0  0  0  0  0  0  0  0
    8.6262   -5.3669   48.2504 C   0  0  1  0  0  0  0  0  0  0  0  0
    7.2845   -4.8658   48.6895 C   0  0  1  0  0  0  0  0  0  0  0  0
    6.6486   -3.9160   47.6641 C   0  0  0  0  0  0  0  0  0  0  0  0
    6.2186   -5.7559   48.9800 O   0  0  0  0  0  0  0  0  0  0  0  0
    6.4807   -7.0670   49.3045 C   0  0  0  0  0  0  0  0  0  0  0  0
    5.3171   -7.8346   49.4413 C   0  0  0  0  0  0  0  0  0  0  0  0
    5.5402   -9.2181   49.6610 C   0  0  0  0  0  0  0  0  0  0  0  0
    6.7191   -9.5370   49.3752 C   0  0  0  0  0  0  0  0  0  0  0  0
    7.8603   -8.8878   49.0547 C   0  0  0  0  0  0  0  0  0  0  0  0
    7.7700   -7.4933   49.4355 C   0  0  1  0  0  0  0  0  0  0  0  0
    8.6834   -6.5046   48.5866 C   0  0  0  0  0  0  0  0  0  0  0  0
    8.1778   -7.2678   50.9786 C   0  0  0  0  0  0  0  0  0  0  0  0
    7.5211   -3.8851   49.9416 C   0  0  0  0  0  0  0  0  0  0  0  0
  4  7  1  0
  7  8  2  3
  8  9  1  0
 11 15  1  0
  1 21  1  0
 18 22  1  0
 23 24  1  0
 17 25  1  0
 24 25  1  0
 24 26  1  0
 26 27  1  0
 27 28  1  0
 28 29  1  0
 30 31  1  0
 27 32  1  0
 31 32  1  0
 23 33  1  6
 32 33  1  0
 32 34  1  1
 24 35  1  1
 29 30  1  0
 23 22  1  0
 15 16  2  0
 16 19  1  0
 19 20  2  0
 20 18  1  0
 18 17  2  0
 17 15  1  0
  9 10  2  0
 10 11  1  0
 11 12  2  0
 12 13  1  0
 13 14  2  0
 14  9  1  0
  1  2  2  0
  2  6  1  0
  6  5  2  0
  5  4  1  0
  4  3  2  0
  3  1  1  0
M  END
$$$$
O14757_PocketFlow_idx-in-all-generaetd-178
     RDKit          3D

 35 38  0  0  0  0  0  0  0  0999 V2000
    0.2881   -2.9111   42.4378 C   0  0  0  0  0  0  0  0  0  0  0  0
    1.1784   -3.4293   42.9321 C   0  0  0  0  0  0  0  0  0  0  0  0
    1.1643   -4.3749   43.9960 C   0  0  1  0  0  0  0  0  0  0  0  0
    2.1193   -4.3779   45.0297 C   0  0  0  0  0  0  0  0  0  0  0  0
    3.3226   -3.5984   44.7944 C   0  0  0  0  0  0  0  0  0  0  0  0
    4.4155   -3.6036   45.7748 C   0  0  0  0  0  0  0  0  0  0  0  0
    0.5528   -1.8487   41.4140 C   0  0  0  0  0  0  0  0  0  0  0  0
    1.7283   -1.1280   41.6051 C   0  0  0  0  0  0  0  0  0  0  0  0
    2.7057   -1.6062   42.4212 C   0  0  0  0  0  0  0  0  0  0  0  0
    2.4991   -2.7018   43.1557 C   0  0  0  0  0  0  0  0  0  0  0  0
    3.2685   -3.2508   43.8019 F   0  0  0  0  0  0  0  0  0  0  0  0
    3.1706   -2.5309   45.1753 Cl  0  0  0  0  0  0  0  0  0  0  0  0
    4.9613   -4.7989   46.0361 C   0  0  0  0  0  0  0  0  0  0  0  0
    5.3103   -2.5061   46.1775 C   0  0  0  0  0  0  0  0  0  0  0  0
    5.9307   -4.9510   47.0440 C   0  0  0  0  0  0  0  0  0  0  0  0
    6.3667   -3.9695   47.6311 C   0  0  0  0  0  0  0  0  0  0  0  0
    6.2399   -2.6854   47.2534 C   0  0  0  0  0  0  0  0  0  0  0  0
    7.4185   -4.3337   48.6367 C   0  0  0  0  0  0  0  0  0  0  0  0
    8.7372   -4.6313   48.3414 C   0  0  0  0  0  0  0  0  0  0  0  0
    9.3892   -4.0939   47.5230 C   0  0  0  0  0  0  0  0  0  0  0  0
   10.7149   -4.4762   47.0336 C   0  0  0  0  0  0  0  0  0  0  0  0
   11.2072   -5.6257   47.5923 C   0  0  0  0  0  0  0  0  0  0  0  0
    9.3168   -5.8593   48.8843 C   0  0  0  0  0  0  0  0  0  0  0  0
   10.5281   -6.3056   48.5643 C   0  0  0  0  0  0  0  0  0  0  0  0
   -0.0251   -5.2838   44.0654 C   0  0  0  0  0  0  0  0  0  0  0  0
    0.1276   -6.2762   45.1151 C   0  0  0  0  0  0  0  0  0  0  0  0
   -0.9984   -7.1764   45.2313 C   0  0  0  0  0  0  0  0  0  0  0  0
   -0.9290   -8.0895   46.3238 C   0  0  0  0  0  0  0  0  0  0  0  0
    0.2093   -8.3417   46.9894 C   0  0  0  0  0  0  0  0  0  0  0  0
    1.3738   -7.6440   46.6233 C   0  0  0  0  0  0  0  0  0  0  0  0
    1.3151   -6.5918   45.7761 C   0  0  0  0  0  0  0  0  0  0  0  0
   -2.1468   -8.9502   46.5129 C   0  0  0  0  0  0  0  0  0  0  0  0
   -2.3049   -9.6646   47.5691 C   0  0  0  0  0  0  0  0  0  0  0  0
   -3.5519  -10.2313   47.8759 C   0  0  0  0  0  0  0  0  0  0  0  0
   -4.6683   -9.9417   47.0612 C   0  0  0  0  0  0  0  0  0  0  0  0
  3  4  1  0
  4  5  2  3
  5  6  1  0
 10 11  1  0
  5 12  1  0
 16 18  1  0
 18 19  1  0
  3 25  1  1
 25 26  1  0
 28 32  1  0
 32 33  2  3
 33 34  1  0
 34 35  2  0
  3  2  1  0
 26 27  2  0
 27 28  1  0
 28 29  2  0
 29 30  1  0
 30 31  2  0
 31 26  1  0
  1  2  2  0
  2 10  1  0
 10  9  2  0
  9  8  1  0
  8  7  2  0
  7  1  1  0
  6 13  2  0
 13 15  1  0
 15 16  2  0
 16 17  1  0
 17 14  2  0
 14  6  1  0
 19 20  2  0
 20 21  1  0
 21 22  2  0
 22 24  1  0
 24 23  2  0
 23 19  1  0
M  END
$$$$
O14757_PocketFlow_idx-in-all-generaetd-179
     RDKit          3D

 35 38  0  0  0  0  0  0  0  0999 V2000
   -0.6395   -2.0713   41.4947 C   0  0  0  0  0  0  0  0  0  0  0  0
    0.6719   -2.2449   41.7518 C   0  0  0  0  0  0  0  0  0  0  0  0
    1.3815   -1.6359   42.7231 C   0  0  0  0  0  0  0  0  0  0  0  0
   -1.3884   -2.9047   40.6798 C   0  0  0  0  0  0  0  0  0  0  0  0
    2.7413   -2.0881   43.0208 C   0  0  0  0  0  0  0  0  0  0  0  0
    3.8593   -1.2723   42.8875 C   0  0  0  0  0  0  0  0  0  0  0  0
    5.0530   -1.6743   43.6429 C   0  0  0  0  0  0  0  0  0  0  0  0
    5.0282   -2.9291   44.2548 C   0  0  0  0  0  0  0  0  0  0  0  0
    3.9151   -3.7347   44.2570 C   0  0  0  0  0  0  0  0  0  0  0  0
    2.7361   -3.2765   43.7074 C   0  0  0  0  0  0  0  0  0  0  0  0
    3.7457    0.3015   42.2850 Cl  0  0  0  0  0  0  0  0  0  0  0  0
    3.9091   -5.0559   44.9150 C   0  0  0  0  0  0  0  0  0  0  0  0
    2.9445   -5.2254   45.9891 C   0  0  0  0  0  0  0  0  0  0  0  0
    1.5784   -5.2534   45.4105 C   0  0  2  0  0  0  0  0  0  0  0  0
    0.5847   -5.8771   46.2216 C   0  0  0  0  0  0  0  0  0  0  0  0
   -0.0185   -7.1039   45.4638 C   0  0  1  0  0  0  0  0  0  0  0  0
   -1.4632   -7.1317   45.4818 C   0  0  0  0  0  0  0  0  0  0  0  0
   -2.0518   -8.0783   44.5668 C   0  0  0  0  0  0  0  0  0  0  0  0
   -3.2171   -8.7536   44.9734 C   0  0  0  0  0  0  0  0  0  0  0  0
   -4.2892   -8.7868   44.0111 C   0  0  0  0  0  0  0  0  0  0  0  0
   -5.4993   -8.2923   44.3718 C   0  0  0  0  0  0  0  0  0  0  0  0
   -6.3788   -7.8969   43.6250 O   0  0  0  0  0  0  0  0  0  0  0  0
   -5.7535   -8.3863   45.7160 O   0  0  0  0  0  0  0  0  0  0  0  0
   -2.6987   -2.6116   40.5699 N   0  0  0  0  0  0  0  0  0  0  0  0
    1.4767   -5.6559   44.0068 C   0  0  2  0  0  0  0  0  0  0  0  0
   -3.0943   -1.3842   41.0122 C   0  0  0  0  0  0  0  0  0  0  0  0
   -2.4077   -0.4631   41.5176 N   0  0  0  0  0  0  0  0  0  0  0  0
   -1.1461   -0.7287   41.7387 C   0  0  0  0  0  0  0  0  0  0  0  0
   -4.4134   -0.9276   40.6721 N   0  0  0  0  0  0  0  0  0  0  0  0
    1.0663   -3.6911   45.1695 C   0  0  0  0  0  0  0  0  0  0  0  0
    1.4907   -3.7408   44.0295 C   0  0  1  0  0  0  0  0  0  0  0  0
    0.5060   -3.6425   43.1672 O   0  0  0  0  0  0  0  0  0  0  0  0
    0.2254   -6.0750   43.6327 C   0  0  0  0  0  0  0  0  0  0  0  0
    2.5845   -6.4575   43.7063 C   0  0  0  0  0  0  0  0  0  0  0  0
    0.4790   -7.4230   44.3985 O   0  0  0  0  0  0  0  0  0  0  0  0
  1  2  1  0
  2  3  2  3
  3  5  1  0
  6 11  1  0
  9 12  1  0
 12 13  1  0
 14 13  1  1
 14 15  1  0
 15 16  1  0
 16 17  1  6
 17 18  1  0
 18 19  1  0
 19 20  1  0
 20 21  1  0
 21 22  2  0
 21 23  1  0
 14 25  1  0
 26 29  1  0
 14 30  1  0
 10 31  1  0
 30 31  1  0
 31 32  1  6
 25 33  1  0
 25 34  1  1
 16 35  1  0
 33 35  1  0
  1  4  2  0
  4 24  1  0
 24 26  2  0
 26 27  1  0
 27 28  2  0
 28  1  1  0
  5  6  2  0
  6  7  1  0
  7  8  2  0
  8  9  1  0
  9 10  2  0
 10  5  1  0
M  END
$$$$
O14757_PocketFlow_idx-in-all-generaetd-180
     RDKit          3D

 35 42  0  0  0  0  0  0  0  0999 V2000
   -0.6395   -2.0713   41.4947 C   0  0  0  0  0  0  0  0  0  0  0  0
   -0.2671   -3.2464   41.6546 C   0  0  0  0  0  0  0  0  0  0  0  0
   -2.0053   -1.6706   41.3987 C   0  0  0  0  0  0  0  0  0  0  0  0
   -2.2928   -0.3176   41.3208 C   0  0  1  0  0  0  0  0  0  0  0  0
   -1.1183    0.4291   41.3014 N   0  0  0  0  0  0  0  0  0  0  0  0
   -0.1078   -0.5944   41.4777 C   0  0  2  0  0  0  0  0  0  0  0  0
    1.3561   -0.3417   41.5261 C   0  0  0  0  0  0  0  0  0  0  0  0
    2.1696   -1.2783   42.1369 C   0  0  0  0  0  0  0  0  0  0  0  0
    3.4956   -0.8640   42.4297 C   0  0  0  0  0  0  0  0  0  0  0  0
    4.3401   -1.7397   43.1392 C   0  0  0  0  0  0  0  0  0  0  0  0
    3.8216   -2.8973   43.7451 C   0  0  0  0  0  0  0  0  0  0  0  0
    2.4360   -3.1740   43.5116 C   0  0  0  0  0  0  0  0  0  0  0  0
    1.6572   -2.3250   42.7961 C   0  0  0  0  0  0  0  0  0  0  0  0
    0.9456   -3.3598   42.4284 N   0  0  0  0  0  0  0  0  0  0  0  0
    4.6025   -3.7349   44.6515 C   0  0  1  0  0  0  0  0  0  0  0  0
    5.6222   -3.1491   45.4483 C   0  0  0  0  0  0  0  0  0  0  0  0
    6.2240   -3.7997   46.5298 C   0  0  0  0  0  0  0  0  0  0  0  0
    7.4300   -3.2638   47.0548 C   0  0  1  0  0  0  0  0  0  0  0  0
    8.1936   -3.9522   48.0602 C   0  0  0  0  0  0  0  0  0  0  0  0
    7.4346   -4.8143   48.8751 C   0  0  0  0  0  0  0  0  0  0  0  0
    6.0883   -5.1419   48.5357 C   0  0  0  0  0  0  0  0  0  0  0  0
    5.4838   -4.6152   47.4168 C   0  0  0  0  0  0  0  0  0  0  0  0
    8.2176   -2.4269   46.1274 C   0  0  0  0  0  0  0  0  0  0  0  0
    9.4711   -1.9285   46.6039 C   0  0  0  0  0  0  0  0  0  0  0  0
   10.0146   -0.8526   45.8710 C   0  0  0  0  0  0  0  0  0  0  0  0
    6.8567   -2.6381   44.5506 C   0  0  0  0  0  0  0  0  0  0  0  0
    7.6484   -2.0031   45.0093 C   0  0  0  0  0  0  0  0  0  0  0  0
   -3.5154    0.3565   41.1140 C   0  0  0  0  0  0  0  0  0  0  0  0
   10.2449   -2.5776   47.6472 C   0  0  0  0  0  0  0  0  0  0  0  0
    9.4626   -3.5082   48.4798 C   0  0  0  0  0  0  0  0  0  0  0  0
    0.7626   -4.7853   43.1913 C   0  0  0  0  0  0  0  0  0  0  0  0
    1.8534   -4.1652   44.3432 C   0  0  2  0  0  0  0  0  0  0  0  0
    1.1393   -3.7714   45.5825 C   0  0  0  0  0  0  0  0  0  0  0  0
    2.7790   -5.4255   44.6743 C   0  0  0  0  0  0  0  0  0  0  0  0
    3.9423   -5.3269   44.5725 C   0  0  0  0  0  0  0  0  0  0  0  0
  1  2  1  0
  1  3  2  0
  3  4  1  0
  4  5  1  0
  1  6  1  0
  5  6  1  0
  6  7  1  6
  7  8  1  0
  8  9  2  0
  9 10  1  0
 10 11  2  0
 11 12  1  0
  8 13  1  0
 12 13  2  0
  2 14  1  0
 13 14  1  0
 11 15  1  0
 15 16  1  1
 16 17  2  0
 18 17  1  6
 18 19  1  0
 19 20  2  0
 20 21  1  0
 17 22  1  0
 21 22  2  0
 18 23  1  0
 23 24  2  0
 24 25  1  0
 16 26  1  0
 23 27  1  0
 26 27  2  0
  4 28  1  6
 24 29  1  0
 19 30  1  0
 29 30  1  0
 14 31  1  0
 12 32  1  0
 31 32  1  0
 32 33  1  1
 32 34  1  0
 15 35  1  0
 34 35  2  0
M  END
$$$$
O14757_PocketFlow_idx-in-all-generaetd-181
     RDKit          3D

 35 37  0  0  0  0  0  0  0  0999 V2000
   -0.6395   -2.0713   41.4947 C   0  0  0  0  0  0  0  0  0  0  0  0
    0.1859   -1.1027   41.5970 C   0  0  0  0  0  0  0  0  0  0  0  0
    1.5858   -1.4430   41.9548 C   0  0  0  0  0  0  0  0  0  0  0  0
    2.6622   -0.5501   42.0082 C   0  0  0  0  0  0  0  0  0  0  0  0
    3.8608   -0.8421   42.6622 C   0  0  1  0  0  0  0  0  0  0  0  0
    4.8744    0.0633   42.9841 C   0  0  0  0  0  0  0  0  0  0  0  0
   -0.2628   -3.4281   41.4503 C   0  0  0  0  0  0  0  0  0  0  0  0
    1.0244   -3.7736   41.8662 C   0  0  0  0  0  0  0  0  0  0  0  0
    1.9410   -2.7702   42.0429 C   0  0  0  0  0  0  0  0  0  0  0  0
   -2.3302   -1.7220   41.0756 Cl  0  0  0  0  0  0  0  0  0  0  0  0
    5.8962   -0.4146   43.7163 N   0  0  0  0  0  0  0  0  0  0  0  0
    5.7770   -1.6585   44.2262 C   0  0  0  0  0  0  0  0  0  0  0  0
    4.2103   -2.0622   43.4360 C   0  0  0  0  0  0  0  0  0  0  0  0
    6.3447   -2.4380   45.0853 C   0  0  0  0  0  0  0  0  0  0  0  0
    5.8209   -3.6285   45.6901 C   0  0  0  0  0  0  0  0  0  0  0  0
    6.5126   -4.2025   46.7742 C   0  0  0  0  0  0  0  0  0  0  0  0
    7.7621   -3.6877   47.1901 C   0  0  0  0  0  0  0  0  0  0  0  0
    8.2909   -2.5286   46.6005 C   0  0  0  0  0  0  0  0  0  0  0  0
    7.5982   -1.8836   45.6113 C   0  0  0  0  0  0  0  0  0  0  0  0
    8.4657   -4.3103   48.3157 C   0  0  0  0  0  0  0  0  0  0  0  0
    7.7854   -4.8693   49.1199 F   0  0  0  0  0  0  0  0  0  0  0  0
    9.1489   -3.3346   48.9695 F   0  0  0  0  0  0  0  0  0  0  0  0
    9.4324   -5.1380   47.8425 F   0  0  0  0  0  0  0  0  0  0  0  0
    2.5237    0.6538   41.5197 O   0  0  0  0  0  0  0  0  0  0  0  0
    4.5810   -4.1849   45.3135 C   0  0  0  0  0  0  0  0  0  0  0  0
    4.0592   -5.4026   45.8794 C   0  0  0  0  0  0  0  0  0  0  0  0
    2.8897   -5.9656   45.5063 C   0  0  0  0  0  0  0  0  0  0  0  0
    2.0946   -5.2419   44.6443 C   0  0  0  0  0  0  0  0  0  0  0  0
    1.3091   -4.6585   45.0467 C   0  0  1  0  0  0  0  0  0  0  0  0
    0.5451   -3.5027   44.5123 C   0  0  0  0  0  0  0  0  0  0  0  0
    0.3672   -5.4296   46.0634 C   0  0  0  0  0  0  0  0  0  0  0  0
   -0.7444   -6.1893   45.5192 C   0  0  0  0  0  0  0  0  0  0  0  0
   -1.2257   -7.1614   46.5105 C   0  0  0  0  0  0  0  0  0  0  0  0
   -0.9711   -8.5186   46.0256 C   0  0  0  0  0  0  0  0  0  0  0  0
   -2.2136   -9.2140   45.9047 C   0  0  0  0  0  0  0  0  0  0  0  0
  3  4  1  0
  5  4  1  1
  5  6  1  0
  1 10  1  0
  6 11  1  0
 11 12  2  0
  5 13  1  0
 12 13  1  0
 12 14  1  0
 17 20  1  0
 20 21  1  0
 20 22  1  0
 20 23  1  0
  4 24  2  0
 15 25  1  0
 25 26  2  3
 26 27  1  0
 27 28  2  3
 28 29  1  0
 29 30  1  6
 29 31  1  0
 31 32  1  0
 32 33  1  0
 33 34  1  0
 34 35  1  0
 14 15  2  0
 15 16  1  0
 16 17  2  0
 17 18  1  0
 18 19  2  0
 19 14  1  0
  1  2  2  0
  2  3  1  0
  3  9  2  0
  9  8  1  0
  8  7  2  0
  7  1  1  0
M  END
$$$$
O14757_PocketFlow_idx-in-all-generaetd-182
     RDKit          3D

 35 35  0  0  0  0  0  0  0  0999 V2000
    0.2881   -2.9111   42.4378 C   0  0  0  0  0  0  0  0  0  0  0  0
   -0.0650   -2.5020   41.5798 C   0  0  0  0  0  0  0  0  0  0  0  0
    1.6221   -3.4772   42.5980 C   0  0  0  0  0  0  0  0  0  0  0  0
    2.0908   -4.0216   43.8699 C   0  0  0  0  0  0  0  0  0  0  0  0
    1.0527   -4.4694   44.7582 C   0  0  0  0  0  0  0  0  0  0  0  0
    1.4911   -5.1342   45.9396 C   0  0  0  0  0  0  0  0  0  0  0  0
   -1.4617   -2.0392   41.2894 C   0  0  0  0  0  0  0  0  0  0  0  0
    2.8005   -5.1279   46.3112 C   0  0  0  0  0  0  0  0  0  0  0  0
    3.7937   -4.5372   45.3765 C   0  0  0  0  0  0  0  0  0  0  0  0
    3.3418   -3.9793   44.1588 C   0  0  0  0  0  0  0  0  0  0  0  0
   -2.1075   -1.9512   42.2781 F   0  0  0  0  0  0  0  0  0  0  0  0
    5.2308   -4.5698   45.7686 C   0  0  0  0  0  0  0  0  0  0  0  0
    5.4917   -4.2433   47.1568 C   0  0  0  0  0  0  0  0  0  0  0  0
    6.5710   -4.9495   47.7979 C   0  0  0  0  0  0  0  0  0  0  0  0
    6.5766   -5.0539   49.1624 C   0  0  0  0  0  0  0  0  0  0  0  0
    6.2133   -6.0979   49.6125 O   0  0  0  0  0  0  0  0  0  0  0  0
    6.4942   -3.9619   49.9049 O   0  0  0  0  0  0  0  0  0  0  0  0
   -2.1476   -2.9047   40.4233 F   0  0  0  0  0  0  0  0  0  0  0  0
   -1.6378   -0.8018   40.7256 F   0  0  0  0  0  0  0  0  0  0  0  0
    0.5424   -5.6221   46.7313 O   0  0  0  0  0  0  0  0  0  0  0  0
   -0.6626   -5.9835   46.1394 C   0  0  0  0  0  0  0  0  0  0  0  0
   -0.8673   -7.5293   46.1524 C   0  0  2  0  0  0  0  0  0  0  0  0
   -1.9251   -7.9275   46.7981 C   0  0  0  0  0  0  0  0  0  0  0  0
   -2.9236   -8.6008   46.1239 C   0  0  0  0  0  0  0  0  0  0  0  0
   -3.5760   -7.7242   45.2529 C   0  0  0  0  0  0  0  0  0  0  0  0
   -4.0236   -8.4640   44.0349 C   0  0  0  0  0  0  0  0  0  0  0  0
   -5.0790   -7.9264   43.5626 O   0  0  0  0  0  0  0  0  0  0  0  0
    0.4481   -7.9675   46.7501 O   0  0  0  0  0  0  0  0  0  0  0  0
   -6.2590   -8.6136   43.5190 C   0  0  0  0  0  0  0  0  0  0  0  0
    0.2973   -8.9675   47.6816 C   0  0  0  0  0  0  0  0  0  0  0  0
    1.5831   -9.2749   48.2684 C   0  0  2  0  0  0  0  0  0  0  0  0
    2.8130   -8.8624   47.5103 Cl  0  0  0  0  0  0  0  0  0  0  0  0
    1.6111  -10.6748   48.7873 N   0  0  0  0  0  0  0  0  0  0  0  0
    1.7372  -10.9295   49.9746 C   0  0  0  0  0  0  0  0  0  0  0  0
    1.6913  -12.2088   50.4633 C   0  0  0  0  0  0  0  0  0  0  0  0
  1  2  1  0
  1  3  2  3
  3  4  1  0
  2  7  1  0
  7 11  1  0
  9 12  1  0
 12 13  1  0
 13 14  1  0
 14 15  1  0
 15 16  1  0
 15 17  2  0
  7 18  1  0
  7 19  1  0
  6 20  1  0
 20 21  1  0
 22 21  1  1
 22 23  1  0
 23 24  1  0
 24 25  1  0
 25 26  1  0
 26 27  1  0
 22 28  1  0
 27 29  1  0
 28 30  1  0
 30 31  1  0
 31 32  1  6
 31 33  1  0
 33 34  1  0
 34 35  2  0
  4  5  2  0
  5  6  1  0
  6  8  2  0
  8  9  1  0
  9 10  2  0
 10  4  1  0
M  END
$$$$
O14757_PocketFlow_idx-in-all-generaetd-183
     RDKit          3D

 35 37  0  0  0  0  0  0  0  0999 V2000
    0.2881   -2.9111   42.4378 C   0  0  0  0  0  0  0  0  0  0  0  0
    1.1784   -3.4293   42.9321 C   0  0  0  0  0  0  0  0  0  0  0  0
    1.6466   -3.2662   44.1990 C   0  0  0  0  0  0  0  0  0  0  0  0
   -0.0878   -3.2042   41.0598 C   0  0  0  0  0  0  0  0  0  0  0  0
    2.9388   -3.6523   44.6442 C   0  0  2  0  0  0  0  0  0  0  0  0
    4.0633   -2.8844   44.4945 C   0  0  0  0  0  0  0  0  0  0  0  0
    4.2387   -1.7816   43.6748 C   0  0  0  0  0  0  0  0  0  0  0  0
    5.4002   -0.9417   43.8865 C   0  0  0  0  0  0  0  0  0  0  0  0
    6.4926   -1.4566   44.5831 C   0  0  0  0  0  0  0  0  0  0  0  0
    6.4217   -2.6525   45.3379 C   0  0  0  0  0  0  0  0  0  0  0  0
    5.2218   -3.3649   45.2917 C   0  0  0  0  0  0  0  0  0  0  0  0
    3.0653   -5.0039   45.1341 C   0  0  0  0  0  0  0  0  0  0  0  0
    2.5204   -6.0435   44.4789 C   0  0  0  0  0  0  0  0  0  0  0  0
    7.5635   -3.0745   46.1381 C   0  0  2  0  0  0  0  0  0  0  0  0
    7.2518   -4.0828   47.2179 Br  0  0  0  0  0  0  0  0  0  0  0  0
    8.8560   -2.4238   45.9692 C   0  0  0  0  0  0  0  0  0  0  0  0
    9.9345   -3.0759   46.6838 C   0  0  0  0  0  0  0  0  0  0  0  0
   11.1896   -2.5610   46.5362 C   0  0  0  0  0  0  0  0  0  0  0  0
   12.3256   -3.1467   47.1001 C   0  0  0  0  0  0  0  0  0  0  0  0
   12.1700   -4.3726   47.7547 C   0  0  0  0  0  0  0  0  0  0  0  0
   10.9115   -4.9179   47.8173 C   0  0  0  0  0  0  0  0  0  0  0  0
    9.8327   -4.3171   47.2424 C   0  0  0  0  0  0  0  0  0  0  0  0
    5.5089    0.1713   43.1526 O   0  0  0  0  0  0  0  0  0  0  0  0
    1.2292   -6.3053   44.4863 C   0  0  0  0  0  0  0  0  0  0  0  0
    0.4378   -6.1624   45.6214 C   0  0  0  0  0  0  0  0  0  0  0  0
   -0.8670   -6.9850   45.6327 C   0  0  1  0  0  0  0  0  0  0  0  0
   -1.0289   -7.7799   44.4978 C   0  0  0  0  0  0  0  0  0  0  0  0
   -2.4739   -8.1846   44.6134 C   0  0  0  0  0  0  0  0  0  0  0  0
   -2.8939   -9.1257   45.5054 C   0  0  0  0  0  0  0  0  0  0  0  0
   -2.4614   -8.7733   46.8768 C   0  0  1  0  0  0  0  0  0  0  0  0
   -1.1409   -7.8963   47.0260 C   0  0  0  0  0  0  0  0  0  0  0  0
   -3.5903   -8.0939   47.6643 C   0  0  0  0  0  0  0  0  0  0  0  0
   -1.8453   -9.9857   47.5342 C   0  0  0  0  0  0  0  0  0  0  0  0
   -2.7383  -10.4771   48.5101 C   0  0  0  0  0  0  0  0  0  0  0  0
   -0.7255  -10.5743   47.3350 C   0  0  0  0  0  0  0  0  0  0  0  0
  1  2  1  0
  2  3  1  0
  1  4  1  0
  5  3  1  6
  5 12  1  0
 12 13  1  0
 10 14  1  0
 14 15  1  1
 14 16  1  0
 16 17  1  0
  8 23  1  0
 13 24  1  0
 24 25  1  0
 26 25  1  1
 26 27  1  0
 27 28  1  0
 29 30  1  0
 26 31  1  0
 30 31  1  0
 30 32  1  1
 30 33  1  0
 33 34  1  0
 33 35  1  0
  5  6  1  0
 29 28  1  0
 17 18  2  0
 18 19  1  0
 19 20  2  0
 20 21  1  0
 21 22  2  0
 22 17  1  0
  6  7  2  0
  7  8  1  0
  8  9  2  0
  9 10  1  0
 10 11  2  0
 11  6  1  0
M  END
$$$$
O14757_PocketFlow_idx-in-all-generaetd-184
     RDKit          3D

 33 35  0  0  0  0  0  0  0  0999 V2000
    0.2881   -2.9111   42.4378 C   0  0  0  0  0  0  0  0  0  0  0  0
    1.1784   -3.4293   42.9321 C   0  0  0  0  0  0  0  0  0  0  0  0
    2.4696   -2.7231   42.8997 C   0  0  0  0  0  0  0  0  0  0  0  0
    2.5380   -1.5398   42.2487 C   0  0  0  0  0  0  0  0  0  0  0  0
    0.2254   -1.7181   41.6878 C   0  0  0  0  0  0  0  0  0  0  0  0
    3.7411   -0.7335   42.1233 C   0  0  0  0  0  0  0  0  0  0  0  0
    1.3903   -1.0407   41.5821 C   0  0  0  0  0  0  0  0  0  0  0  0
    4.2499   -0.2563   43.4352 C   0  0  0  0  0  0  0  0  0  0  0  0
    4.0607   -0.9365   44.5784 C   0  0  0  0  0  0  0  0  0  0  0  0
    0.9135   -4.5950   43.7613 C   0  0  0  0  0  0  0  0  0  0  0  0
    1.6694   -4.7133   44.9482 N   0  0  0  0  0  0  0  0  0  0  0  0
    1.2467   -5.4114   46.0435 C   0  0  0  0  0  0  0  0  0  0  0  0
    5.2019   -1.5063   45.2655 C   0  0  0  0  0  0  0  0  0  0  0  0
    4.9639   -2.5020   46.3045 C   0  0  0  0  0  0  0  0  0  0  0  0
    6.0687   -3.1545   46.8831 C   0  0  0  0  0  0  0  0  0  0  0  0
    7.3625   -2.7947   46.6216 C   0  0  0  0  0  0  0  0  0  0  0  0
    8.4664   -3.4828   47.1336 C   0  0  0  0  0  0  0  0  0  0  0  0
    6.5399   -1.3654   44.8638 C   0  0  0  0  0  0  0  0  0  0  0  0
    7.6070   -1.9503   45.4672 C   0  0  0  0  0  0  0  0  0  0  0  0
    8.3058   -4.6217   47.7468 N   0  0  0  0  0  0  0  0  0  0  0  0
    9.2113   -5.5831   47.9274 C   0  0  0  0  0  0  0  0  0  0  0  0
   -0.9497   -1.2360   41.1375 N   0  0  0  0  0  0  0  0  0  0  0  0
    0.0311   -5.9782   45.8890 C   0  0  0  0  0  0  0  0  0  0  0  0
   -0.0741   -6.8490   44.7358 C   0  0  2  0  0  0  0  0  0  0  0  0
   -1.2185   -7.4302   44.4614 C   0  0  0  0  0  0  0  0  0  0  0  0
   -2.0232   -7.8840   45.5976 C   0  0  0  0  0  0  0  0  0  0  0  0
   -1.7179   -8.5610   46.2869 C   0  0  0  0  0  0  0  0  0  0  0  0
   -2.0981   -9.0185   47.3542 C   0  0  0  0  0  0  0  0  0  0  0  0
   -1.4532   -9.8153   48.4486 C   0  0  0  0  0  0  0  0  0  0  0  0
   -0.0742   -9.8942   48.2492 C   0  0  0  0  0  0  0  0  0  0  0  0
    0.5177   -9.4236   47.0936 C   0  0  0  0  0  0  0  0  0  0  0  0
   -0.1649   -8.7329   46.1663 C   0  0  0  0  0  0  0  0  0  0  0  0
    0.5581   -8.3728   45.1922 O   0  0  0  0  0  0  0  0  0  0  0  0
  4  6  1  0
  6  8  1  0
  8  9  2  3
  2 10  1  0
 10 11  1  0
 11 12  1  0
  9 13  1  0
 16 17  1  0
 17 20  1  0
 20 21  1  0
  5 22  1  0
 12 23  1  0
 24 23  1  1
 24 25  1  0
 25 26  2  0
 26 27  1  0
 27 28  2  0
 28 29  1  0
 29 30  2  0
 30 31  1  0
 31 32  1  0
 24 33  1  0
 32 33  1  0
 13 14  2  0
 14 15  1  0
 15 16  2  0
 16 19  1  0
 19 18  2  0
 18 13  1  0
  1  2  2  0
  2  3  1  0
  3  4  2  0
  4  7  1  0
  7  5  2  0
  5  1  1  0
M  END
$$$$
O14757_PocketFlow_idx-in-all-generaetd-185
     RDKit          3D

 13 14  0  0  0  0  0  0  0  0999 V2000
    0.2881   -2.9111   42.4378 C   0  0  0  0  0  0  0  0  0  0  0  0
   -0.0650   -2.5021   41.5798 C   0  0  0  0  0  0  0  0  0  0  0  0
    1.5111   -2.4518   43.1047 C   0  0  0  0  0  0  0  0  0  0  0  0
    2.1892   -1.4341   42.4770 C   0  0  0  0  0  0  0  0  0  0  0  0
    1.5990   -0.8333   41.3694 C   0  0  0  0  0  0  0  0  0  0  0  0
    0.4724   -1.3248   40.8538 C   0  0  0  0  0  0  0  0  0  0  0  0
    3.4959   -0.8581   42.8650 C   0  0  0  0  0  0  0  0  0  0  0  0
    3.9935    0.3197   42.6987 C   0  0  0  0  0  0  0  0  0  0  0  0
    4.5480   -1.8814   43.3906 C   0  0  0  0  0  0  0  0  0  0  0  0
    5.6192   -1.4342   44.1164 C   0  0  0  0  0  0  0  0  0  0  0  0
    5.2382    0.6866   43.2406 N   0  0  0  0  0  0  0  0  0  0  0  0
    6.0522   -0.1278   43.8512 C   0  0  0  0  0  0  0  0  0  0  0  0
   -1.7519   -3.1847   40.9256 Br  0  0  0  0  0  0  0  0  0  0  0  0
  4  7  1  0
  2 13  1  0
  1  2  2  0
  2  6  1  0
  6  5  2  0
  5  4  1  0
  4  3  2  0
  3  1  1  0
  7  8  2  0
  8 11  1  0
 11 12  2  0
 12 10  1  0
 10  9  2  0
  9  7  1  0
M  END
$$$$
O14757_PocketFlow_idx-in-all-generaetd-186
     RDKit          3D

 23 25  0  0  0  0  0  0  0  0999 V2000
   -0.6395   -2.0713   41.4947 C   0  0  0  0  0  0  0  0  0  0  0  0
    0.1859   -1.1027   41.5970 C   0  0  0  0  0  0  0  0  0  0  0  0
    1.5858   -1.4430   41.9548 C   0  0  2  0  0  0  0  0  0  0  0  0
    2.6622   -0.5501   42.0082 C   0  0  0  0  0  0  0  0  0  0  0  0
    3.8608   -0.8421   42.6622 C   0  0  0  0  0  0  0  0  0  0  0  0
    3.9909   -2.0719   43.3605 C   0  0  0  0  0  0  0  0  0  0  0  0
    5.1640   -2.3526   44.1505 C   0  0  0  0  0  0  0  0  0  0  0  0
   -0.2418   -3.2075   41.4427 N   0  0  0  0  0  0  0  0  0  0  0  0
    6.0764   -1.3351   44.3687 C   0  0  0  0  0  0  0  0  0  0  0  0
    4.8582    0.1254   42.9793 C   0  0  0  0  0  0  0  0  0  0  0  0
    5.9715   -0.1390   43.7793 N   0  0  0  0  0  0  0  0  0  0  0  0
    1.6039   -2.8891   41.8471 C   0  0  0  0  0  0  0  0  0  0  0  0
    7.2869   -1.3953   45.0753 N   0  0  0  0  0  0  0  0  0  0  0  0
   -2.0021   -1.8234   41.2491 N   0  0  0  0  0  0  0  0  0  0  0  0
    7.5363   -2.5387   45.9009 C   0  0  0  0  0  0  0  0  0  0  0  0
    6.7662   -3.5251   46.1878 N   0  0  0  0  0  0  0  0  0  0  0  0
    8.8891   -2.5357   46.5093 C   0  0  0  0  0  0  0  0  0  0  0  0
    9.7930   -1.5147   46.5338 C   0  0  0  0  0  0  0  0  0  0  0  0
    9.4023   -3.8160   46.9936 C   0  0  0  0  0  0  0  0  0  0  0  0
    8.5461   -4.6821   47.6013 C   0  0  0  0  0  0  0  0  0  0  0  0
    7.0584   -4.3230   47.2062 C   0  0  0  0  0  0  0  0  0  0  0  0
    0.7434   -3.6221   41.7722 N   0  0  0  0  0  0  0  0  0  0  0  0
    0.3654   -4.3477   43.0773 C   0  0  0  0  0  0  0  0  0  0  0  0
  1  2  1  0
  2  3  1  0
  3  4  1  6
  4  5  1  0
  1  8  1  0
  3 12  1  0
  8 12  1  0
  9 13  1  0
  1 14  2  3
 17 18  1  0
  8 22  1  0
 22 23  1  0
 13 15  1  0
 15 16  2  0
 16 21  1  0
 21 20  2  0
 20 19  1  0
 19 17  2  0
 17 15  1  0
  5  6  2  0
  6  7  1  0
  7  9  2  0
  9 11  1  0
 11 10  2  0
 10  5  1  0
M  END
$$$$
O14757_PocketFlow_idx-in-all-generaetd-187
     RDKit          3D

 16 17  0  0  0  0  0  0  0  0999 V2000
   -0.6395   -2.0713   41.4947 C   0  0  0  0  0  0  0  0  0  0  0  0
    0.1859   -1.1027   41.5970 C   0  0  0  0  0  0  0  0  0  0  0  0
   -2.0077   -1.8651   41.2044 C   0  0  0  0  0  0  0  0  0  0  0  0
    1.5974   -1.2445   41.7640 C   0  0  0  0  0  0  0  0  0  0  0  0
    1.9873   -2.5402   42.2780 C   0  0  0  0  0  0  0  0  0  0  0  0
    0.9098   -3.5138   42.4627 C   0  0  0  0  0  0  0  0  0  0  0  0
   -0.3287   -3.2489   41.9834 C   0  0  0  0  0  0  0  0  0  0  0  0
   -2.6939   -2.7373   40.5640 O   0  0  0  0  0  0  0  0  0  0  0  0
   -2.5946   -0.6796   41.4234 O   0  0  0  0  0  0  0  0  0  0  0  0
    2.6634    0.0406   41.8269 Cl  0  0  0  0  0  0  0  0  0  0  0  0
    3.3136   -2.6314   42.8361 C   0  0  0  0  0  0  0  0  0  0  0  0
    3.6510   -3.6801   43.8136 C   0  0  0  0  0  0  0  0  0  0  0  0
    4.8368   -3.4914   44.5796 C   0  0  0  0  0  0  0  0  0  0  0  0
    5.6608   -2.3524   44.3932 C   0  0  0  0  0  0  0  0  0  0  0  0
    5.2507   -1.3837   43.4831 C   0  0  0  0  0  0  0  0  0  0  0  0
    4.0897   -1.4460   42.8267 C   0  0  0  0  0  0  0  0  0  0  0  0
  1  3  1  0
  3  8  2  0
  3  9  1  0
  4 10  1  0
  5 11  1  0
 11 12  2  0
 12 13  1  0
 13 14  2  0
 14 15  1  0
 15 16  2  0
 16 11  1  0
  1  2  2  0
  2  4  1  0
  4  5  2  0
  5  6  1  0
  6  7  2  0
  7  1  1  0
M  END
$$$$
O14757_PocketFlow_idx-in-all-generaetd-188
     RDKit          3D

 26 29  0  0  0  0  0  0  0  0999 V2000
   -0.6395   -2.0713   41.4947 C   0  0  0  0  0  0  0  0  0  0  0  0
    0.6719   -2.2449   41.7518 C   0  0  0  0  0  0  0  0  0  0  0  0
    1.3815   -1.6359   42.7231 C   0  0  0  0  0  0  0  0  0  0  0  0
   -1.3884   -2.9047   40.6798 C   0  0  0  0  0  0  0  0  0  0  0  0
    2.8449   -1.5590   42.5246 C   0  0  0  0  0  0  0  0  0  0  0  0
    3.6429   -1.2822   43.6223 C   0  0  0  0  0  0  0  0  0  0  0  0
    4.6183   -0.3012   43.5117 C   0  0  0  0  0  0  0  0  0  0  0  0
   -2.7111   -2.6378   40.6239 N   0  0  0  0  0  0  0  0  0  0  0  0
    5.7820   -0.4415   44.3451 C   0  0  0  0  0  0  0  0  0  0  0  0
    5.7679   -1.5672   45.2979 C   0  0  0  0  0  0  0  0  0  0  0  0
    6.8316   -1.8491   46.1490 C   0  0  0  0  0  0  0  0  0  0  0  0
    6.7989   -3.1238   46.8139 C   0  0  0  0  0  0  0  0  0  0  0  0
    5.5969   -3.8270   46.8508 C   0  0  0  0  0  0  0  0  0  0  0  0
    4.4901   -3.4257   46.0862 C   0  0  0  0  0  0  0  0  0  0  0  0
    4.5970   -2.3277   45.2930 C   0  0  0  0  0  0  0  0  0  0  0  0
    3.5940   -2.1728   44.3811 C   0  0  0  0  0  0  0  0  0  0  0  0
    7.9797   -3.5528   47.5890 C   0  0  0  0  0  0  0  0  0  0  0  0
    9.1580   -3.4185   47.1236 C   0  0  0  0  0  0  0  0  0  0  0  0
   10.3373   -3.9317   47.7341 C   0  0  0  0  0  0  0  0  0  0  0  0
    7.8286   -4.1388   48.8535 C   0  0  0  0  0  0  0  0  0  0  0  0
    8.9295   -4.5649   49.6009 C   0  0  0  0  0  0  0  0  0  0  0  0
   10.1936   -4.4695   49.0337 C   0  0  0  0  0  0  0  0  0  0  0  0
   -3.1600   -1.3930   40.5935 C   0  0  0  0  0  0  0  0  0  0  0  0
   -2.4282   -0.4275   41.2167 N   0  0  0  0  0  0  0  0  0  0  0  0
   -1.1911   -0.6748   41.6005 C   0  0  0  0  0  0  0  0  0  0  0  0
   -4.4130   -1.1254   40.2724 N   0  0  0  0  0  0  0  0  0  0  0  0
  1  2  1  0
  2  3  2  3
  3  5  1  0
  5  6  1  0
 12 17  1  0
 23 26  1  0
  6  7  2  0
  7  9  1  0
  9 10  2  0
 15 16  2  0
 16  6  1  0
 17 18  2  0
 18 19  1  0
 19 22  2  0
 22 21  1  0
 21 20  2  0
 20 17  1  0
  1  4  2  0
  4  8  1  0
  8 23  2  0
 23 24  1  0
 24 25  2  0
 25  1  1  0
 10 11  1  0
 11 12  2  0
 12 13  1  0
 13 14  2  0
 14 15  1  0
 15 10  1  0
M  END
$$$$
O14757_PocketFlow_idx-in-all-generaetd-189
     RDKit          3D

 19 20  0  0  0  0  0  0  0  0999 V2000
   -0.6395   -2.0713   41.4947 C   0  0  0  0  0  0  0  0  0  0  0  0
    0.1859   -1.1027   41.5970 C   0  0  0  0  0  0  0  0  0  0  0  0
   -0.2410   -3.3795   41.5297 C   0  0  0  0  0  0  0  0  0  0  0  0
    1.6125   -1.3641   41.8466 C   0  0  1  0  0  0  0  0  0  0  0  0
    2.5720   -0.3568   42.0335 C   0  0  0  0  0  0  0  0  0  0  0  0
    3.8647   -0.6704   42.4195 C   0  0  0  0  0  0  0  0  0  0  0  0
    4.0924   -1.9486   43.0494 C   0  0  0  0  0  0  0  0  0  0  0  0
    3.2535   -2.4816   43.7317 C   0  0  0  0  0  0  0  0  0  0  0  0
    3.4639   -3.7144   44.3832 C   0  0  0  0  0  0  0  0  0  0  0  0
    2.3744   -4.4642   44.9527 C   0  0  0  0  0  0  0  0  0  0  0  0
    2.4823   -5.4586   45.8565 C   0  0  0  0  0  0  0  0  0  0  0  0
    3.8887   -5.8973   46.0913 C   0  0  0  0  0  0  0  0  0  0  0  0
    1.1367   -3.6801   41.8316 C   0  0  0  0  0  0  0  0  0  0  0  0
    2.0202   -2.6370   41.9921 C   0  0  0  0  0  0  0  0  0  0  0  0
    2.6762   -2.7134   43.2328 F   0  0  0  0  0  0  0  0  0  0  0  0
    2.6599   -2.6469   40.8853 F   0  0  0  0  0  0  0  0  0  0  0  0
    4.6710   -4.2819   44.7033 C   0  0  0  0  0  0  0  0  0  0  0  0
    4.9032   -5.2496   45.5200 C   0  0  0  0  0  0  0  0  0  0  0  0
    2.7031   -3.4473   41.9295 F   0  0  0  0  0  0  0  0  0  0  0  0
  1  2  2  0
  1  3  1  0
  2  4  1  0
  4  5  1  0
  5  6  2  3
  6  7  1  0
  7  8  2  3
  8  9  1  0
  3 13  2  0
  4 14  1  1
 13 14  1  0
  8 15  1  0
 14 16  1  0
 14 19  1  0
  9 10  2  0
 10 11  1  0
 11 12  2  0
 12 18  1  0
 18 17  2  0
 17  9  1  0
M  END
$$$$
O14757_PocketFlow_idx-in-all-generaetd-190
     RDKit          3D

 35 37  0  0  0  0  0  0  0  0999 V2000
   -0.6395   -2.0713   41.4947 C   0  0  0  0  0  0  0  0  0  0  0  0
    0.6719   -2.2449   41.7518 C   0  0  0  0  0  0  0  0  0  0  0  0
    1.3815   -1.6359   42.7231 C   0  0  0  0  0  0  0  0  0  0  0  0
    2.6262   -2.3088   43.1218 C   0  0  0  0  0  0  0  0  0  0  0  0
    2.5508   -3.5603   43.9111 C   0  0  0  0  0  0  0  0  0  0  0  0
    3.6969   -4.0966   44.5005 C   0  0  0  0  0  0  0  0  0  0  0  0
   -1.3792   -3.0096   40.7815 C   0  0  0  0  0  0  0  0  0  0  0  0
    4.2630   -3.6597   45.4245 C   0  0  0  0  0  0  0  0  0  0  0  0
    3.9289   -2.4662   46.0979 C   0  0  0  0  0  0  0  0  0  0  0  0
    4.7650   -1.2532   46.0781 C   0  0  0  0  0  0  0  0  0  0  0  0
   -2.6320   -2.6806   40.5926 F   0  0  0  0  0  0  0  0  0  0  0  0
    1.2471   -4.0952   44.1616 C   0  0  0  0  0  0  0  0  0  0  0  0
    1.1480   -5.4701   44.6151 C   0  0  0  0  0  0  0  0  0  0  0  0
    1.4352   -5.9748   45.5995 C   0  0  0  0  0  0  0  0  0  0  0  0
    1.1675   -7.3546   46.0112 C   0  0  0  0  0  0  0  0  0  0  0  0
    0.1370   -7.8167   46.0307 C   0  0  0  0  0  0  0  0  0  0  0  0
   -0.8449   -7.1823   44.9512 C   0  0  0  0  0  0  0  0  0  0  0  0
   -0.3185   -6.0222   44.2020 C   0  0  0  0  0  0  0  0  0  0  0  0
   -2.0254   -7.7900   44.4559 C   0  0  0  0  0  0  0  0  0  0  0  0
   -2.5466   -7.6314   43.4005 O   0  0  0  0  0  0  0  0  0  0  0  0
   -2.7850   -8.3897   45.4577 N   0  0  0  0  0  0  0  0  0  0  0  0
   -4.1280   -8.8979   45.2372 C   0  0  0  0  0  0  0  0  0  0  0  0
   -5.0230   -7.9751   44.8873 C   0  0  0  0  0  0  0  0  0  0  0  0
   -5.3362   -7.0150   45.1879 C   0  0  0  0  0  0  0  0  0  0  0  0
   -5.6429   -8.3760   43.4399 C   0  0  0  0  0  0  0  0  0  0  0  0
   -5.4191   -9.5498   42.9235 C   0  0  0  0  0  0  0  0  0  0  0  0
   -6.5225   -6.3004   44.8553 N   0  0  0  0  0  0  0  0  0  0  0  0
   -6.7126   -7.6217   42.9113 C   0  0  0  0  0  0  0  0  0  0  0  0
   -7.0748   -6.5042   43.7646 N   0  0  0  0  0  0  0  0  0  0  0  0
    3.8804   -1.7021   42.8427 C   0  0  0  0  0  0  0  0  0  0  0  0
    4.3196   -0.6049   43.1171 C   0  0  1  0  0  0  0  0  0  0  0  0
    4.9301   -0.5138   44.6505 C   0  0  0  0  0  0  0  0  0  0  0  0
    4.8423    0.4965   42.4224 C   0  0  0  0  0  0  0  0  0  0  0  0
    5.4743   -4.4222   45.9914 C   0  0  0  0  0  0  0  0  0  0  0  0
   -6.0537   -9.8239   41.6555 C   0  0  0  0  0  0  0  0  0  0  0  0
  1  2  1  0
  2  3  1  0
  3  4  1  0
  4  5  2  0
  5  6  1  0
  1  7  1  0
  6  8  2  0
  8  9  1  0
  9 10  2  0
  7 11  1  0
  5 12  1  0
 12 13  1  0
 17 19  1  0
 19 20  2  0
 19 21  1  0
 21 22  1  0
 22 23  1  0
  4 30  1  0
 30 31  1  0
 10 32  1  0
 31 32  1  0
 31 33  1  6
  8 34  1  0
 26 35  1  0
 26 25  1  0
 13 14  2  0
 14 15  1  0
 15 16  2  0
 16 17  1  0
 17 18  2  0
 18 13  1  0
 23 24  2  0
 24 27  1  0
 27 29  2  0
 29 28  1  0
 28 25  2  0
 25 23  1  0
M  END
$$$$
O14757_PocketFlow_idx-in-all-generaetd-191
     RDKit          3D

 35 38  0  0  0  0  0  0  0  0999 V2000
    0.2881   -2.9111   42.4378 C   0  0  0  0  0  0  0  0  0  0  0  0
   -0.0650   -2.5020   41.5798 C   0  0  0  0  0  0  0  0  0  0  0  0
    0.3903   -4.2958   42.8988 C   0  0  0  0  0  0  0  0  0  0  0  0
    0.9283   -4.7375   44.0590 C   0  0  1  0  0  0  0  0  0  0  0  0
    0.6815   -5.8515   44.8068 C   0  0  2  0  0  0  0  0  0  0  0  0
   -0.3104   -1.2298   41.6038 C   0  0  0  0  0  0  0  0  0  0  0  0
    1.3474   -6.1478   45.9743 C   0  0  0  0  0  0  0  0  0  0  0  0
    2.4712   -6.2160   45.8491 C   0  0  0  0  0  0  0  0  0  0  0  0
    3.2304   -4.8952   45.4237 C   0  0  1  0  0  0  0  0  0  0  0  0
    2.5748   -4.4034   44.1390 C   0  0  0  0  0  0  0  0  0  0  0  0
    0.3828   -0.6032   42.5106 N   0  0  0  0  0  0  0  0  0  0  0  0
    0.9802   -1.7607   43.0220 C   0  0  0  0  0  0  0  0  0  0  0  0
    3.3306   -3.9185   46.4583 C   0  0  0  0  0  0  0  0  0  0  0  0
    4.7727   -3.6126   46.8299 C   0  0  0  0  0  0  0  0  0  0  0  0
    5.5677   -2.7132   46.0790 C   0  0  0  0  0  0  0  0  0  0  0  0
    5.0987   -1.7024   45.3088 C   0  0  0  0  0  0  0  0  0  0  0  0
    3.8242   -1.1840   45.1472 C   0  0  0  0  0  0  0  0  0  0  0  0
    3.7219   -0.2580   44.0695 C   0  0  0  0  0  0  0  0  0  0  0  0
    4.8944   -0.0653   43.2391 C   0  0  0  0  0  0  0  0  0  0  0  0
    5.9800   -1.1383   44.1964 C   0  0  0  0  0  0  0  0  0  0  0  0
    0.3377   -7.0089   43.8757 C   0  0  0  0  0  0  0  0  0  0  0  0
    6.7615   -2.1862   46.8999 C   0  0  0  0  0  0  0  0  0  0  0  0
    7.9639   -3.0799   46.6740 C   0  0  0  0  0  0  0  0  0  0  0  0
    8.5362   -3.5671   47.7171 C   0  0  0  0  0  0  0  0  0  0  0  0
    9.3634   -4.6816   47.5677 C   0  0  0  0  0  0  0  0  0  0  0  0
   10.2193   -4.6572   46.4566 C   0  0  0  0  0  0  0  0  0  0  0  0
   11.5442   -4.7045   46.6759 C   0  0  0  0  0  0  0  0  0  0  0  0
   12.0100   -5.8704   47.3583 C   0  0  0  0  0  0  0  0  0  0  0  0
   11.1635   -6.3103   48.4340 C   0  0  0  0  0  0  0  0  0  0  0  0
    9.8528   -5.6143   48.5920 C   0  0  0  0  0  0  0  0  0  0  0  0
   -0.7192   -7.6980   44.7059 C   0  0  0  0  0  0  0  0  0  0  0  0
   -1.7850   -6.9567   45.2417 C   0  0  0  0  0  0  0  0  0  0  0  0
   -2.4636   -7.9052   46.2744 C   0  0  0  0  0  0  0  0  0  0  0  0
   -2.4366   -9.1831   46.0661 C   0  0  0  0  0  0  0  0  0  0  0  0
   -3.0912  -10.0881   45.9827 C   0  0  0  0  0  0  0  0  0  0  0  0
  1  2  1  0
  1  3  2  3
  3  4  1  0
  4  5  1  0
  2  6  2  0
  5  7  1  0
  7  8  1  0
  8  9  1  0
  4 10  1  6
  9 10  1  0
  6 11  1  0
  1 12  1  0
 11 12  2  0
  9 13  1  1
 13 14  1  0
 14 15  1  0
 15 16  2  3
 16 17  1  0
 17 18  2  0
 18 19  1  0
 16 20  1  0
 19 20  1  0
  5 21  1  6
 15 22  1  0
 22 23  1  0
 23 24  1  0
 24 25  1  0
 21 31  1  0
 31 32  1  0
 32 33  1  0
 33 34  1  0
 34 35  1  0
 25 26  2  0
 26 27  1  0
 27 28  2  0
 28 29  1  0
 29 30  2  0
 30 25  1  0
M  END
$$$$
O14757_PocketFlow_idx-in-all-generaetd-192
     RDKit          3D

 28 29  0  0  0  0  0  0  0  0999 V2000
   -0.6395   -2.0713   41.4947 C   0  0  0  0  0  0  0  0  0  0  0  0
    0.6719   -2.2449   41.7518 C   0  0  2  0  0  0  0  0  0  0  0  0
    1.5951   -1.1948   41.6106 C   0  0  0  0  0  0  0  0  0  0  0  0
    2.8936   -1.2860   42.2441 C   0  0  0  0  0  0  0  0  0  0  0  0
    3.0768   -1.4473   43.4477 C   0  0  0  0  0  0  0  0  0  0  0  0
    4.3386   -1.8097   43.8441 C   0  0  0  0  0  0  0  0  0  0  0  0
    5.0581   -1.7592   44.9019 C   0  0  0  0  0  0  0  0  0  0  0  0
    5.6510   -2.4446   45.5184 C   0  0  0  0  0  0  0  0  0  0  0  0
   -1.5375   -3.1786   41.4430 C   0  0  0  0  0  0  0  0  0  0  0  0
    5.1840   -3.6352   46.0905 C   0  0  2  0  0  0  0  0  0  0  0  0
    5.9652   -4.4052   47.0876 C   0  0  0  0  0  0  0  0  0  0  0  0
    5.3675   -5.4042   47.9153 C   0  0  0  0  0  0  0  0  0  0  0  0
   -0.8463   -4.3897   41.4390 N   0  0  0  0  0  0  0  0  0  0  0  0
    6.1502   -5.8370   49.0232 C   0  0  0  0  0  0  0  0  0  0  0  0
    7.5172   -5.3970   49.1849 C   0  0  0  0  0  0  0  0  0  0  0  0
    8.0428   -4.4596   48.3149 C   0  0  0  0  0  0  0  0  0  0  0  0
    9.3877   -3.9939   48.4469 C   0  0  0  0  0  0  0  0  0  0  0  0
    7.2853   -3.8862   47.3366 C   0  0  0  0  0  0  0  0  0  0  0  0
    9.8625   -3.6508   49.4388 C   0  0  0  0  0  0  0  0  0  0  0  0
    9.0132   -3.3965   50.6886 C   0  0  0  0  0  0  0  0  0  0  0  0
    9.0423   -2.3199   51.2652 C   0  0  0  0  0  0  0  0  0  0  0  0
    8.0754   -2.0699   52.4450 C   0  0  0  0  0  0  0  0  0  0  0  0
    3.9677   -4.1629   45.6608 C   0  0  0  0  0  0  0  0  0  0  0  0
    2.9925   -3.6409   45.8970 F   0  0  0  0  0  0  0  0  0  0  0  0
    3.9502   -5.4240   44.9631 C   0  0  0  0  0  0  0  0  0  0  0  0
    3.6271   -5.6808   44.0027 N   0  0  0  0  0  0  0  0  0  0  0  0
    0.8732   -3.6782   41.8287 C   0  0  0  0  0  0  0  0  0  0  0  0
    7.3267   -1.0933   52.3135 C   0  0  0  0  0  0  0  0  0  0  0  0
  1  2  1  0
  2  3  1  6
  3  4  1  0
  4  5  1  0
  5  6  2  3
  6  7  1  0
  7  8  2  3
  1  9  2  0
  8 10  1  0
  9 13  1  0
 16 17  1  0
 17 19  2  3
 19 20  1  0
 20 21  2  3
 21 22  1  0
 10 23  1  6
 23 24  1  0
 23 25  1  0
 25 26  2  3
  2 27  1  0
 13 27  2  0
 22 28  1  0
 10 11  1  0
 11 12  2  0
 12 14  1  0
 14 15  2  0
 15 16  1  0
 16 18  2  0
 18 11  1  0
M  END
$$$$
O14757_PocketFlow_idx-in-all-generaetd-193
     RDKit          3D

 32 37  0  0  0  0  0  0  0  0999 V2000
   -0.6395   -2.0713   41.4947 C   0  0  0  0  0  0  0  0  0  0  0  0
   -0.2671   -3.2464   41.6546 C   0  0  0  0  0  0  0  0  0  0  0  0
    0.2407   -0.9706   41.5952 C   0  0  0  0  0  0  0  0  0  0  0  0
    1.6195   -1.2958   41.8767 C   0  0  0  0  0  0  0  0  0  0  0  0
    1.9162   -2.6816   42.2016 C   0  0  0  0  0  0  0  0  0  0  0  0
    0.9422   -3.6324   42.1156 C   0  0  0  0  0  0  0  0  0  0  0  0
    2.4594   -0.2053   42.1939 C   0  0  0  0  0  0  0  0  0  0  0  0
    3.8581   -0.4928   42.4122 C   0  0  1  0  0  0  0  0  0  0  0  0
    4.7820    0.4194   42.9876 C   0  0  0  0  0  0  0  0  0  0  0  0
   -1.9794   -1.7872   41.0781 N   0  0  0  0  0  0  0  0  0  0  0  0
    5.7315   -0.1547   43.8367 N   0  0  0  0  0  0  0  0  0  0  0  0
    5.7630   -1.5169   44.1690 C   0  0  0  0  0  0  0  0  0  0  0  0
    6.7310   -1.9713   45.1114 C   0  0  0  0  0  0  0  0  0  0  0  0
    6.6137   -3.2659   45.6487 C   0  0  0  0  0  0  0  0  0  0  0  0
    5.3996   -3.9301   45.3545 C   0  0  0  0  0  0  0  0  0  0  0  0
    4.4557   -3.4390   44.4935 C   0  0  0  0  0  0  0  0  0  0  0  0
    4.5852   -2.1868   43.9825 C   0  0  0  0  0  0  0  0  0  0  0  0
    3.6759   -1.7254   43.0987 N   0  0  0  0  0  0  0  0  0  0  0  0
    2.7087   -2.5345   42.6274 C   0  0  0  0  0  0  0  0  0  0  0  0
    7.6397   -3.7775   46.5260 C   0  0  0  0  0  0  0  0  0  0  0  0
    8.9104   -3.2105   46.5815 C   0  0  0  0  0  0  0  0  0  0  0  0
    9.8961   -3.7588   47.4552 C   0  0  0  0  0  0  0  0  0  0  0  0
    9.6004   -4.8975   48.1801 C   0  0  0  0  0  0  0  0  0  0  0  0
    7.5013   -4.9071   47.3794 C   0  0  0  0  0  0  0  0  0  0  0  0
    8.3933   -5.4376   48.1646 C   0  0  0  0  0  0  0  0  0  0  0  0
   -2.8284   -2.6567   40.5900 C   0  0  0  0  0  0  0  0  0  0  0  0
   -2.5423   -0.4304   41.3155 C   0  0  0  0  0  0  0  0  0  0  0  0
   -1.8005    0.4412   41.7428 O   0  0  0  0  0  0  0  0  0  0  0  0
   -3.8784   -0.2429   40.8396 C   0  0  0  0  0  0  0  0  0  0  0  0
   -4.3493    1.0025   41.0253 O   0  0  0  0  0  0  0  0  0  0  0  0
   -4.5945   -1.2281   40.2637 C   0  0  0  0  0  0  0  0  0  0  0  0
   -4.0433   -2.3784   40.1798 O   0  0  0  0  0  0  0  0  0  0  0  0
  4  7  1  0
  8  7  1  1
  8  9  1  0
  1 10  1  0
  9 11  1  0
  8 18  1  0
 17 18  1  0
  5 19  1  0
 18 19  1  0
 14 20  1  0
 10 26  1  0
 10 27  1  0
 27 28  2  0
 27 29  1  0
 29 30  1  0
 29 31  1  0
 26 32  1  0
 31 32  1  0
 11 12  1  0
 12 13  2  0
 13 14  1  0
 14 15  2  0
 15 16  1  0
 16 17  2  0
 17 12  1  0
  1  2  2  0
  2  6  1  0
  6  5  2  0
  5  4  1  0
  4  3  2  0
  3  1  1  0
 20 21  2  0
 21 22  1  0
 22 23  2  0
 23 25  1  0
 25 24  2  0
 24 20  1  0
M  END
$$$$
O14757_PocketFlow_idx-in-all-generaetd-194
     RDKit          3D

 14 14  0  0  0  0  0  0  0  0999 V2000
   -0.6395   -2.0713   41.4947 C   0  0  0  0  0  0  0  0  0  0  0  0
    0.1859   -1.1027   41.5970 C   0  0  0  0  0  0  0  0  0  0  0  0
    1.5836   -1.3270   41.4670 C   0  0  0  0  0  0  0  0  0  0  0  0
   -0.2462   -3.3905   41.2409 C   0  0  0  0  0  0  0  0  0  0  0  0
    2.0578   -2.6838   41.5381 C   0  0  0  0  0  0  0  0  0  0  0  0
    1.0785   -3.6429   41.2820 C   0  0  0  0  0  0  0  0  0  0  0  0
   -2.0082   -1.7942   41.4751 O   0  0  0  0  0  0  0  0  0  0  0  0
    2.4872   -0.3103   41.6992 N   0  0  0  0  0  0  0  0  0  0  0  0
    3.5679   -0.3364   42.5470 C   0  0  0  0  0  0  0  0  0  0  0  0
    3.8617   -1.1439   43.4513 N   0  0  0  0  0  0  0  0  0  0  0  0
    5.1445   -1.1546   44.0089 C   0  0  0  0  0  0  0  0  0  0  0  0
    5.5136   -2.1754   44.9649 C   0  0  0  0  0  0  0  0  0  0  0  0
    4.7392   -3.2247   45.3692 C   0  0  0  0  0  0  0  0  0  0  0  0
    3.5116   -3.3704   44.6935 C   0  0  0  0  0  0  0  0  0  0  0  0
  1  7  1  0
  3  8  1  0
  8  9  1  0
  9 10  2  3
 10 11  1  0
 11 12  1  0
 12 13  2  3
 13 14  1  0
  1  2  2  0
  2  3  1  0
  3  5  2  0
  5  6  1  0
  6  4  2  0
  4  1  1  0
M  END
$$$$
O14757_PocketFlow_idx-in-all-generaetd-195
     RDKit          3D

 29 32  0  0  0  0  0  0  0  0999 V2000
   -0.6395   -2.0713   41.4947 C   0  0  0  0  0  0  0  0  0  0  0  0
   -0.2671   -3.2464   41.6546 C   0  0  0  0  0  0  0  0  0  0  0  0
    0.2407   -0.9706   41.5952 C   0  0  0  0  0  0  0  0  0  0  0  0
    1.6315   -1.2896   41.8178 C   0  0  0  0  0  0  0  0  0  0  0  0
    2.7078   -0.3867   41.9820 C   0  0  0  0  0  0  0  0  0  0  0  0
    3.9303   -0.7450   42.5787 C   0  0  0  0  0  0  0  0  0  0  0  0
    4.9738    0.0999   42.8432 C   0  0  0  0  0  0  0  0  0  0  0  0
    1.0548   -3.7040   41.9131 C   0  0  0  0  0  0  0  0  0  0  0  0
    1.9598   -2.6663   42.0298 C   0  0  0  0  0  0  0  0  0  0  0  0
   -2.0625   -1.5721   41.1484 C   0  0  0  0  0  0  0  0  0  0  0  0
   -2.4539   -0.4469   41.4565 O   0  0  0  0  0  0  0  0  0  0  0  0
   -2.8422   -2.4588   40.6111 O   0  0  0  0  0  0  0  0  0  0  0  0
    3.8462   -1.7964   43.5686 C   0  0  0  0  0  0  0  0  0  0  0  0
    5.0687   -1.8986   44.3694 C   0  0  0  0  0  0  0  0  0  0  0  0
    5.8757   -1.3863   44.8214 C   0  0  0  0  0  0  0  0  0  0  0  0
    6.0111   -0.1058   43.7979 C   0  0  0  0  0  0  0  0  0  0  0  0
    4.7974   -3.3739   45.1718 C   0  0  0  0  0  0  0  0  0  0  0  0
    4.0973   -4.4375   44.6062 C   0  0  0  0  0  0  0  0  0  0  0  0
    3.6871   -5.4790   45.4240 C   0  0  0  0  0  0  0  0  0  0  0  0
    4.1854   -5.5545   46.7691 C   0  0  0  0  0  0  0  0  0  0  0  0
    4.9333   -4.4775   47.2715 C   0  0  0  0  0  0  0  0  0  0  0  0
    5.1772   -3.3313   46.5597 C   0  0  0  0  0  0  0  0  0  0  0  0
    3.2069   -6.6306   45.0230 O   0  0  0  0  0  0  0  0  0  0  0  0
    1.8032   -6.8161   45.2196 C   0  0  0  0  0  0  0  0  0  0  0  0
    0.9128   -6.0863   44.3286 C   0  0  0  0  0  0  0  0  0  0  0  0
   -0.4574   -6.3829   44.4324 C   0  0  0  0  0  0  0  0  0  0  0  0
   -0.9451   -7.3903   45.4064 C   0  0  0  0  0  0  0  0  0  0  0  0
    0.0521   -8.0335   46.2298 C   0  0  0  0  0  0  0  0  0  0  0  0
    1.4299   -7.7867   46.0965 C   0  0  0  0  0  0  0  0  0  0  0  0
  4  5  1  0
  1 10  1  0
 10 11  2  0
 10 12  1  0
 14 17  1  0
 19 23  1  0
 23 24  1  0
  5  6  1  0
  1  2  2  0
  2  8  1  0
  8  9  2  0
  9  4  1  0
  4  3  2  0
  3  1  1  0
  6  7  2  0
  7 16  1  0
 16 15  2  0
 15 14  1  0
 14 13  2  0
 13  6  1  0
 24 25  2  0
 25 26  1  0
 26 27  2  0
 27 28  1  0
 28 29  2  0
 29 24  1  0
 17 18  2  0
 18 19  1  0
 19 20  2  0
 20 21  1  0
 21 22  2  0
 22 17  1  0
M  END
$$$$
O14757_PocketFlow_idx-in-all-generaetd-196
     RDKit          3D

 35 38  0  0  0  0  0  0  0  0999 V2000
    0.2881   -2.9111   42.4378 C   0  0  0  0  0  0  0  0  0  0  0  0
    1.1784   -3.4293   42.9321 C   0  0  0  0  0  0  0  0  0  0  0  0
    2.4507   -2.7243   42.9621 C   0  0  0  0  0  0  0  0  0  0  0  0
    3.6020   -3.2282   43.7398 C   0  0  0  0  0  0  0  0  0  0  0  0
    4.7688   -2.4047   43.9090 C   0  0  0  0  0  0  0  0  0  0  0  0
    0.4439   -1.7676   41.5566 C   0  0  0  0  0  0  0  0  0  0  0  0
    1.6134   -1.0684   41.5928 C   0  0  0  0  0  0  0  0  0  0  0  0
    2.6621   -1.5732   42.2957 C   0  0  0  0  0  0  0  0  0  0  0  0
    4.8091   -1.2175   43.1230 C   0  0  0  0  0  0  0  0  0  0  0  0
    3.8284   -0.7756   42.4204 C   0  0  0  0  0  0  0  0  0  0  0  0
    3.5670   -4.4721   44.5157 C   0  0  2  0  0  0  0  0  0  0  0  0
    3.5020   -5.5656   44.2203 C   0  0  0  0  0  0  0  0  0  0  0  0
    3.4320   -6.6777   45.1678 C   0  0  0  0  0  0  0  0  0  0  0  0
    3.5071   -4.1749   46.0028 C   0  0  0  0  0  0  0  0  0  0  0  0
    4.3495   -4.2522   46.6933 C   0  0  2  0  0  0  0  0  0  0  0  0
    4.6787   -5.7454   47.1519 C   0  0  0  0  0  0  0  0  0  0  0  0
    4.4469   -6.7671   46.2878 C   0  0  0  0  0  0  0  0  0  0  0  0
    5.1031   -3.3080   47.5821 C   0  0  0  0  0  0  0  0  0  0  0  0
    6.5895   -3.3407   47.3569 C   0  0  0  0  0  0  0  0  0  0  0  0
    7.1802   -2.6202   46.3025 C   0  0  0  0  0  0  0  0  0  0  0  0
    8.5932   -2.7282   46.2242 C   0  0  0  0  0  0  0  0  0  0  0  0
    9.3648   -3.4624   47.1020 C   0  0  0  0  0  0  0  0  0  0  0  0
    7.4800   -4.0342   48.2454 C   0  0  0  0  0  0  0  0  0  0  0  0
    8.7734   -4.0621   48.1868 C   0  0  0  0  0  0  0  0  0  0  0  0
   10.6681   -3.4254   46.8304 F   0  0  0  0  0  0  0  0  0  0  0  0
    1.7065    0.0631   40.9034 O   0  0  0  0  0  0  0  0  0  0  0  0
   -0.6333   -1.2903   40.9068 F   0  0  0  0  0  0  0  0  0  0  0  0
    9.6533   -4.7915   49.1502 C   0  0  0  0  0  0  0  0  0  0  0  0
    9.7267   -4.2349   50.2643 N   0  0  0  0  0  0  0  0  0  0  0  0
    9.5419   -4.7822   51.4331 C   0  0  0  0  0  0  0  0  0  0  0  0
    9.5842   -3.9220   52.6210 C   0  0  0  0  0  0  0  0  0  0  0  0
    9.2558   -6.0469   51.5704 N   0  0  0  0  0  0  0  0  0  0  0  0
    9.8230   -6.8375   51.9938 C   0  0  0  0  0  0  0  0  0  0  0  0
    9.3080   -8.2259   51.9699 C   0  0  0  0  0  0  0  0  0  0  0  0
   11.0900   -6.6836   52.7583 C   0  0  0  0  0  0  0  0  0  0  0  0
 11  4  1  6
 11 12  1  0
 12 13  2  0
 11 14  1  0
 14 15  1  0
 15 16  1  0
 13 17  1  0
 16 17  2  0
 15 18  1  1
 18 19  1  0
 22 25  1  0
  7 26  1  0
  6 27  1  0
 24 28  1  0
 28 29  1  0
 29 30  1  0
 30 31  2  0
 30 32  1  0
 32 33  1  0
 33 34  2  0
 33 35  1  0
  1  2  2  0
  2  3  1  0
  8  7  1  0
  7  6  2  0
  6  1  1  0
  3  4  2  0
  4  5  1  0
  5  9  2  0
  9 10  1  0
 10  8  2  0
  8  3  1  0
 19 20  2  0
 20 21  1  0
 21 22  2  0
 22 24  1  0
 24 23  2  0
 23 19  1  0
M  END
$$$$
O14757_PocketFlow_idx-in-all-generaetd-197
     RDKit          3D

 33 35  0  0  0  0  0  0  0  0999 V2000
   -0.6395   -2.0713   41.4947 C   0  0  0  0  0  0  0  0  0  0  0  0
    0.6719   -2.2449   41.7518 C   0  0  0  0  0  0  0  0  0  0  0  0
    1.1287   -3.3339   42.4778 C   0  0  0  0  0  0  0  0  0  0  0  0
    2.4060   -3.3351   43.0418 C   0  0  0  0  0  0  0  0  0  0  0  0
    2.8579   -4.2212   44.0684 C   0  0  0  0  0  0  0  0  0  0  0  0
    4.1203   -4.0648   44.6860 C   0  0  0  0  0  0  0  0  0  0  0  0
    4.8857   -2.9400   44.3559 C   0  0  0  0  0  0  0  0  0  0  0  0
    4.3977   -2.0074   43.4262 C   0  0  0  0  0  0  0  0  0  0  0  0
    3.1556   -2.0733   42.8943 C   0  0  0  0  0  0  0  0  0  0  0  0
    5.0580   -0.6855   43.1982 C   0  0  0  0  0  0  0  0  0  0  0  0
    4.6605    0.2024   42.3827 O   0  0  0  0  0  0  0  0  0  0  0  0
    6.3242   -0.5314   43.8742 O   0  0  0  0  0  0  0  0  0  0  0  0
   -1.1789   -0.7081   41.2841 C   0  0  0  0  0  0  0  0  0  0  0  0
   -2.5526   -0.5477   41.1976 C   0  0  0  0  0  0  0  0  0  0  0  0
   -3.3510   -1.5970   40.6887 C   0  0  0  0  0  0  0  0  0  0  0  0
   -2.7179   -2.9281   40.6482 C   0  0  0  0  0  0  0  0  0  0  0  0
   -1.4243   -3.0934   41.0262 C   0  0  0  0  0  0  0  0  0  0  0  0
    2.1059   -5.3039   44.3466 N   0  0  0  0  0  0  0  0  0  0  0  0
    0.9189   -5.2507   45.0996 C   0  0  1  0  0  0  0  0  0  0  0  0
    0.5148   -4.3056   45.9040 C   0  0  0  0  0  0  0  0  0  0  0  0
   -0.0108   -6.3759   44.8643 C   0  0  0  0  0  0  0  0  0  0  0  0
   -0.7594   -6.8229   45.9341 C   0  0  0  0  0  0  0  0  0  0  0  0
   -1.6796   -7.8790   45.6784 C   0  0  0  0  0  0  0  0  0  0  0  0
   -2.5993   -7.7586   44.6319 C   0  0  0  0  0  0  0  0  0  0  0  0
   -3.6033   -8.7328   44.3653 C   0  0  0  0  0  0  0  0  0  0  0  0
   -4.4568   -8.5062   43.2716 C   0  0  0  0  0  0  0  0  0  0  0  0
   -5.6193   -9.1808   43.2061 C   0  0  0  0  0  0  0  0  0  0  0  0
   -5.9366  -10.1905   44.0765 C   0  0  0  0  0  0  0  0  0  0  0  0
   -4.0316   -9.7155   45.3448 C   0  0  0  0  0  0  0  0  0  0  0  0
   -5.1512  -10.3773   45.2055 C   0  0  0  0  0  0  0  0  0  0  0  0
   -4.5560   -1.3949   40.2959 O   0  0  0  0  0  0  0  0  0  0  0  0
   -2.1265   -8.6704   46.8406 C   0  0  0  0  0  0  0  0  0  0  0  0
   -1.3088   -8.7625   48.0256 C   0  0  0  0  0  0  0  0  0  0  0  0
  1  2  1  0
  2  3  2  3
  3  4  1  0
  8 10  1  0
 10 11  2  0
 10 12  1  0
  5 18  1  0
 18 19  1  0
 19 20  1  6
 19 21  1  0
 21 22  2  3
 22 23  1  0
 23 24  2  3
 24 25  1  0
 15 31  1  0
 23 32  1  0
 32 33  1  0
  1 13  2  0
 13 14  1  0
 14 15  2  0
 15 16  1  0
 16 17  2  0
 17  1  1  0
 25 26  2  0
 26 27  1  0
 27 28  2  0
 28 30  1  0
 30 29  2  0
 29 25  1  0
  4  5  1  0
  5  6  2  0
  6  7  1  0
  7  8  2  0
  8  9  1  0
  9  4  2  0
M  END
$$$$
O14757_PocketFlow_idx-in-all-generaetd-198
     RDKit          3D

 35 37  0  0  0  0  0  0  0  0999 V2000
    0.0138   -2.7927   42.5918 N   0  0  0  0  0  0  0  0  0  0  0  0
    1.1722   -3.1858   42.8673 C   0  0  0  0  0  0  0  0  0  0  0  0
    2.0106   -2.4736   43.6736 C   0  0  0  0  0  0  0  0  0  0  0  0
    3.0022   -3.1582   44.4022 C   0  0  1  0  0  0  0  0  0  0  0  0
    4.2250   -2.6067   44.7395 C   0  0  0  0  0  0  0  0  0  0  0  0
    5.1590   -3.1671   45.6614 C   0  0  0  0  0  0  0  0  0  0  0  0
    6.4134   -2.5127   45.9898 C   0  0  0  0  0  0  0  0  0  0  0  0
    6.8114   -1.4989   45.0987 C   0  0  0  0  0  0  0  0  0  0  0  0
    4.8136   -1.5489   43.8961 C   0  0  0  0  0  0  0  0  0  0  0  0
    6.1008   -1.0496   44.1154 C   0  0  0  0  0  0  0  0  0  0  0  0
    2.6915   -4.4181   44.9652 C   0  0  0  0  0  0  0  0  0  0  0  0
   -0.0775   -1.6541   41.8562 C   0  0  0  0  0  0  0  0  0  0  0  0
    1.4486   -4.8532   45.2649 C   0  0  0  0  0  0  0  0  0  0  0  0
    1.1420   -6.1622   45.6696 C   0  0  0  0  0  0  0  0  0  0  0  0
   -0.1903   -6.5534   45.8217 C   0  0  0  0  0  0  0  0  0  0  0  0
   -1.2973   -1.2995   41.4080 N   0  0  0  0  0  0  0  0  0  0  0  0
    0.8173   -0.8855   41.5889 O   0  0  0  0  0  0  0  0  0  0  0  0
   -0.6730   -7.5464   45.0677 C   0  0  0  0  0  0  0  0  0  0  0  0
   -2.0861   -7.9831   45.1531 C   0  0  0  0  0  0  0  0  0  0  0  0
   -2.8296   -8.1285   44.0730 C   0  0  0  0  0  0  0  0  0  0  0  0
   -4.2248   -8.5736   44.2041 C   0  0  0  0  0  0  0  0  0  0  0  0
   -5.0645   -8.4713   43.0828 C   0  0  0  0  0  0  0  0  0  0  0  0
   -4.6819   -8.7319   45.5299 C   0  0  0  0  0  0  0  0  0  0  0  0
   -3.8706   -8.6499   46.6265 C   0  0  0  0  0  0  0  0  0  0  0  0
   -2.5745   -8.1995   46.4991 C   0  0  0  0  0  0  0  0  0  0  0  0
   -5.0068   -7.6021   42.1814 C   0  0  0  0  0  0  0  0  0  0  0  0
   -5.9520   -7.5542   41.0923 C   0  0  0  0  0  0  0  0  0  0  0  0
   -6.1560   -9.3247   43.0968 C   0  0  0  0  0  0  0  0  0  0  0  0
   -7.0726   -9.4558   42.0975 C   0  0  0  0  0  0  0  0  0  0  0  0
   -6.9815   -8.4454   41.0891 C   0  0  0  0  0  0  0  0  0  0  0  0
    7.2834   -3.1666   46.9627 C   0  0  0  0  0  0  0  0  0  0  0  0
    8.6490   -2.9186   47.0889 C   0  0  0  0  0  0  0  0  0  0  0  0
    9.4696   -3.5639   47.9746 C   0  0  0  0  0  0  0  0  0  0  0  0
    8.8730   -4.4649   48.8734 C   0  0  0  0  0  0  0  0  0  0  0  0
    6.8248   -4.0891   47.9493 C   0  0  0  0  0  0  0  0  0  0  0  0
  1  2  1  0
  2  3  1  0
  4  3  1  1
  4  5  1  0
  4 11  1  0
  1 12  1  0
 11 13  2  3
 13 14  1  0
 14 15  2  3
 12 16  1  0
 12 17  2  0
 15 18  1  0
  7 31  1  0
 31 32  2  3
 32 33  1  0
 33 34  2  0
 31 35  1  0
 18 19  1  0
 22 21  1  0
 22 26  2  0
 26 27  1  0
 27 30  2  0
 30 29  1  0
 29 28  2  0
 28 22  1  0
  5  6  2  0
  6  7  1  0
  7  8  2  0
  8 10  1  0
 10  9  2  0
  9  5  1  0
 19 20  2  0
 20 21  1  0
 21 23  2  0
 23 24  1  0
 24 25  2  0
 25 19  1  0
M  END
$$$$
O14757_PocketFlow_idx-in-all-generaetd-199
     RDKit          3D

 31 34  0  0  0  0  0  0  0  0999 V2000
   -0.6395   -2.0713   41.4947 C   0  0  0  0  0  0  0  0  0  0  0  0
    0.1859   -1.1027   41.5970 C   0  0  0  0  0  0  0  0  0  0  0  0
    1.5836   -1.3270   41.4670 C   0  0  0  0  0  0  0  0  0  0  0  0
   -0.2462   -3.3905   41.2409 C   0  0  0  0  0  0  0  0  0  0  0  0
    2.5675   -0.3472   41.7943 C   0  0  0  0  0  0  0  0  0  0  0  0
    3.3930   -0.4657   42.9022 C   0  0  0  0  0  0  0  0  0  0  0  0
    3.6964   -1.6719   43.4848 C   0  0  0  0  0  0  0  0  0  0  0  0
    4.8134   -1.9108   44.3300 C   0  0  0  0  0  0  0  0  0  0  0  0
    4.8228   -2.8612   45.3085 C   0  0  0  0  0  0  0  0  0  0  0  0
    5.8626   -2.9549   46.2917 C   0  0  0  0  0  0  0  0  0  0  0  0
    7.0657   -2.2517   46.0279 C   0  0  0  0  0  0  0  0  0  0  0  0
    7.0361   -1.3164   44.9666 C   0  0  0  0  0  0  0  0  0  0  0  0
    5.9787   -1.1417   44.1159 C   0  0  0  0  0  0  0  0  0  0  0  0
    1.1574   -3.6169   41.2014 C   0  0  0  0  0  0  0  0  0  0  0  0
    2.0295   -2.5915   41.3210 C   0  0  0  0  0  0  0  0  0  0  0  0
    8.2168   -2.4433   46.8617 C   0  0  0  0  0  0  0  0  0  0  0  0
    9.3226   -1.6301   46.8617 C   0  0  0  0  0  0  0  0  0  0  0  0
   10.4660   -1.8476   47.6382 C   0  0  0  0  0  0  0  0  0  0  0  0
   10.4863   -2.8932   48.5385 C   0  0  0  0  0  0  0  0  0  0  0  0
    8.3105   -3.6257   47.6812 C   0  0  0  0  0  0  0  0  0  0  0  0
    9.3932   -3.8176   48.5525 C   0  0  0  0  0  0  0  0  0  0  0  0
   -1.9926   -1.6611   41.4469 O   0  0  0  0  0  0  0  0  0  0  0  0
   -2.8318   -1.9669   40.4645 C   0  0  0  0  0  0  0  0  0  0  0  0
    3.5964   -3.4621   45.4512 N   0  0  0  0  0  0  0  0  0  0  0  0
    3.5021   -4.7799   45.1495 C   0  0  0  0  0  0  0  0  0  0  0  0
    2.1664   -5.3835   45.1658 C   0  0  0  0  0  0  0  0  0  0  0  0
    1.9005   -6.6918   45.0010 C   0  0  0  0  0  0  0  0  0  0  0  0
    1.0684   -4.6083   45.7105 C   0  0  0  0  0  0  0  0  0  0  0  0
    0.6500   -7.2164   44.9213 C   0  0  0  0  0  0  0  0  0  0  0  0
   -0.1956   -5.0820   45.8268 C   0  0  0  0  0  0  0  0  0  0  0  0
   -0.4309   -6.4034   45.4761 C   0  0  0  0  0  0  0  0  0  0  0  0
  3  5  1  0
  5  6  1  0
  6  7  1  0
 11 16  1  0
  1 22  1  0
 22 23  1  0
  9 24  1  0
 24 25  1  0
 25 26  1  0
  7  8  1  0
  1  2  2  0
  2  3  1  0
  3 15  2  0
 15 14  1  0
 14  4  2  0
  4  1  1  0
  8  9  1  0
  9 10  2  0
 10 11  1  0
 11 12  2  0
 12 13  1  0
 13  8  2  0
 26 27  2  0
 27 29  1  0
 29 31  2  0
 31 30  1  0
 30 28  2  0
 28 26  1  0
 16 17  2  0
 17 18  1  0
 18 19  2  0
 19 21  1  0
 21 20  2  0
 20 16  1  0
M  END
$$$$
O14757_PocketFlow_idx-in-all-generaetd-200
     RDKit          3D

 25 26  0  0  0  0  0  0  0  0999 V2000
   -0.6395   -2.0713   41.4947 C   0  0  0  0  0  0  0  0  0  0  0  0
    0.6719   -2.2449   41.7518 C   0  0  0  0  0  0  0  0  0  0  0  0
    1.1287   -3.3339   42.4778 C   0  0  0  0  0  0  0  0  0  0  0  0
    2.2706   -3.1945   43.3374 C   0  0  0  0  0  0  0  0  0  0  0  0
    3.1816   -2.2032   43.1295 C   0  0  0  0  0  0  0  0  0  0  0  0
    2.7964   -1.0772   42.3131 C   0  0  0  0  0  0  0  0  0  0  0  0
    3.6573    0.0390   42.1719 C   0  0  0  0  0  0  0  0  0  0  0  0
    1.5248   -1.0785   41.6807 C   0  0  0  0  0  0  0  0  0  0  0  0
    4.9766   -0.0486   42.6234 N   0  0  0  0  0  0  0  0  0  0  0  0
   -1.3245   -1.0258   41.5836 O   0  0  0  0  0  0  0  0  0  0  0  0
   -1.3547   -3.1289   41.0543 O   0  0  0  0  0  0  0  0  0  0  0  0
    2.8008   -4.3376   44.1952 C   0  0  0  0  0  0  0  0  0  0  0  0
    4.0589   -4.3875   44.7056 C   0  0  0  0  0  0  0  0  0  0  0  0
    1.8169   -5.2972   44.5859 C   0  0  0  0  0  0  0  0  0  0  0  0
    2.1866   -6.4438   45.1938 C   0  0  0  0  0  0  0  0  0  0  0  0
    4.4045   -5.4722   45.5771 C   0  0  0  0  0  0  0  0  0  0  0  0
    3.4866   -6.4873   45.8233 C   0  0  0  0  0  0  0  0  0  0  0  0
    1.1085   -7.3190   45.5020 C   0  0  0  0  0  0  0  0  0  0  0  0
    1.2307   -8.3100   46.3161 N   0  0  0  0  0  0  0  0  0  0  0  0
    0.0313   -7.2854   44.8454 O   0  0  0  0  0  0  0  0  0  0  0  0
    0.2714   -9.3415   46.6285 C   0  0  0  0  0  0  0  0  0  0  0  0
   -1.0037   -8.9860   46.7475 C   0  0  0  0  0  0  0  0  0  0  0  0
   -1.3017   -7.7061   46.9710 C   0  0  0  0  0  0  0  0  0  0  0  0
   -1.2267   -6.8957   45.7117 C   0  0  0  0  0  0  0  0  0  0  0  0
   -2.3761   -7.0460   44.8943 O   0  0  0  0  0  0  0  0  0  0  0  0
  1  2  1  0
  7  9  1  0
  1 10  2  0
  1 11  1  0
  4 12  1  0
 15 18  1  0
 18 19  1  0
 18 20  2  0
 19 21  1  0
 21 22  1  0
 22 23  3  0
 23 24  1  0
 24 25  1  0
  7  6  1  0
  2  3  2  0
  3  4  1  0
  4  5  2  0
  5  6  1  0
  6  8  2  0
  8  2  1  0
 12 13  2  0
 13 16  1  0
 16 17  2  0
 17 15  1  0
 15 14  2  0
 14 12  1  0
M  END
$$$$
O14757_PocketFlow_idx-in-all-generaetd-201
     RDKit          3D

 10 11  0  0  0  0  0  0  0  0999 V2000
    0.0138   -2.7927   42.5918 N   0  0  0  0  0  0  0  0  0  0  0  0
    1.0651   -2.2375   42.1679 C   0  0  0  0  0  0  0  0  0  0  0  0
    2.2627   -2.4916   42.7704 C   0  0  0  0  0  0  0  0  0  0  0  0
    3.4407   -1.8309   42.5172 C   0  0  0  0  0  0  0  0  0  0  0  0
    4.5794   -2.0356   43.3665 C   0  0  0  0  0  0  0  0  0  0  0  0
    4.4920   -3.0424   44.3063 C   0  0  0  0  0  0  0  0  0  0  0  0
    3.3269   -3.8236   44.4431 C   0  0  0  0  0  0  0  0  0  0  0  0
    2.1808   -3.5356   43.7744 C   0  0  0  0  0  0  0  0  0  0  0  0
    0.9662   -4.0581   43.9084 N   0  0  0  0  0  0  0  0  0  0  0  0
   -0.1176   -3.7152   43.4068 C   0  0  0  0  0  0  0  0  0  0  0  0
  3  4  2  0
  4  5  1  0
  5  6  2  0
  6  7  1  0
  7  8  2  0
  1  2  2  0
  2  3  1  0
  3  8  1  0
  8  9  1  0
  9 10  2  0
 10  1  1  0
M  END
$$$$
O14757_PocketFlow_idx-in-all-generaetd-202
     RDKit          3D

 21 22  0  0  0  0  0  0  0  0999 V2000
   -0.6395   -2.0713   41.4947 C   0  0  0  0  0  0  0  0  0  0  0  0
    0.1859   -1.1027   41.5970 C   0  0  0  0  0  0  0  0  0  0  0  0
    1.5836   -1.3270   41.4670 C   0  0  0  0  0  0  0  0  0  0  0  0
   -0.2462   -3.3905   41.2409 C   0  0  0  0  0  0  0  0  0  0  0  0
    2.5675   -0.3472   41.7943 C   0  0  0  0  0  0  0  0  0  0  0  0
    3.8546   -0.6776   42.2362 C   0  0  0  0  0  0  0  0  0  0  0  0
    4.7317    0.3221   42.6999 C   0  0  0  0  0  0  0  0  0  0  0  0
    1.0887   -3.6005   41.1320 N   0  0  0  0  0  0  0  0  0  0  0  0
    1.9709   -2.5918   41.2377 C   0  0  0  0  0  0  0  0  0  0  0  0
   -2.0368   -1.8955   41.6126 O   0  0  0  0  0  0  0  0  0  0  0  0
    5.8925   -0.2219   43.4086 C   0  0  0  0  0  0  0  0  0  0  0  0
    5.8309   -1.3993   44.1960 C   0  0  0  0  0  0  0  0  0  0  0  0
    4.8063   -2.3470   43.8598 C   0  0  0  0  0  0  0  0  0  0  0  0
    3.7352   -1.9038   43.0248 C   0  0  0  0  0  0  0  0  0  0  0  0
    6.9219   -1.7660   45.0464 C   0  0  0  0  0  0  0  0  0  0  0  0
    6.8349   -2.9217   45.8898 C   0  0  0  0  0  0  0  0  0  0  0  0
    7.1295   -3.2908   46.9432 C   0  0  0  0  0  0  0  0  0  0  0  0
    6.6768   -4.5048   47.5833 C   0  0  0  0  0  0  0  0  0  0  0  0
    7.1491   -4.9460   48.8518 C   0  0  0  0  0  0  0  0  0  0  0  0
    7.9845   -4.1608   49.5534 C   0  0  0  0  0  0  0  0  0  0  0  0
    8.5753   -3.0808   48.9452 C   0  0  0  0  0  0  0  0  0  0  0  0
  3  5  1  0
  1 10  1  0
 12 15  1  0
 15 16  2  3
 16 17  1  0
 17 18  2  3
 18 19  1  0
 19 20  2  3
 20 21  1  0
  5  6  1  0
  6  7  2  0
  7 11  1  0
 11 12  2  0
 12 13  1  0
 13 14  2  0
 14  6  1  0
  1  2  2  0
  2  3  1  0
  3  9  2  0
  9  8  1  0
  8  4  2  0
  4  1  1  0
M  END
$$$$
O14757_PocketFlow_idx-in-all-generaetd-203
     RDKit          3D

 14 14  0  0  0  0  0  0  0  0999 V2000
    0.2881   -2.9111   42.4378 C   0  0  0  0  0  0  0  0  0  0  0  0
   -0.0650   -2.5021   41.5798 C   0  0  0  0  0  0  0  0  0  0  0  0
    1.5584   -2.5265   43.0885 C   0  0  0  0  0  0  0  0  0  0  0  0
    2.2571   -1.5118   42.4661 C   0  0  0  0  0  0  0  0  0  0  0  0
    1.6355   -0.8966   41.3660 C   0  0  0  0  0  0  0  0  0  0  0  0
    0.4783   -1.3291   40.8710 C   0  0  0  0  0  0  0  0  0  0  0  0
    3.5151   -1.0670   43.0090 C   0  0  2  0  0  0  0  0  0  0  0  0
    4.0600    0.1899   42.7701 C   0  0  0  0  0  0  0  0  0  0  0  0
    4.3270   -1.9837   43.8063 C   0  0  0  0  0  0  0  0  0  0  0  0
    4.7062   -1.7044   45.0507 C   0  0  0  0  0  0  0  0  0  0  0  0
    5.5672   -2.5650   45.7666 C   0  0  0  0  0  0  0  0  0  0  0  0
    6.8510   -2.3208   46.0671 C   0  0  0  0  0  0  0  0  0  0  0  0
    7.5508   -3.3090   46.8677 C   0  0  0  0  0  0  0  0  0  0  0  0
    6.8324   -4.2809   47.4513 C   0  0  0  0  0  0  0  0  0  0  0  0
  4  7  1  0
  7  8  1  6
  7  9  1  0
  9 10  1  0
 10 11  2  3
 11 12  1  0
 12 13  2  3
 13 14  1  0
  1  2  2  0
  2  6  1  0
  6  5  2  0
  5  4  1  0
  4  3  2  0
  3  1  1  0
M  END
$$$$
O14757_PocketFlow_idx-in-all-generaetd-204
     RDKit          3D

 35 39  0  0  0  0  0  0  0  0999 V2000
   -0.6395   -2.0713   41.4947 C   0  0  0  0  0  0  0  0  0  0  0  0
    0.1859   -1.1027   41.5970 C   0  0  0  0  0  0  0  0  0  0  0  0
    1.5836   -1.3270   41.4670 C   0  0  0  0  0  0  0  0  0  0  0  0
   -0.2462   -3.3905   41.2409 C   0  0  0  0  0  0  0  0  0  0  0  0
    2.5675   -0.3473   41.7943 C   0  0  0  0  0  0  0  0  0  0  0  0
    3.8546   -0.6776   42.2362 C   0  0  0  0  0  0  0  0  0  0  0  0
    4.0126   -1.8382   43.0706 C   0  0  0  0  0  0  0  0  0  0  0  0
    5.0976   -2.0692   43.9469 C   0  0  0  0  0  0  0  0  0  0  0  0
    5.9563   -1.0032   44.1202 C   0  0  0  0  0  0  0  0  0  0  0  0
    7.0710   -1.3987   44.9881 C   0  0  0  0  0  0  0  0  0  0  0  0
    7.0321   -2.4913   45.8072 C   0  0  0  0  0  0  0  0  0  0  0  0
    5.9951   -3.4430   45.6322 C   0  0  0  0  0  0  0  0  0  0  0  0
    5.0265   -3.2028   44.7130 C   0  0  0  0  0  0  0  0  0  0  0  0
    1.1524   -3.6228   41.1912 C   0  0  0  0  0  0  0  0  0  0  0  0
    2.0304   -2.5984   41.3242 C   0  0  0  0  0  0  0  0  0  0  0  0
   -2.0269   -1.8443   41.4769 O   0  0  0  0  0  0  0  0  0  0  0  0
    3.9364   -4.1212   44.5001 C   0  0  2  0  0  0  0  0  0  0  0  0
    3.9971   -5.3991   45.1623 C   0  0  0  0  0  0  0  0  0  0  0  0
    2.8719   -6.2790   44.9760 C   0  0  0  0  0  0  0  0  0  0  0  0
    3.1083   -2.9759   43.2394 C   0  0  0  0  0  0  0  0  0  0  0  0
    1.8020   -6.0969   45.4930 C   0  0  0  0  0  0  0  0  0  0  0  0
    1.2194   -4.7747   45.5193 C   0  0  0  0  0  0  0  0  0  0  0  0
   -0.0108   -4.5963   45.1279 C   0  0  0  0  0  0  0  0  0  0  0  0
    8.0457   -2.7970   46.8080 C   0  0  0  0  0  0  0  0  0  0  0  0
    9.1646   -2.0767   46.9155 N   0  0  0  0  0  0  0  0  0  0  0  0
   10.0888   -2.2159   47.8573 C   0  0  0  0  0  0  0  0  0  0  0  0
   11.0762   -1.2467   48.0529 C   0  0  0  0  0  0  0  0  0  0  0  0
    7.9777   -3.8762   47.6903 C   0  0  0  0  0  0  0  0  0  0  0  0
    8.8883   -4.0981   48.7243 C   0  0  0  0  0  0  0  0  0  0  0  0
    9.9215   -3.1798   48.8762 C   0  0  0  0  0  0  0  0  0  0  0  0
    0.8528   -7.1332   45.8730 C   0  0  0  0  0  0  0  0  0  0  0  0
   -0.5668   -6.9280   45.6060 C   0  0  0  0  0  0  0  0  0  0  0  0
   -1.0358   -5.6006   45.5648 C   0  0  0  0  0  0  0  0  0  0  0  0
   -1.4499   -7.9980   45.3807 C   0  0  0  0  0  0  0  0  0  0  0  0
   -1.9158   -8.8914   46.4264 C   0  0  0  0  0  0  0  0  0  0  0  0
  3  5  1  0
  5  6  1  0
  6  7  1  0
  1 16  1  0
 13 17  1  0
 17 18  1  0
 18 19  2  3
  7 20  1  0
 17 20  1  6
 19 21  1  0
 11 24  1  0
 26 27  1  0
 32 34  1  0
 34 35  1  0
  7  8  1  0
  1  2  2  0
  2  3  1  0
  3 15  2  0
 15 14  1  0
 14  4  2  0
  4  1  1  0
 24 25  2  0
 25 26  1  0
 26 30  2  0
 30 29  1  0
 29 28  2  0
 28 24  1  0
  8  9  2  0
  9 10  1  0
 10 11  2  0
 11 12  1  0
 12 13  2  0
 13  8  1  0
 21 22  2  0
 22 23  1  0
 23 33  2  0
 33 32  1  0
 32 31  2  0
 31 21  1  0
M  END
$$$$
O14757_PocketFlow_idx-in-all-generaetd-205
     RDKit          3D

 35 39  0  0  0  0  0  0  0  0999 V2000
   -0.6395   -2.0713   41.4947 C   0  0  0  0  0  0  0  0  0  0  0  0
    0.1859   -1.1027   41.5970 C   0  0  0  0  0  0  0  0  0  0  0  0
   -2.0077   -1.8651   41.2044 C   0  0  0  0  0  0  0  0  0  0  0  0
    1.5974   -1.2445   41.7640 C   0  0  0  0  0  0  0  0  0  0  0  0
    1.9873   -2.5402   42.2780 C   0  0  0  0  0  0  0  0  0  0  0  0
    0.9098   -3.5138   42.4627 C   0  0  0  0  0  0  0  0  0  0  0  0
   -0.3287   -3.2489   41.9834 C   0  0  0  0  0  0  0  0  0  0  0  0
   -2.6648   -0.7214   41.3316 N   0  0  0  0  0  0  0  0  0  0  0  0
   -2.8681   -2.8416   40.8193 N   0  0  0  0  0  0  0  0  0  0  0  0
    2.3506   -0.0637   41.8516 C   0  0  0  0  0  0  0  0  0  0  0  0
    3.6456   -0.2823   42.4138 C   0  0  0  0  0  0  0  0  0  0  0  0
    4.1580   -1.3677   42.9228 C   0  0  0  0  0  0  0  0  0  0  0  0
    3.2956   -2.5379   42.8939 C   0  0  0  0  0  0  0  0  0  0  0  0
    5.4825   -1.3684   43.5263 C   0  0  0  0  0  0  0  0  0  0  0  0
    5.8663   -2.4825   44.3457 C   0  0  0  0  0  0  0  0  0  0  0  0
    7.0013   -2.3288   45.2313 C   0  0  0  0  0  0  0  0  0  0  0  0
    7.3358   -3.4199   46.1084 C   0  0  0  0  0  0  0  0  0  0  0  0
    8.5426   -3.3447   46.8686 C   0  0  0  0  0  0  0  0  0  0  0  0
    8.8685   -4.3526   47.8099 C   0  0  0  0  0  0  0  0  0  0  0  0
    7.7800   -5.1727   48.2214 C   0  0  0  0  0  0  0  0  0  0  0  0
    8.0304   -6.1098   49.2675 C   0  0  0  0  0  0  0  0  0  0  0  0
    9.1842   -6.0858   49.9552 C   0  0  0  0  0  0  0  0  0  0  0  0
   10.1893   -5.2385   49.5727 C   0  0  0  0  0  0  0  0  0  0  0  0
   10.0309   -4.3300   48.5793 C   0  0  0  0  0  0  0  0  0  0  0  0
    9.5505   -2.3616   46.4818 C   0  0  0  0  0  0  0  0  0  0  0  0
    9.0390   -1.0993   45.8778 C   0  0  0  0  0  0  0  0  0  0  0  0
    7.8902   -1.1963   45.1711 C   0  0  0  0  0  0  0  0  0  0  0  0
   -3.7618   -0.2980   40.7075 C   0  0  0  0  0  0  0  0  0  0  0  0
   -4.0097   -2.5672   40.2632 N   0  0  0  0  0  0  0  0  0  0  0  0
   -4.5317   -1.3653   40.2338 C   0  0  0  0  0  0  0  0  0  0  0  0
    6.8480   -6.9573   49.6347 C   0  0  0  0  0  0  0  0  0  0  0  0
    6.5788   -7.8374   48.5916 F   0  0  0  0  0  0  0  0  0  0  0  0
    7.1322   -7.7455   50.6845 F   0  0  0  0  0  0  0  0  0  0  0  0
    5.7476   -6.2441   49.8667 F   0  0  0  0  0  0  0  0  0  0  0  0
   -4.1278    0.9622   40.8333 N   0  0  0  0  0  0  0  0  0  0  0  0
  1  3  1  0
 12 14  1  0
 14 15  2  3
 15 16  1  0
 18 19  1  0
 21 31  1  0
 31 32  1  0
 31 33  1  0
 31 34  1  0
 28 35  1  0
 16 17  2  0
 17 18  1  0
 18 25  2  0
 25 26  1  0
 26 27  2  0
 27 16  1  0
  3  8  2  0
  8 28  1  0
 28 30  2  0
 30 29  1  0
 29  9  2  0
  9  3  1  0
 19 20  2  0
 20 21  1  0
 21 22  2  0
 22 23  1  0
 23 24  2  0
 24 19  1  0
  5 13  2  0
 13 12  1  0
 12 11  2  0
 11 10  1  0
 10  4  2  0
  1  2  2  0
  2  4  1  0
  4  5  1  0
  5  6  1  0
  6  7  2  0
  7  1  1  0
M  END
$$$$
O14757_PocketFlow_idx-in-all-generaetd-206
     RDKit          3D

  9  9  0  0  0  0  0  0  0  0999 V2000
    0.2881   -2.9111   42.4378 C   0  0  0  0  0  0  0  0  0  0  0  0
    1.3023   -2.0648   42.1981 C   0  0  0  0  0  0  0  0  0  0  0  0
    0.9971   -0.8647   41.5341 C   0  0  0  0  0  0  0  0  0  0  0  0
   -0.9708   -2.7453   41.8195 C   0  0  0  0  0  0  0  0  0  0  0  0
   -1.3087   -1.5883   41.3020 C   0  0  0  0  0  0  0  0  0  0  0  0
   -0.3019   -0.6005   41.1317 C   0  0  0  0  0  0  0  0  0  0  0  0
    0.5785   -4.3001   43.0186 C   0  0  0  0  0  0  0  0  0  0  0  0
   -0.2226   -5.1336   42.4861 F   0  0  0  0  0  0  0  0  0  0  0  0
    0.2645   -4.1405   44.3919 F   0  0  0  0  0  0  0  0  0  0  0  0
  1  7  1  0
  7  8  1  0
  7  9  1  0
  1  2  2  0
  2  3  1  0
  3  6  2  0
  6  5  1  0
  5  4  2  0
  4  1  1  0
M  END
$$$$
O14757_PocketFlow_idx-in-all-generaetd-207
     RDKit          3D

 14 14  0  0  0  0  0  0  0  0999 V2000
   -0.6395   -2.0713   41.4947 C   0  0  0  0  0  0  0  0  0  0  0  0
    0.1859   -1.1027   41.5970 C   0  0  0  0  0  0  0  0  0  0  0  0
    1.5836   -1.3270   41.4670 C   0  0  0  0  0  0  0  0  0  0  0  0
   -0.2462   -3.3905   41.2409 C   0  0  0  0  0  0  0  0  0  0  0  0
    2.0578   -2.6838   41.5381 C   0  0  0  0  0  0  0  0  0  0  0  0
    1.0785   -3.6429   41.2820 C   0  0  0  0  0  0  0  0  0  0  0  0
   -2.0527   -1.9906   41.4786 N   0  0  0  0  0  0  0  0  0  0  0  0
    2.3691   -0.2616   41.8249 N   0  0  0  0  0  0  0  0  0  0  0  0
    3.5144   -0.4252   42.5118 C   0  0  0  0  0  0  0  0  0  0  0  0
    3.8796   -1.4378   43.3523 C   0  0  0  0  0  0  0  0  0  0  0  0
    5.1102   -1.3152   44.0330 C   0  0  0  0  0  0  0  0  0  0  0  0
    5.4553   -2.4099   44.9370 C   0  0  0  0  0  0  0  0  0  0  0  0
    4.6947   -3.5739   45.0049 C   0  0  0  0  0  0  0  0  0  0  0  0
    3.5689   -3.6703   44.2101 C   0  0  0  0  0  0  0  0  0  0  0  0
  1  7  1  0
  3  8  1  0
  8  9  1  0
  9 10  2  3
 10 11  1  0
 11 12  2  3
 12 13  1  0
 13 14  2  0
  1  2  2  0
  2  3  1  0
  3  5  2  0
  5  6  1  0
  6  4  2  0
  4  1  1  0
M  END
$$$$
O14757_PocketFlow_idx-in-all-generaetd-208
     RDKit          3D

 35 36  0  0  0  0  0  0  0  0999 V2000
    0.2881   -2.9111   42.4378 C   0  0  0  0  0  0  0  0  0  0  0  0
    1.1784   -3.4293   42.9321 C   0  0  0  0  0  0  0  0  0  0  0  0
    2.4507   -2.7243   42.9621 C   0  0  0  0  0  0  0  0  0  0  0  0
    2.5762   -1.5430   42.3314 C   0  0  0  0  0  0  0  0  0  0  0  0
    0.2669   -1.7116   41.6824 C   0  0  0  0  0  0  0  0  0  0  0  0
    1.4692   -1.0385   41.6539 C   0  0  0  0  0  0  0  0  0  0  0  0
    3.6316   -3.2188   43.7613 C   0  0  0  0  0  0  0  0  0  0  0  0
    3.9500   -2.8165   45.0264 C   0  0  0  0  0  0  0  0  0  0  0  0
    4.3362   -1.5188   45.3661 C   0  0  0  0  0  0  0  0  0  0  0  0
    3.9613   -3.8055   46.1122 C   0  0  0  0  0  0  0  0  0  0  0  0
   -0.8776   -1.1814   41.1738 N   0  0  0  0  0  0  0  0  0  0  0  0
    3.0507   -5.0490   46.2542 Cl  0  0  0  0  0  0  0  0  0  0  0  0
    4.7354   -0.6388   44.3265 C   0  0  0  0  0  0  0  0  0  0  0  0
    5.0032   -3.5307   47.1319 C   0  0  0  0  0  0  0  0  0  0  0  0
    6.1005   -4.3498   47.1618 N   0  0  0  0  0  0  0  0  0  0  0  0
    6.6512   -4.5612   48.4067 C   0  0  0  0  0  0  0  0  0  0  0  0
    7.0311   -5.6745   48.7644 C   0  0  0  0  0  0  0  0  0  0  0  0
    8.2089   -5.9185   49.3917 C   0  0  0  0  0  0  0  0  0  0  0  0
    8.6041   -7.2747   49.7467 C   0  0  0  0  0  0  0  0  0  0  0  0
    7.7393   -8.3202   49.4163 C   0  0  0  0  0  0  0  0  0  0  0  0
    6.5016   -8.0749   48.8045 C   0  0  0  0  0  0  0  0  0  0  0  0
    6.1570   -6.7736   48.4563 C   0  0  0  0  0  0  0  0  0  0  0  0
   -1.9720   -1.8285   41.0364 C   0  0  1  0  0  0  0  0  0  0  0  0
   -2.1034   -3.0414   41.3267 F   0  0  0  0  0  0  0  0  0  0  0  0
   -3.1674   -1.1105   40.6318 C   0  0  0  0  0  0  0  0  0  0  0  0
   -3.4484    0.1080   41.0450 N   0  0  0  0  0  0  0  0  0  0  0  0
   -3.9369   -1.5699   39.6087 N   0  0  0  0  0  0  0  0  0  0  0  0
    6.8933   -3.4787   49.1846 O   0  0  0  0  0  0  0  0  0  0  0  0
    5.7914   -0.7623   43.6075 N   0  0  0  0  0  0  0  0  0  0  0  0
    1.5826    0.1602   41.0371 O   0  0  0  0  0  0  0  0  0  0  0  0
    5.6187   -9.1856   48.4756 C   0  0  0  0  0  0  0  0  0  0  0  0
    5.9604  -10.2252   47.9009 C   0  0  0  0  0  0  0  0  0  0  0  0
    5.0628  -11.2557   47.4081 C   0  0  0  0  0  0  0  0  0  0  0  0
    3.7025  -10.9839   47.5311 C   0  0  0  0  0  0  0  0  0  0  0  0
    3.2543   -9.7866   48.0983 C   0  0  0  0  0  0  0  0  0  0  0  0
  3  7  1  0
  7  8  1  0
  8  9  2  3
  8 10  1  0
  5 11  1  0
 10 12  1  0
  9 13  1  0
 10 14  1  0
 14 15  1  0
 15 16  1  0
 16 17  1  0
 11 23  1  0
 23 24  1  1
 23 25  1  0
 25 26  1  0
 25 27  2  3
 16 28  2  0
 13 29  1  0
  6 30  1  0
 21 31  1  0
 31 32  2  3
 32 33  1  0
 33 34  2  3
 34 35  1  0
 17 18  2  0
 18 19  1  0
 19 20  2  0
 20 21  1  0
 21 22  2  0
 22 17  1  0
  1  2  2  0
  2  3  1  0
  3  4  2  0
  4  6  1  0
  6  5  2  0
  5  1  1  0
M  END
$$$$
O14757_PocketFlow_idx-in-all-generaetd-209
     RDKit          3D

 35 38  0  0  0  0  0  0  0  0999 V2000
   -0.6395   -2.0713   41.4947 C   0  0  0  0  0  0  0  0  0  0  0  0
    0.6719   -2.2449   41.7518 C   0  0  0  0  0  0  0  0  0  0  0  0
    1.5951   -1.1948   41.6106 C   0  0  0  0  0  0  0  0  0  0  0  0
    2.9587   -1.3961   42.0240 C   0  0  0  0  0  0  0  0  0  0  0  0
    3.8815   -0.3441   42.0598 C   0  0  0  0  0  0  0  0  0  0  0  0
    5.0972   -0.5585   42.8399 C   0  0  0  0  0  0  0  0  0  0  0  0
    5.2535   -1.6826   43.6335 C   0  0  0  0  0  0  0  0  0  0  0  0
    4.2210   -2.6732   43.6342 C   0  0  0  0  0  0  0  0  0  0  0  0
    3.0784   -2.4692   42.9029 C   0  0  0  0  0  0  0  0  0  0  0  0
   -1.5003   -3.1795   41.5533 C   0  0  0  0  0  0  0  0  0  0  0  0
   -0.8815   -4.3736   41.6529 N   0  0  0  0  0  0  0  0  0  0  0  0
    4.5713   -3.8634   44.4857 C   0  0  0  0  0  0  0  0  0  0  0  0
    5.4256   -3.7837   45.3085 F   0  0  0  0  0  0  0  0  0  0  0  0
    3.2913   -4.2132   45.0372 F   0  0  0  0  0  0  0  0  0  0  0  0
    0.7657   -3.7047   41.8875 C   0  0  0  0  0  0  0  0  0  0  0  0
    1.2273    0.3028   40.6192 Br  0  0  0  0  0  0  0  0  0  0  0  0
    4.7323   -4.9236   43.6101 F   0  0  0  0  0  0  0  0  0  0  0  0
   -1.2742   -0.8513   41.3208 O   0  0  0  0  0  0  0  0  0  0  0  0
   -2.6481   -0.7212   41.2839 C   0  0  0  0  0  0  0  0  0  0  0  0
    6.4034   -1.7461   44.3064 O   0  0  0  0  0  0  0  0  0  0  0  0
    6.4002   -1.2641   45.6618 C   0  0  0  0  0  0  0  0  0  0  0  0
   -3.3502   -1.4237   40.3219 C   0  0  0  0  0  0  0  0  0  0  0  0
   -3.0300    0.6828   41.3484 N   0  0  0  0  0  0  0  0  0  0  0  0
   -4.6888   -1.0574   40.0412 C   0  0  0  0  0  0  0  0  0  0  0  0
   -4.3441    0.9905   41.2285 C   0  0  0  0  0  0  0  0  0  0  0  0
   -5.0126    0.2060   40.3624 N   0  0  0  0  0  0  0  0  0  0  0  0
    7.4346   -1.9577   46.3246 C   0  0  0  0  0  0  0  0  0  0  0  0
    7.3852   -3.1829   46.9506 C   0  0  0  0  0  0  0  0  0  0  0  0
    8.5570   -3.6108   47.5965 C   0  0  0  0  0  0  0  0  0  0  0  0
    9.6856   -2.9001   47.6143 C   0  0  0  0  0  0  0  0  0  0  0  0
    8.7609   -1.3256   46.5424 C   0  0  0  0  0  0  0  0  0  0  0  0
    9.8048   -1.6892   47.1044 C   0  0  0  0  0  0  0  0  0  0  0  0
    8.4769   -5.0654   48.1734 C   0  0  0  0  0  0  0  0  0  0  0  0
    7.3963   -5.4631   48.6490 N   0  0  0  0  0  0  0  0  0  0  0  0
    7.0618   -5.5829   49.6480 C   0  0  0  0  0  0  0  0  0  0  0  0
  1  2  1  0
  2  3  2  3
  3  4  1  0
  1 10  2  0
 10 11  1  0
  8 12  1  0
 12 13  1  0
 12 14  1  0
  2 15  1  0
 11 15  2  0
  3 16  1  0
 12 17  1  0
  1 18  1  0
 18 19  1  0
  7 20  1  0
 20 21  1  0
 21 27  1  0
 29 33  1  0
 33 34  1  0
 34 35  1  0
 19 22  2  0
 22 24  1  0
 24 26  2  0
 26 25  1  0
 25 23  2  0
 23 19  1  0
 27 28  2  0
 28 29  1  0
 29 30  2  0
 30 32  1  0
 32 31  2  0
 31 27  1  0
  4  5  2  0
  5  6  1  0
  6  7  2  0
  7  8  1  0
  8  9  2  0
  9  4  1  0
M  END
$$$$
O14757_PocketFlow_idx-in-all-generaetd-210
     RDKit          3D

 11 11  0  0  0  0  0  0  0  0999 V2000
    0.2881   -2.9111   42.4378 C   0  0  0  0  0  0  0  0  0  0  0  0
    1.3023   -2.0648   42.1981 C   0  0  0  0  0  0  0  0  0  0  0  0
    2.5313   -2.2887   42.6989 C   0  0  0  0  0  0  0  0  0  0  0  0
    3.5902   -1.3681   42.6298 C   0  0  0  0  0  0  0  0  0  0  0  0
    4.8471   -1.5684   43.3007 C   0  0  0  0  0  0  0  0  0  0  0  0
    5.6540   -0.5233   43.6660 C   0  0  0  0  0  0  0  0  0  0  0  0
   -0.7960   -2.9417   41.5393 C   0  0  0  0  0  0  0  0  0  0  0  0
    0.5074   -4.0196   43.3540 C   0  0  0  0  0  0  0  0  0  0  0  0
    1.7148   -4.0024   44.1652 C   0  0  0  0  0  0  0  0  0  0  0  0
    2.7540   -3.1059   43.8824 C   0  0  0  0  0  0  0  0  0  0  0  0
    6.6024   -0.7252   44.5036 N   0  0  0  0  0  0  0  0  0  0  0  0
  3  4  1  0
  4  5  1  0
  5  6  2  3
  6 11  1  0
  7  1  1  0
  1  2  2  0
  2  3  1  0
  3 10  2  0
 10  9  1  0
  9  8  2  0
  8  1  1  0
M  END
$$$$
O14757_PocketFlow_idx-in-all-generaetd-211
     RDKit          3D

 26 31  0  0  0  0  0  0  0  0999 V2000
    0.2881   -2.9111   42.4378 C   0  0  0  0  0  0  0  0  0  0  0  0
    1.1801   -2.2228   42.2048 N   0  0  0  0  0  0  0  0  0  0  0  0
    0.9828   -1.0640   41.4831 C   0  0  0  0  0  0  0  0  0  0  0  0
    0.5387   -4.1290   43.0676 N   0  0  0  0  0  0  0  0  0  0  0  0
    1.7001   -4.0223   43.7394 C   0  0  0  0  0  0  0  0  0  0  0  0
    2.0078   -5.1557   44.7696 C   0  0  0  0  0  0  0  0  0  0  0  0
    2.5143   -2.9439   43.5104 C   0  0  0  0  0  0  0  0  0  0  0  0
    3.8762   -2.9736   44.2833 C   0  0  0  0  0  0  0  0  0  0  0  0
    4.0718   -3.9928   45.2158 C   0  0  0  0  0  0  0  0  0  0  0  0
    3.2178   -5.0195   45.4338 C   0  0  0  0  0  0  0  0  0  0  0  0
    2.3733   -2.1010   42.7971 C   0  0  0  0  0  0  0  0  0  0  0  0
    1.1906    0.2582   42.1459 C   0  0  0  0  0  0  0  0  0  0  0  0
    4.8031   -1.8890   44.1366 C   0  0  0  0  0  0  0  0  0  0  0  0
    5.9101   -1.7704   44.9450 C   0  0  0  0  0  0  0  0  0  0  0  0
    6.2478   -2.8616   45.7991 C   0  0  0  0  0  0  0  0  0  0  0  0
    5.3381   -3.9376   46.0257 C   0  0  0  0  0  0  0  0  0  0  0  0
    7.5692   -2.8060   46.4908 C   0  0  0  0  0  0  0  0  0  0  0  0
    8.5088   -1.8092   46.3122 C   0  0  0  0  0  0  0  0  0  0  0  0
    9.7574   -1.8142   46.9237 C   0  0  0  0  0  0  0  0  0  0  0  0
   10.1210   -2.8249   47.7579 C   0  0  0  0  0  0  0  0  0  0  0  0
    8.0092   -3.8543   47.3489 C   0  0  0  0  0  0  0  0  0  0  0  0
    9.2241   -3.8776   47.9438 C   0  0  0  0  0  0  0  0  0  0  0  0
   -0.8466   -2.9914   41.7855 O   0  0  0  0  0  0  0  0  0  0  0  0
    2.6319    0.6200   42.1109 C   0  0  0  0  0  0  0  0  0  0  0  0
    3.6467   -0.0503   42.8915 C   0  0  0  0  0  0  0  0  0  0  0  0
    3.7269   -1.3067   43.0219 C   0  0  0  0  0  0  0  0  0  0  0  0
  1  2  1  0
  2  3  1  0
  1  4  1  0
  4  5  1  0
  2 11  1  0
  7 11  1  0
  3 12  1  0
 15 17  1  0
  1 23  2  0
 12 24  1  0
 24 25  1  0
 11 26  1  0
 13 26  1  0
 25 26  2  0
  9 16  1  0
 16 15  2  0
 15 14  1  0
 14 13  2  0
 13  8  1  0
 17 18  2  0
 18 19  1  0
 19 20  2  0
 20 22  1  0
 22 21  2  0
 21 17  1  0
  5  6  2  0
  6 10  1  0
 10  9  2  0
  9  8  1  0
  8  7  2  0
  7  5  1  0
M  END
$$$$
O14757_PocketFlow_idx-in-all-generaetd-212
     RDKit          3D

 35 38  0  0  0  0  0  0  0  0999 V2000
    0.2881   -2.9111   42.4378 C   0  0  0  0  0  0  0  0  0  0  0  0
    1.1784   -3.4293   42.9321 C   0  0  0  0  0  0  0  0  0  0  0  0
    2.4696   -2.7231   42.8997 C   0  0  0  0  0  0  0  0  0  0  0  0
    3.6320   -3.1839   43.6508 C   0  0  0  0  0  0  0  0  0  0  0  0
    3.5151   -4.3427   44.4594 C   0  0  0  0  0  0  0  0  0  0  0  0
    0.4176   -1.7960   41.5141 C   0  0  0  0  0  0  0  0  0  0  0  0
    2.2568   -4.9643   44.5737 C   0  0  0  0  0  0  0  0  0  0  0  0
    1.1768   -4.5276   43.9065 C   0  0  0  0  0  0  0  0  0  0  0  0
    1.6278   -1.1210   41.4714 C   0  0  0  0  0  0  0  0  0  0  0  0
    2.6781   -1.5537   42.1902 C   0  0  0  0  0  0  0  0  0  0  0  0
    4.8821   -2.4271   43.6725 C   0  0  0  0  0  0  0  0  0  0  0  0
    5.0760   -1.4965   44.7815 C   0  0  2  0  0  0  0  0  0  0  0  0
    5.4700   -2.1040   45.9760 C   0  0  0  0  0  0  0  0  0  0  0  0
    6.7444   -2.6070   46.2235 C   0  0  1  0  0  0  0  0  0  0  0  0
    7.0884   -3.5933   47.1283 C   0  0  0  0  0  0  0  0  0  0  0  0
    6.1160   -4.1518   47.9949 C   0  0  0  0  0  0  0  0  0  0  0  0
    6.4975   -5.0595   48.9877 C   0  0  0  0  0  0  0  0  0  0  0  0
    7.8219   -5.4369   49.0893 C   0  0  0  0  0  0  0  0  0  0  0  0
    8.7904   -4.9739   48.2239 C   0  0  0  0  0  0  0  0  0  0  0  0
    8.4494   -4.0242   47.2651 C   0  0  0  0  0  0  0  0  0  0  0  0
    7.7782   -2.0542   45.3763 C   0  0  0  0  0  0  0  0  0  0  0  0
    1.7640   -0.0241   40.7591 F   0  0  0  0  0  0  0  0  0  0  0  0
    2.1650   -6.2144   45.4165 C   0  0  0  0  0  0  0  0  0  0  0  0
    1.5752   -6.1889   46.2786 O   0  0  0  0  0  0  0  0  0  0  0  0
    3.0014   -7.1690   45.1122 O   0  0  0  0  0  0  0  0  0  0  0  0
    4.7806   -0.1185   44.6306 C   0  0  0  0  0  0  0  0  0  0  0  0
    0.1599   -6.6956   46.1118 C   0  0  0  0  0  0  0  0  0  0  0  0
   -0.7139   -6.6447   47.1691 C   0  0  0  0  0  0  0  0  0  0  0  0
   -1.9234   -7.2443   46.9928 O   0  0  0  0  0  0  0  0  0  0  0  0
   -1.8925   -8.5662   46.7964 C   0  0  0  0  0  0  0  0  0  0  0  0
   -3.1903   -9.0643   46.4487 C   0  0  1  0  0  0  0  0  0  0  0  0
   -4.0580   -8.3469   46.7092 O   0  0  0  0  0  0  0  0  0  0  0  0
   -3.3803   -9.6121   45.0410 C   0  0  0  0  0  0  0  0  0  0  0  0
   -3.9349   -8.8561   44.2892 C   0  0  0  0  0  0  0  0  0  0  0  0
   -4.8456   -7.9899   45.1034 C   0  0  0  0  0  0  0  0  0  0  0  0
  4 11  1  0
 11 12  1  0
 12 13  1  0
 13 14  1  0
 14 21  1  6
  9 22  1  0
  7 23  1  0
 23 24  1  0
 23 25  2  0
 12 26  1  1
 24 27  1  0
 27 28  1  0
 28 29  1  0
 29 30  1  0
 31 30  1  6
 31 32  1  0
 31 33  1  0
 33 34  2  0
 32 35  1  0
 34 35  1  0
 14 15  1  0
 15 16  2  0
 16 17  1  0
 17 18  2  0
 18 19  1  0
 19 20  2  0
 20 15  1  0
  1  2  2  0
  3 10  2  0
 10  9  1  0
  9  6  2  0
  6  1  1  0
  2  3  1  0
  3  4  1  0
  4  5  2  0
  5  7  1  0
  7  8  2  0
  8  2  1  0
M  END
$$$$
O14757_PocketFlow_idx-in-all-generaetd-213
     RDKit          3D

 16 18  0  0  0  0  0  0  0  0999 V2000
   -0.6395   -2.0713   41.4947 C   0  0  0  0  0  0  0  0  0  0  0  0
   -0.2671   -3.2464   41.6546 C   0  0  0  0  0  0  0  0  0  0  0  0
    0.2277   -0.9875   41.6495 C   0  0  0  0  0  0  0  0  0  0  0  0
    1.6284   -1.2752   41.8841 C   0  0  0  0  0  0  0  0  0  0  0  0
    1.8971   -2.6873   42.1685 C   0  0  0  0  0  0  0  0  0  0  0  0
    0.9380   -3.6379   42.0922 C   0  0  0  0  0  0  0  0  0  0  0  0
    2.7163   -0.4446   42.1633 C   0  0  0  0  0  0  0  0  0  0  0  0
    2.6677    0.9401   41.8368 C   0  0  0  0  0  0  0  0  0  0  0  0
    4.1010   -0.9769   42.3331 C   0  0  0  0  0  0  0  0  0  0  0  0
    5.1161   -0.0458   42.7966 C   0  0  0  0  0  0  0  0  0  0  0  0
   -2.4277   -1.5700   41.0281 Br  0  0  0  0  0  0  0  0  0  0  0  0
    6.1558   -0.7454   43.5129 C   0  0  0  0  0  0  0  0  0  0  0  0
    5.9187   -2.0027   44.2757 C   0  0  0  0  0  0  0  0  0  0  0  0
    4.7309   -2.7790   43.8889 C   0  0  0  0  0  0  0  0  0  0  0  0
    3.9297   -2.2290   43.1265 C   0  0  0  0  0  0  0  0  0  0  0  0
    2.8050   -2.9345   42.7971 N   0  0  0  0  0  0  0  0  0  0  0  0
  4  7  1  0
  7  8  2  0
  7  9  1  0
  1 11  1  0
  5 16  1  0
 15 16  1  0
  1  2  2  0
  2  6  1  0
  6  5  2  0
  5  4  1  0
  4  3  2  0
  3  1  1  0
  9 10  2  0
 10 12  1  0
 12 13  2  0
 13 14  1  0
 14 15  2  0
 15  9  1  0
M  END
$$$$
O14757_PocketFlow_idx-in-all-generaetd-214
     RDKit          3D

 27 29  0  0  0  0  0  0  0  0999 V2000
   -0.6395   -2.0713   41.4947 C   0  0  0  0  0  0  0  0  0  0  0  0
    0.6719   -2.2449   41.7518 C   0  0  1  0  0  0  0  0  0  0  0  0
    1.1287   -3.3339   42.4778 C   0  0  0  0  0  0  0  0  0  0  0  0
    2.2706   -3.1945   43.3374 C   0  0  0  0  0  0  0  0  0  0  0  0
    2.5833   -4.2041   44.2912 C   0  0  0  0  0  0  0  0  0  0  0  0
    1.6846   -5.2377   44.5960 C   0  0  0  0  0  0  0  0  0  0  0  0
    0.4408   -5.1769   43.8755 C   0  0  0  0  0  0  0  0  0  0  0  0
    0.1489   -4.2667   42.8922 C   0  0  0  0  0  0  0  0  0  0  0  0
   -1.1700   -0.6901   41.3605 C   0  0  0  0  0  0  0  0  0  0  0  0
    3.8057   -4.0105   45.1149 C   0  0  0  0  0  0  0  0  0  0  0  0
    4.7539   -3.1017   44.7997 C   0  0  0  0  0  0  0  0  0  0  0  0
    5.9117   -2.9231   45.5867 C   0  0  0  0  0  0  0  0  0  0  0  0
    6.9732   -1.9810   45.2451 C   0  0  0  0  0  0  0  0  0  0  0  0
    8.1402   -2.0054   46.0443 C   0  0  0  0  0  0  0  0  0  0  0  0
    8.3171   -2.9377   47.0524 C   0  0  0  0  0  0  0  0  0  0  0  0
    7.3200   -3.8662   47.2932 C   0  0  0  0  0  0  0  0  0  0  0  0
    6.1432   -3.8125   46.5811 C   0  0  0  0  0  0  0  0  0  0  0  0
    1.6231   -1.4336   41.1293 C   0  0  0  0  0  0  0  0  0  0  0  0
    4.3088   -5.1648   45.8153 C   0  0  0  0  0  0  0  0  0  0  0  0
    5.2983   -4.9173   46.7833 N   0  0  0  0  0  0  0  0  0  0  0  0
    1.6653    0.0192   41.7392 C   0  0  0  0  0  0  0  0  0  0  0  0
    3.0277    0.5635   41.5732 C   0  0  0  0  0  0  0  0  0  0  0  0
    3.9435   -0.1180   42.4207 C   0  0  0  0  0  0  0  0  0  0  0  0
    5.0914   -0.0365   42.6982 C   0  0  0  0  0  0  0  0  0  0  0  0
    9.2106   -1.0011   45.8124 C   0  0  0  0  0  0  0  0  0  0  0  0
   10.4101   -1.1843   46.3649 O   0  0  0  0  0  0  0  0  0  0  0  0
   -1.3197   -2.8992   40.3990 C   0  0  0  0  0  0  0  0  0  0  0  0
  1  2  1  0
  2  3  1  0
  1  9  1  0
  5 10  1  0
  2 18  1  6
 18 21  1  0
 21 22  1  0
 22 23  2  3
 23 24  1  0
 14 25  1  0
 25 26  1  0
  1 27  1  0
 12 13  2  0
 13 14  1  0
 14 15  2  0
 15 16  1  0
 16 17  2  0
  3  4  2  0
  4  5  1  0
  5  6  2  0
  6  7  1  0
  7  8  2  0
  8  3  1  0
 10 11  2  0
 11 12  1  0
 12 17  1  0
 17 20  1  0
 20 19  2  0
 19 10  1  0
M  END
$$$$
O14757_PocketFlow_idx-in-all-generaetd-215
     RDKit          3D

 15 16  0  0  0  0  0  0  0  0999 V2000
   -0.6395   -2.0713   41.4947 C   0  0  0  0  0  0  0  0  0  0  0  0
   -0.2671   -3.2464   41.6546 C   0  0  0  0  0  0  0  0  0  0  0  0
    0.2277   -0.9875   41.6495 C   0  0  0  0  0  0  0  0  0  0  0  0
    1.6284   -1.2752   41.8841 C   0  0  0  0  0  0  0  0  0  0  0  0
    2.6421   -0.3335   42.0825 C   0  0  0  0  0  0  0  0  0  0  0  0
    3.5603   -0.4309   43.0629 C   0  0  0  0  0  0  0  0  0  0  0  0
    4.1990   -1.5136   42.9839 C   0  0  0  0  0  0  0  0  0  0  0  0
    5.3006   -1.7415   43.9877 C   0  0  0  0  0  0  0  0  0  0  0  0
    1.0866   -3.6354   42.0136 C   0  0  0  0  0  0  0  0  0  0  0  0
    1.9660   -2.5641   42.2322 C   0  0  0  0  0  0  0  0  0  0  0  0
    5.5797   -3.0245   44.5526 C   0  0  0  0  0  0  0  0  0  0  0  0
    6.4662   -3.1284   45.6503 C   0  0  0  0  0  0  0  0  0  0  0  0
    7.3454   -2.0152   45.8554 C   0  0  0  0  0  0  0  0  0  0  0  0
    7.1783   -0.8695   45.1288 C   0  0  0  0  0  0  0  0  0  0  0  0
    6.1925   -0.7145   44.2647 C   0  0  0  0  0  0  0  0  0  0  0  0
  4  5  1  0
  5  6  1  0
  6  7  2  3
  7  8  1  0
  8 11  2  0
 11 12  1  0
 12 13  2  0
 13 14  1  0
 14 15  2  0
 15  8  1  0
  1  2  2  0
  2  9  1  0
  9 10  2  0
 10  4  1  0
  4  3  2  0
  3  1  1  0
M  END
$$$$
O14757_PocketFlow_idx-in-all-generaetd-216
     RDKit          3D

 13 14  0  0  0  0  0  0  0  0999 V2000
   -0.6395   -2.0713   41.4947 C   0  0  0  0  0  0  0  0  0  0  0  0
    0.6719   -2.2449   41.7518 C   0  0  0  0  0  0  0  0  0  0  0  0
    1.5951   -1.1948   41.6106 C   0  0  0  0  0  0  0  0  0  0  0  0
    1.1176    0.0935   41.3870 C   0  0  0  0  0  0  0  0  0  0  0  0
   -1.0854   -0.7301   41.2910 C   0  0  0  0  0  0  0  0  0  0  0  0
   -0.1881    0.2440   41.2399 N   0  0  0  0  0  0  0  0  0  0  0  0
   -2.3819   -0.4677   41.1644 N   0  0  0  0  0  0  0  0  0  0  0  0
    3.0236   -1.4574   41.8671 C   0  0  0  0  0  0  0  0  0  0  0  0
    3.4988   -1.3204   43.2765 Cl  0  0  0  0  0  0  0  0  0  0  0  0
   -3.3255   -1.3507   40.9206 C   0  0  0  0  0  0  0  0  0  0  0  0
   -2.8759   -2.7067   40.8883 N   0  0  0  0  0  0  0  0  0  0  0  0
   -1.6061   -3.0473   41.1970 C   0  0  0  0  0  0  0  0  0  0  0  0
   -4.5749   -1.1842   40.6209 N   0  0  0  0  0  0  0  0  0  0  0  0
  3  8  1  0
  8  9  1  0
 10 13  1  0
  1  2  2  0
  2  3  1  0
  3  4  2  0
  4  6  1  0
  6  5  2  0
  1  5  1  0
  5  7  1  0
  7 10  2  0
 10 11  1  0
 11 12  2  0
 12  1  1  0
M  END
$$$$
O14757_PocketFlow_idx-in-all-generaetd-217
     RDKit          3D

 35 38  0  0  0  0  0  0  0  0999 V2000
    0.2881   -2.9111   42.4378 C   0  0  0  0  0  0  0  0  0  0  0  0
   -0.0650   -2.5021   41.5798 C   0  0  0  0  0  0  0  0  0  0  0  0
    1.6108   -3.5167   42.6657 C   0  0  0  0  0  0  0  0  0  0  0  0
    2.5982   -2.5638   42.1593 C   0  0  0  0  0  0  0  0  0  0  0  0
    2.1662   -1.5345   41.3115 C   0  0  0  0  0  0  0  0  0  0  0  0
    0.8215   -1.4692   41.0175 C   0  0  0  0  0  0  0  0  0  0  0  0
   -1.6439   -2.1069   40.9753 Cl  0  0  0  0  0  0  0  0  0  0  0  0
    1.7822   -4.2913   43.8472 C   0  0  0  0  0  0  0  0  0  0  0  0
    0.9111   -5.3816   44.2000 C   0  0  0  0  0  0  0  0  0  0  0  0
    0.8181   -5.9246   45.1458 C   0  0  0  0  0  0  0  0  0  0  0  0
    0.7616   -5.4350   46.1283 C   0  0  0  0  0  0  0  0  0  0  0  0
    1.5930   -4.2150   46.2905 C   0  0  0  0  0  0  0  0  0  0  0  0
    2.3401   -3.7846   45.1591 C   0  0  0  0  0  0  0  0  0  0  0  0
   -0.0783   -7.2960   45.1162 C   0  0  0  0  0  0  0  0  0  0  0  0
    0.1569   -8.1577   46.0849 N   0  0  0  0  0  0  0  0  0  0  0  0
   -0.8616   -8.8175   46.7347 C   0  0  2  0  0  0  0  0  0  0  0  0
   -2.1148   -8.3575   46.7521 C   0  0  0  0  0  0  0  0  0  0  0  0
   -2.9765   -8.9443   46.0629 C   0  0  0  0  0  0  0  0  0  0  0  0
   -4.0614   -8.2885   45.3501 C   0  0  0  0  0  0  0  0  0  0  0  0
   -4.8672   -8.9819   44.4400 C   0  0  0  0  0  0  0  0  0  0  0  0
   -5.2529   -8.2611   43.2532 C   0  0  0  0  0  0  0  0  0  0  0  0
    1.5496   -8.5802   46.2269 C   0  0  0  0  0  0  0  0  0  0  0  0
    2.6005   -8.0380   45.8122 C   0  0  0  0  0  0  0  0  0  0  0  0
    1.6720   -9.8621   47.0055 C   0  0  0  0  0  0  0  0  0  0  0  0
    0.7134  -10.4634   47.7036 C   0  0  0  0  0  0  0  0  0  0  0  0
   -0.5438   -9.9418   47.5832 C   0  0  0  0  0  0  0  0  0  0  0  0
   -5.9588   -8.6764   42.3758 C   0  0  0  0  0  0  0  0  0  0  0  0
   -6.5615   -9.9298   42.4296 C   0  0  0  0  0  0  0  0  0  0  0  0
   -6.4134  -10.6182   43.6545 C   0  0  0  0  0  0  0  0  0  0  0  0
   -5.5366  -10.0870   44.6321 C   0  0  0  0  0  0  0  0  0  0  0  0
   -0.8734   -7.5595   44.2537 O   0  0  0  0  0  0  0  0  0  0  0  0
   -7.4800  -10.3741   41.4240 C   0  0  0  0  0  0  0  0  0  0  0  0
   -6.9264  -11.3316   40.6108 C   0  0  0  0  0  0  0  0  0  0  0  0
   -6.2647  -12.2887   40.9481 C   0  0  0  0  0  0  0  0  0  0  0  0
   -5.9425  -13.4629   40.1759 C   0  0  0  0  0  0  0  0  0  0  0  0
  2  7  1  0
  3  8  1  0
 10 14  1  0
 14 15  1  0
 15 16  1  0
 16 17  1  0
 17 18  2  3
 18 19  1  0
 19 20  1  0
 15 22  1  0
 22 23  1  0
 22 24  1  0
 16 26  1  1
 25 26  1  0
 14 31  2  0
 28 32  1  0
 32 33  1  0
 33 34  2  3
 34 35  1  0
 25 24  1  0
  1  2  2  0
  2  6  1  0
  6  5  2  0
  5  4  1  0
  4  3  2  0
  3  1  1  0
 20 21  2  0
 21 27  1  0
 27 28  2  0
 28 29  1  0
 29 30  2  0
 30 20  1  0
  8  9  2  0
  9 10  1  0
 10 11  2  0
 11 12  1  0
 12 13  2  0
 13  8  1  0
M  END
$$$$
O14757_PocketFlow_idx-in-all-generaetd-218
     RDKit          3D

 14 16  0  0  0  0  0  0  0  0999 V2000
   -0.6395   -2.0713   41.4947 C   0  0  0  0  0  0  0  0  0  0  0  0
    0.1859   -1.1027   41.5970 C   0  0  0  0  0  0  0  0  0  0  0  0
   -0.2410   -3.3795   41.5297 C   0  0  0  0  0  0  0  0  0  0  0  0
    1.6125   -1.3641   41.8466 C   0  0  0  0  0  0  0  0  0  0  0  0
    1.9568   -2.7213   42.1561 C   0  0  0  0  0  0  0  0  0  0  0  0
    0.9568   -3.6932   42.0424 C   0  0  0  0  0  0  0  0  0  0  0  0
    2.5419   -0.3107   42.1030 C   0  0  0  0  0  0  0  0  0  0  0  0
    3.8498   -0.5462   42.5716 C   0  0  0  0  0  0  0  0  0  0  0  0
    4.1740   -1.7502   43.2541 C   0  0  0  0  0  0  0  0  0  0  0  0
    5.3114   -1.9936   44.0649 C   0  0  0  0  0  0  0  0  0  0  0  0
    5.4017   -3.1739   44.8152 C   0  0  0  0  0  0  0  0  0  0  0  0
    4.4368   -4.1321   44.6885 C   0  0  0  0  0  0  0  0  0  0  0  0
    3.3102   -3.8955   43.9108 C   0  0  0  0  0  0  0  0  0  0  0  0
    3.1446   -2.7258   43.3263 C   0  0  0  0  0  0  0  0  0  0  0  0
  1  2  2  0
  2  4  1  0
  5  6  1  0
  6  3  2  0
  3  1  1  0
  4  5  2  0
  5 14  1  0
  9  8  1  0
  8  7  2  0
  7  4  1  0
  9 10  2  0
 10 11  1  0
 11 12  2  0
 12 13  1  0
 13 14  2  0
 14  9  1  0
M  END
$$$$
O14757_PocketFlow_idx-in-all-generaetd-219
     RDKit          3D

 11 11  0  0  0  0  0  0  0  0999 V2000
   -0.6395   -2.0713   41.4947 C   0  0  0  0  0  0  0  0  0  0  0  0
    0.1859   -1.1027   41.5970 C   0  0  0  0  0  0  0  0  0  0  0  0
    1.5836   -1.3270   41.4669 C   0  0  0  0  0  0  0  0  0  0  0  0
   -0.2462   -3.3905   41.2409 C   0  0  0  0  0  0  0  0  0  0  0  0
    2.0578   -2.6838   41.5381 C   0  0  0  0  0  0  0  0  0  0  0  0
    1.0785   -3.6429   41.2820 C   0  0  0  0  0  0  0  0  0  0  0  0
   -1.9787   -1.8085   41.4778 F   0  0  0  0  0  0  0  0  0  0  0  0
    2.5558   -0.2375   41.7371 C   0  0  0  0  0  0  0  0  0  0  0  0
    2.3875    0.7782   41.1650 F   0  0  0  0  0  0  0  0  0  0  0  0
    3.6448   -0.5126   42.3627 F   0  0  0  0  0  0  0  0  0  0  0  0
   -1.1569   -4.3341   41.1180 F   0  0  0  0  0  0  0  0  0  0  0  0
  1  7  1  0
  3  8  1  0
  8  9  1  0
  8 10  1  0
  4 11  1  0
  1  2  2  0
  2  3  1  0
  3  5  2  0
  5  6  1  0
  6  4  2  0
  4  1  1  0
M  END
$$$$
O14757_PocketFlow_idx-in-all-generaetd-220
     RDKit          3D

 35 37  0  0  0  0  0  0  0  0999 V2000
   -0.6395   -2.0713   41.4947 C   0  0  0  0  0  0  0  0  0  0  0  0
    0.6719   -2.2449   41.7518 C   0  0  0  0  0  0  0  0  0  0  0  0
    1.5951   -1.1948   41.6106 C   0  0  0  0  0  0  0  0  0  0  0  0
    2.8936   -1.2860   42.2441 C   0  0  0  0  0  0  0  0  0  0  0  0
    3.2021   -2.2591   43.1862 C   0  0  0  0  0  0  0  0  0  0  0  0
    4.4778   -2.3024   43.8362 C   0  0  0  0  0  0  0  0  0  0  0  0
    4.9838   -1.5729   44.4529 C   0  0  0  0  0  0  0  0  0  0  0  0
    4.8671   -0.1701   43.8835 C   0  0  0  0  0  0  0  0  0  0  0  0
    3.6309    0.0003   42.6832 C   0  0  0  0  0  0  0  0  0  0  0  0
   -1.1877   -0.7809   41.6572 C   0  0  0  0  0  0  0  0  0  0  0  0
   -2.4802   -0.6774   41.3125 N   0  0  0  0  0  0  0  0  0  0  0  0
    6.3500   -1.5506   45.0104 C   0  0  0  0  0  0  0  0  0  0  0  0
    6.6401   -2.8039   45.8747 C   0  0  0  0  0  0  0  0  0  0  0  0
    5.7112   -3.6951   46.2483 C   0  0  0  0  0  0  0  0  0  0  0  0
    4.3073   -3.5207   46.1400 C   0  0  0  0  0  0  0  0  0  0  0  0
    3.8677   -3.6750   44.8213 C   0  0  2  0  0  0  0  0  0  0  0  0
    6.1750   -4.5543   47.3904 C   0  0  1  0  0  0  0  0  0  0  0  0
    7.5360   -4.7204   48.0596 Cl  0  0  0  0  0  0  0  0  0  0  0  0
    3.1909   -4.7008   44.2876 C   0  0  0  0  0  0  0  0  0  0  0  0
    1.8537   -4.7370   44.6749 C   0  0  0  0  0  0  0  0  0  0  0  0
    1.0231   -5.8629   44.4118 C   0  0  0  0  0  0  0  0  0  0  0  0
    0.8493   -6.8860   45.4377 C   0  0  0  0  0  0  0  0  0  0  0  0
   -0.5265   -7.4133   45.5476 C   0  0  0  0  0  0  0  0  0  0  0  0
   -0.9570   -8.1311   46.6618 C   0  0  0  0  0  0  0  0  0  0  0  0
   -2.1350   -7.7680   47.1897 C   0  0  0  0  0  0  0  0  0  0  0  0
   -3.0165   -8.7446   47.3749 O   0  0  0  0  0  0  0  0  0  0  0  0
   -3.0619   -1.6140   40.6591 C   0  0  0  0  0  0  0  0  0  0  0  0
   -2.6146   -2.8628   40.5592 N   0  0  0  0  0  0  0  0  0  0  0  0
   -1.4265   -3.0672   40.9498 C   0  0  0  0  0  0  0  0  0  0  0  0
   -4.3870   -1.3911   40.2569 N   0  0  0  0  0  0  0  0  0  0  0  0
    5.1150   -5.0118   48.2090 O   0  0  0  0  0  0  0  0  0  0  0  0
   -4.1107   -8.7442   46.6424 C   0  0  0  0  0  0  0  0  0  0  0  0
   -3.8503   -9.2093   45.3085 C   0  0  0  0  0  0  0  0  0  0  0  0
   -4.8633   -9.1313   44.3499 C   0  0  0  0  0  0  0  0  0  0  0  0
   -4.6037   -8.2976   43.1603 C   0  0  0  0  0  0  0  0  0  0  0  0
  1  2  1  0
  2  3  1  0
  3  4  1  0
  7 12  1  0
 12 13  1  0
 13 14  2  0
 14 15  1  0
  6 16  1  0
 15 16  1  0
 14 17  1  0
 17 18  1  0
 16 19  1  6
 19 20  1  0
 20 21  2  3
 21 22  1  0
 22 23  1  0
 23 24  1  0
 24 25  1  0
 25 26  1  0
 27 30  1  0
 17 31  1  1
 26 32  1  0
 32 33  1  0
 33 34  1  0
 34 35  2  0
  1 10  2  0
 10 11  1  0
 11 27  2  0
 27 28  1  0
 28 29  2  0
 29  1  1  0
  4  5  2  0
  5  6  1  0
  6  7  2  0
  7  8  1  0
  8  9  2  0
  9  4  1  0
M  END
$$$$
O14757_PocketFlow_idx-in-all-generaetd-221
     RDKit          3D

 34 36  0  0  0  0  0  0  0  0999 V2000
   -0.8794   -1.9236   41.9357 O   0  0  0  0  0  0  0  0  0  0  0  0
    0.3182   -2.2442   41.7073 C   0  0  1  0  0  0  0  0  0  0  0  0
    1.3766   -1.3498   41.6019 C   0  0  0  0  0  0  0  0  0  0  0  0
    1.0656   -0.0447   41.5628 C   0  0  0  0  0  0  0  0  0  0  0  0
    0.5101   -3.6368   41.6606 N   0  0  0  0  0  0  0  0  0  0  0  0
    2.7055   -1.8469   41.9907 C   0  0  0  0  0  0  0  0  0  0  0  0
    3.3124   -1.5252   43.1695 C   0  0  0  0  0  0  0  0  0  0  0  0
    4.4506   -2.1818   43.6388 C   0  0  0  0  0  0  0  0  0  0  0  0
    4.4621   -3.4349   44.0577 C   0  0  0  0  0  0  0  0  0  0  0  0
    3.2984   -4.2275   44.2421 C   0  0  0  0  0  0  0  0  0  0  0  0
    3.4700   -5.5661   44.7731 C   0  0  0  0  0  0  0  0  0  0  0  0
    3.5025   -5.6578   46.1116 C   0  0  0  0  0  0  0  0  0  0  0  0
    3.9267   -6.9670   46.4754 C   0  0  0  0  0  0  0  0  0  0  0  0
    5.6912   -1.3574   43.7426 C   0  0  0  0  0  0  0  0  0  0  0  0
    6.4205   -1.4594   45.0097 C   0  0  0  0  0  0  0  0  0  0  0  0
    6.2624   -2.4727   45.8233 C   0  0  0  0  0  0  0  0  0  0  0  0
    7.1059   -2.8582   46.8884 C   0  0  0  0  0  0  0  0  0  0  0  0
    6.6739   -3.9115   47.7588 C   0  0  0  0  0  0  0  0  0  0  0  0
    7.4239   -4.3096   48.8410 C   0  0  0  0  0  0  0  0  0  0  0  0
    8.5898   -3.6953   49.1883 C   0  0  0  0  0  0  0  0  0  0  0  0
    9.0961   -2.7076   48.2869 C   0  0  0  0  0  0  0  0  0  0  0  0
    8.3321   -2.3017   47.1532 C   0  0  0  0  0  0  0  0  0  0  0  0
    5.0437   -3.2451   45.5371 C   0  0  0  0  0  0  0  0  0  0  0  0
    4.9036   -7.3306   47.2533 O   0  0  0  0  0  0  0  0  0  0  0  0
    3.2301   -7.9748   46.0139 O   0  0  0  0  0  0  0  0  0  0  0  0
   10.3812   -2.0034   48.6036 C   0  0  0  0  0  0  0  0  0  0  0  0
   10.5105   -1.3728   49.8138 C   0  0  0  0  0  0  0  0  0  0  0  0
   11.5895   -0.6190   50.1411 C   0  0  0  0  0  0  0  0  0  0  0  0
   11.6766    0.1618   51.4038 C   0  0  0  0  0  0  0  0  0  0  0  0
   10.8013    0.2996   52.0410 C   0  0  0  0  0  0  0  0  0  0  0  0
    9.5617   -0.5168   51.9116 C   0  0  0  0  0  0  0  0  0  0  0  0
    9.4284   -1.2129   50.7515 C   0  0  0  0  0  0  0  0  0  0  0  0
   10.8172   -1.1548   47.3727 C   0  0  0  0  0  0  0  0  0  0  0  0
   11.4563   -3.2307   48.7243 C   0  0  0  0  0  0  0  0  0  0  0  0
  1  2  1  0
  2  3  1  0
  3  4  2  0
  2  5  1  1
  3  6  1  0
  6  7  1  0
  7  8  1  0
  9 10  1  0
 10 11  1  0
 11 12  1  0
 12 13  1  0
 16 17  1  0
 13 24  2  0
 13 25  1  0
 21 26  1  0
 26 27  1  0
 26 33  1  0
 26 34  1  0
 17 18  2  0
 18 19  1  0
 19 20  2  0
 20 21  1  0
 21 22  2  0
 22 17  1  0
  8  9  2  0
  9 23  1  0
 23 16  2  0
 16 15  1  0
 15 14  2  0
 14  8  1  0
 27 28  2  0
 28 29  1  0
 29 30  2  0
 30 31  1  0
 31 32  2  0
 32 27  1  0
M  END
$$$$
O14757_PocketFlow_idx-in-all-generaetd-222
     RDKit          3D

 14 15  0  0  0  0  0  0  0  0999 V2000
   -0.6395   -2.0713   41.4947 C   0  0  0  0  0  0  0  0  0  0  0  0
   -0.2671   -3.2464   41.6546 C   0  0  0  0  0  0  0  0  0  0  0  0
    0.2277   -0.9875   41.6495 C   0  0  0  0  0  0  0  0  0  0  0  0
    1.6284   -1.2752   41.8841 C   0  0  0  0  0  0  0  0  0  0  0  0
    1.9209   -2.6657   42.2361 C   0  0  0  0  0  0  0  0  0  0  0  0
    0.9459   -3.6290   42.1337 C   0  0  0  0  0  0  0  0  0  0  0  0
    2.5663   -0.2443   42.1477 C   0  0  0  0  0  0  0  0  0  0  0  0
    3.9004   -0.5388   42.5613 C   0  0  0  0  0  0  0  0  0  0  0  0
    4.8726    0.4822   42.8152 C   0  0  0  0  0  0  0  0  0  0  0  0
   -2.0023   -2.0034   41.1124 N   0  0  0  0  0  0  0  0  0  0  0  0
    4.2803   -1.8688   42.8738 C   0  0  0  0  0  0  0  0  0  0  0  0
    3.2448   -2.8641   42.8006 C   0  0  0  0  0  0  0  0  0  0  0  0
   -3.0028   -1.2737   40.8905 C   0  0  0  0  0  0  0  0  0  0  0  0
   -4.0945   -1.5779   40.2961 N   0  0  0  0  0  0  0  0  0  0  0  0
  8  9  1  0
  1 10  1  0
 10 13  1  0
 13 14  2  3
  1  2  2  0
  2  6  1  0
  6  5  2  0
  4  3  2  0
  3  1  1  0
  4  5  1  0
  5 12  1  0
 12 11  2  0
 11  8  1  0
  8  7  2  0
  7  4  1  0
M  END
$$$$
O14757_PocketFlow_idx-in-all-generaetd-223
     RDKit          3D

 10 10  0  0  0  0  0  0  0  0999 V2000
   -0.6395   -2.0713   41.4947 C   0  0  0  0  0  0  0  0  0  0  0  0
    0.1859   -1.1027   41.5970 C   0  0  0  0  0  0  0  0  0  0  0  0
   -0.2410   -3.3795   41.5297 C   0  0  0  0  0  0  0  0  0  0  0  0
    1.6125   -1.3641   41.8466 C   0  0  0  0  0  0  0  0  0  0  0  0
    2.5720   -0.3568   42.0335 C   0  0  0  0  0  0  0  0  0  0  0  0
    3.8647   -0.6704   42.4195 C   0  0  0  0  0  0  0  0  0  0  0  0
    4.0924   -1.9486   43.0494 C   0  0  0  0  0  0  0  0  0  0  0  0
    2.9708   -2.8562   43.1557 C   0  0  0  0  0  0  0  0  0  0  0  0
    1.7948   -2.4986   42.6210 C   0  0  0  0  0  0  0  0  0  0  0  0
    0.8407   -3.5866   42.3937 C   0  0  0  0  0  0  0  0  0  0  0  0
  1  2  2  3
  1  3  1  0
  2  4  1  0
  3 10  1  0
  4  5  2  0
  5  6  1  0
  6  7  2  0
  7  8  1  0
  8  9  2  0
  9  4  1  0
M  END
$$$$
O14757_PocketFlow_idx-in-all-generaetd-224
     RDKit          3D

 32 36  0  0  0  0  0  0  0  0999 V2000
   -0.6395   -2.0713   41.4947 C   0  0  0  0  0  0  0  0  0  0  0  0
    0.1859   -1.1027   41.5970 C   0  0  0  0  0  0  0  0  0  0  0  0
    1.5836   -1.3270   41.4669 C   0  0  0  0  0  0  0  0  0  0  0  0
    2.5750   -0.4224   42.0442 C   0  0  0  0  0  0  0  0  0  0  0  0
    3.8156   -0.8009   42.5363 C   0  0  0  0  0  0  0  0  0  0  0  0
    4.7058    0.0387   43.2201 C   0  0  0  0  0  0  0  0  0  0  0  0
   -0.1563   -3.3777   41.1253 C   0  0  0  0  0  0  0  0  0  0  0  0
    1.2075   -3.5659   41.0243 C   0  0  0  0  0  0  0  0  0  0  0  0
    2.0731   -2.5435   41.1970 C   0  0  0  0  0  0  0  0  0  0  0  0
   -1.9982   -1.9231   41.6046 O   0  0  0  0  0  0  0  0  0  0  0  0
    5.8316   -0.5440   43.7818 C   0  0  0  0  0  0  0  0  0  0  0  0
    5.7378   -1.8449   44.4204 C   0  0  0  0  0  0  0  0  0  0  0  0
    4.6857   -2.6866   43.8480 C   0  0  0  0  0  0  0  0  0  0  0  0
    3.7708   -2.1735   43.1208 C   0  0  0  0  0  0  0  0  0  0  0  0
    6.8164   -2.3202   45.2755 C   0  0  0  0  0  0  0  0  0  0  0  0
    6.5644   -2.7188   46.5050 C   0  0  1  0  0  0  0  0  0  0  0  0
    5.3191   -3.0933   47.0159 C   0  0  0  0  0  0  0  0  0  0  0  0
    7.7098   -3.2025   47.3439 C   0  0  0  0  0  0  0  0  0  0  0  0
    8.9974   -2.7747   47.0573 C   0  0  0  0  0  0  0  0  0  0  0  0
    9.8688   -2.4218   47.9831 C   0  0  0  0  0  0  0  0  0  0  0  0
    9.6396   -2.8711   49.3293 C   0  0  0  0  0  0  0  0  0  0  0  0
    8.3394   -3.3775   49.6616 C   0  0  0  0  0  0  0  0  0  0  0  0
    7.3538   -3.4676   48.7126 C   0  0  0  0  0  0  0  0  0  0  0  0
    4.2782   -3.1888   46.1444 C   0  0  0  0  0  0  0  0  0  0  0  0
    4.3478   -3.5414   45.0758 C   0  0  1  0  0  0  0  0  0  0  0  0
    4.0024   -4.9205   44.5166 C   0  0  0  0  0  0  0  0  0  0  0  0
    2.4572   -5.2614   44.5928 C   0  0  0  0  0  0  0  0  0  0  0  0
    1.5962   -4.2507   44.6747 C   0  0  0  0  0  0  0  0  0  0  0  0
    0.2050   -4.5197   44.8194 C   0  0  0  0  0  0  0  0  0  0  0  0
   -0.1070   -5.9322   44.8822 C   0  0  0  0  0  0  0  0  0  0  0  0
    0.8280   -6.9228   44.7678 C   0  0  0  0  0  0  0  0  0  0  0  0
    2.1396   -6.5940   44.6919 C   0  0  0  0  0  0  0  0  0  0  0  0
  3  4  1  0
  4  5  1  0
  1 10  1  0
 12 15  1  0
 15 16  1  0
 16 17  1  0
 16 18  1  6
 17 24  2  0
 13 25  1  0
 24 25  1  0
 25 26  1  6
 26 27  1  0
 18 19  2  0
 19 20  1  0
 20 21  2  0
 21 22  1  0
 22 23  2  0
 23 18  1  0
 27 28  2  0
 28 29  1  0
 29 30  2  0
 30 31  1  0
 31 32  2  0
 32 27  1  0
  1  2  2  0
  2  3  1  0
  3  9  2  0
  9  8  1  0
  8  7  2  0
  7  1  1  0
  5  6  2  0
  6 11  1  0
 11 12  2  0
 12 13  1  0
 13 14  2  0
 14  5  1  0
M  END
$$$$
O14757_PocketFlow_idx-in-all-generaetd-225
     RDKit          3D

 15 16  0  0  0  0  0  0  0  0999 V2000
   -0.6395   -2.0713   41.4947 C   0  0  0  0  0  0  0  0  0  0  0  0
   -0.2671   -3.2464   41.6546 C   0  0  0  0  0  0  0  0  0  0  0  0
    0.2277   -0.9875   41.6495 C   0  0  0  0  0  0  0  0  0  0  0  0
    1.6284   -1.2752   41.8841 C   0  0  0  0  0  0  0  0  0  0  0  0
    2.6421   -0.3335   42.0825 C   0  0  0  0  0  0  0  0  0  0  0  0
    3.8980   -0.6935   42.5215 C   0  0  0  0  0  0  0  0  0  0  0  0
    4.0599   -1.4029   43.5550 C   0  0  0  0  0  0  0  0  0  0  0  0
    3.1132   -2.5603   43.7000 C   0  0  0  0  0  0  0  0  0  0  0  0
    1.8104   -2.2407   42.9979 C   0  0  0  0  0  0  0  0  0  0  0  0
    0.9314   -3.5528   42.6455 C   0  0  0  0  0  0  0  0  0  0  0  0
    5.0892   -1.5682   44.5606 C   0  0  0  0  0  0  0  0  0  0  0  0
    5.1874   -2.4090   45.5700 N   0  0  0  0  0  0  0  0  0  0  0  0
    4.2281   -2.9504   46.1842 C   0  0  0  0  0  0  0  0  0  0  0  0
    4.7028   -3.8026   47.2264 C   0  0  0  0  0  0  0  0  0  0  0  0
    6.1218   -3.5520   47.3255 C   0  0  0  0  0  0  0  0  0  0  0  0
  7 11  1  0
 11 12  2  3
 12 13  1  0
 13 14  2  3
 14 15  1  0
  1  2  2  0
  2 10  1  0
 10  9  2  0
  4  3  2  0
  3  1  1  0
  4  5  1  0
  5  6  2  0
  6  7  1  0
  7  8  2  0
  8  9  1  0
  9  4  1  0
M  END
$$$$
O14757_PocketFlow_idx-in-all-generaetd-226
     RDKit          3D

 18 19  0  0  0  0  0  0  0  0999 V2000
   -0.6395   -2.0713   41.4947 C   0  0  0  0  0  0  0  0  0  0  0  0
   -0.2671   -3.2464   41.6546 C   0  0  0  0  0  0  0  0  0  0  0  0
    0.2277   -0.9875   41.6495 C   0  0  0  0  0  0  0  0  0  0  0  0
    1.6284   -1.2752   41.8841 C   0  0  0  0  0  0  0  0  0  0  0  0
    1.9209   -2.6657   42.2361 C   0  0  0  0  0  0  0  0  0  0  0  0
    0.9459   -3.6290   42.1337 C   0  0  0  0  0  0  0  0  0  0  0  0
    2.5663   -0.2443   42.1477 C   0  0  0  0  0  0  0  0  0  0  0  0
    3.9004   -0.5388   42.5613 C   0  0  0  0  0  0  0  0  0  0  0  0
    4.1674   -1.7913   43.1599 C   0  0  0  0  0  0  0  0  0  0  0  0
    3.1445   -2.8565   42.9696 C   0  0  0  0  0  0  0  0  0  0  0  0
    5.4136   -2.0640   43.8033 C   0  0  0  0  0  0  0  0  0  0  0  0
    5.6520   -2.2947   44.8139 C   0  0  0  0  0  0  0  0  0  0  0  0
    4.7717   -2.8746   45.8907 C   0  0  0  0  0  0  0  0  0  0  0  0
    5.2668   -3.3485   47.1518 C   0  0  0  0  0  0  0  0  0  0  0  0
    6.4247   -3.9913   47.1525 C   0  0  0  0  0  0  0  0  0  0  0  0
    6.8488   -4.5231   48.4756 C   0  0  0  0  0  0  0  0  0  0  0  0
    7.5461   -5.5751   48.5266 C   0  0  0  0  0  0  0  0  0  0  0  0
   -1.9048   -1.7255   41.0554 O   0  0  0  0  0  0  0  0  0  0  0  0
  9 11  1  0
 11 12  2  3
 12 13  1  0
 13 14  2  3
 14 15  1  0
 15 16  1  0
 16 17  1  0
  1 18  1  0
  5 10  1  0
 10  9  2  0
  9  8  1  0
  8  7  2  0
  7  4  1  0
  1  2  2  0
  2  6  1  0
  6  5  2  0
  5  4  1  0
  4  3  2  0
  3  1  1  0
M  END
$$$$
O14757_PocketFlow_idx-in-all-generaetd-227
     RDKit          3D

 35 40  0  0  0  0  0  0  0  0999 V2000
    0.2881   -2.9111   42.4378 C   0  0  0  0  0  0  0  0  0  0  0  0
    1.1784   -3.4293   42.9321 C   0  0  0  0  0  0  0  0  0  0  0  0
    2.4507   -2.7243   42.9621 C   0  0  2  0  0  0  0  0  0  0  0  0
    3.6020   -3.2282   43.7398 C   0  0  0  0  0  0  0  0  0  0  0  0
    3.4876   -4.4021   44.5035 C   0  0  0  0  0  0  0  0  0  0  0  0
    2.2145   -4.9885   44.5455 C   0  0  0  0  0  0  0  0  0  0  0  0
    1.1074   -4.5172   43.9067 C   0  0  0  0  0  0  0  0  0  0  0  0
    0.3530   -1.6499   41.7106 C   0  0  0  0  0  0  0  0  0  0  0  0
    1.5895   -0.9717   41.6714 C   0  0  0  0  0  0  0  0  0  0  0  0
    2.6367   -1.4787   42.3415 C   0  0  0  0  0  0  0  0  0  0  0  0
    3.9706   -1.0010   42.5204 C   0  0  0  0  0  0  0  0  0  0  0  0
    4.6260   -0.7867   43.4736 C   0  0  0  0  0  0  0  0  0  0  0  0
    4.6813   -2.1637   44.3052 C   0  0  2  0  0  0  0  0  0  0  0  0
    5.6215   -2.4455   45.2723 C   0  0  0  0  0  0  0  0  0  0  0  0
    6.8786   -1.8963   45.2253 C   0  0  0  0  0  0  0  0  0  0  0  0
    7.9059   -2.1789   46.1888 C   0  0  0  0  0  0  0  0  0  0  0  0
    7.7447   -3.2842   47.0189 C   0  0  0  0  0  0  0  0  0  0  0  0
    6.4072   -3.8485   47.0540 C   0  0  1  0  0  0  0  0  0  0  0  0
    5.4014   -3.4889   46.1684 C   0  0  0  0  0  0  0  0  0  0  0  0
    6.1466   -4.9680   48.0382 C   0  0  0  0  0  0  0  0  0  0  0  0
    6.5580   -4.7683   49.3229 N   0  0  0  0  0  0  0  0  0  0  0  0
    5.4456   -5.9284   47.7236 O   0  0  0  0  0  0  0  0  0  0  0  0
    9.2204   -1.5180   46.0878 C   0  0  0  0  0  0  0  0  0  0  0  0
    9.1253   -0.3179   45.8681 F   0  0  0  0  0  0  0  0  0  0  0  0
    9.7538   -1.5644   47.4504 F   0  0  0  0  0  0  0  0  0  0  0  0
   10.0674   -2.0758   45.3606 F   0  0  0  0  0  0  0  0  0  0  0  0
    2.3135   -6.3773   45.0818 C   0  0  0  0  0  0  0  0  0  0  0  0
    1.2931   -7.0988   45.1857 N   0  0  0  0  0  0  0  0  0  0  0  0
    1.1552   -8.0309   46.1977 C   0  0  0  0  0  0  0  0  0  0  0  0
   -0.1203   -8.5724   46.3881 C   0  0  2  0  0  0  0  0  0  0  0  0
   -1.2252   -7.9555   45.8788 C   0  0  0  0  0  0  0  0  0  0  0  0
   -1.0348   -7.3070   44.6207 C   0  0  0  0  0  0  0  0  0  0  0  0
    0.2228   -6.6764   44.3883 C   0  0  1  0  0  0  0  0  0  0  0  0
    0.2486   -5.4886   43.6766 C   0  0  0  0  0  0  0  0  0  0  0  0
   -0.2965   -9.5163   47.5223 C   0  0  0  0  0  0  0  0  0  0  0  0
  1  2  2  0
  2  3  1  0
  3  4  1  0
  4  5  2  0
  5  6  1  0
  2  7  1  0
  6  7  2  0
  1  8  1  0
  8  9  2  0
  3 10  1  1
  9 10  1  0
 10 11  1  0
 11 12  2  0
  4 13  1  0
 12 13  1  0
 13 14  1  6
 14 15  2  0
 15 16  1  0
 16 17  2  0
 17 18  1  0
 14 19  1  0
 18 19  1  0
 18 20  1  6
 20 21  1  0
 20 22  2  0
 16 23  1  0
 23 24  1  0
 23 25  1  0
 23 26  1  0
  6 27  1  0
 27 28  1  0
 28 29  1  0
 29 30  1  0
 30 31  1  0
 31 32  1  0
 28 33  1  0
 33 32  1  1
  7 34  1  0
 33 34  1  0
 30 35  1  1
M  END
$$$$
O14757_PocketFlow_idx-in-all-generaetd-228
     RDKit          3D

 13 14  0  0  0  0  0  0  0  0999 V2000
   -0.6395   -2.0713   41.4947 C   0  0  0  0  0  0  0  0  0  0  0  0
    0.6719   -2.2449   41.7518 C   0  0  0  0  0  0  0  0  0  0  0  0
    1.5951   -1.1948   41.6106 C   0  0  0  0  0  0  0  0  0  0  0  0
    2.8936   -1.2860   42.2441 C   0  0  0  0  0  0  0  0  0  0  0  0
    3.7940   -0.2219   42.2897 C   0  0  0  0  0  0  0  0  0  0  0  0
   -1.5413   -3.1234   41.4338 C   0  0  0  0  0  0  0  0  0  0  0  0
    5.0120   -0.3694   42.9827 C   0  0  0  0  0  0  0  0  0  0  0  0
    5.3025   -1.4947   43.7553 C   0  0  0  0  0  0  0  0  0  0  0  0
    4.3310   -2.5622   43.7178 C   0  0  0  0  0  0  0  0  0  0  0  0
    3.1286   -2.4010   43.0159 C   0  0  0  0  0  0  0  0  0  0  0  0
   -0.9010   -4.3604   41.4446 N   0  0  0  0  0  0  0  0  0  0  0  0
    2.1255   -3.4176   43.0785 C   0  0  0  0  0  0  0  0  0  0  0  0
    0.8621   -3.2647   42.6144 C   0  0  0  0  0  0  0  0  0  0  0  0
  1  2  1  0
  1  6  2  0
  6 11  2  0
  4  5  2  0
  5  7  1  0
  7  8  2  0
  8  9  1  0
  9 10  2  0
  2  3  2  0
  3  4  1  0
  4 10  1  0
 10 12  1  0
 12 13  2  0
 13  2  1  0
M  END
$$$$
O14757_PocketFlow_idx-in-all-generaetd-229
     RDKit          3D

 13 14  0  0  0  0  0  0  0  0999 V2000
   -0.6395   -2.0713   41.4947 C   0  0  0  0  0  0  0  0  0  0  0  0
   -0.2671   -3.2464   41.6546 C   0  0  0  0  0  0  0  0  0  0  0  0
    0.2277   -0.9875   41.6495 C   0  0  0  0  0  0  0  0  0  0  0  0
    1.6284   -1.2752   41.8841 C   0  0  0  0  0  0  0  0  0  0  0  0
    1.9209   -2.6657   42.2361 C   0  0  0  0  0  0  0  0  0  0  0  0
    3.1938   -2.8774   42.9001 C   0  0  0  0  0  0  0  0  0  0  0  0
    0.9832   -3.6161   42.1007 C   0  0  0  0  0  0  0  0  0  0  0  0
    3.9549   -1.8054   43.1446 C   0  0  0  0  0  0  0  0  0  0  0  0
    5.1817   -1.9479   43.9090 C   0  0  0  0  0  0  0  0  0  0  0  0
    5.3646   -3.1016   44.6835 C   0  0  0  0  0  0  0  0  0  0  0  0
    4.4285   -4.1294   44.5447 C   0  0  0  0  0  0  0  0  0  0  0  0
    3.3277   -3.9654   43.7763 C   0  0  0  0  0  0  0  0  0  0  0  0
   -2.0443   -1.7416   41.0628 C   0  0  0  0  0  0  0  0  0  0  0  0
  5  6  1  0
  1 13  1  0
  1  2  2  0
  2  7  1  0
  7  5  2  0
  5  4  1  0
  4  3  2  0
  3  1  1  0
  6  8  2  0
  8  9  1  0
  9 10  2  0
 10 11  1  0
 11 12  2  0
 12  6  1  0
M  END
$$$$
O14757_PocketFlow_idx-in-all-generaetd-230
     RDKit          3D

 23 26  0  0  0  0  0  0  0  0999 V2000
   -0.6770   -2.0561   41.5845 Cl  0  0  0  0  0  0  0  0  0  0  0  0
    0.8348   -2.3079   42.0606 C   0  0  0  0  0  0  0  0  0  0  0  0
    1.1818   -3.2520   42.9667 C   0  0  0  0  0  0  0  0  0  0  0  0
    2.4247   -3.2903   43.4940 C   0  0  0  0  0  0  0  0  0  0  0  0
    3.3796   -2.3512   43.1591 C   0  0  0  0  0  0  0  0  0  0  0  0
    3.0240   -1.2720   42.4123 C   0  0  0  0  0  0  0  0  0  0  0  0
    1.7744   -1.3045   41.8324 C   0  0  0  0  0  0  0  0  0  0  0  0
    4.7736   -2.2424   43.7120 C   0  0  0  0  0  0  0  0  0  0  0  0
    5.2412   -3.2092   44.6561 C   0  0  0  0  0  0  0  0  0  0  0  0
    6.4774   -2.9806   45.2760 C   0  0  0  0  0  0  0  0  0  0  0  0
    7.1312   -1.6707   45.1503 C   0  0  0  0  0  0  0  0  0  0  0  0
    5.4268   -0.9881   43.7447 C   0  0  0  0  0  0  0  0  0  0  0  0
    6.5893   -0.7720   44.4221 N   0  0  0  0  0  0  0  0  0  0  0  0
    8.2953   -1.4306   45.7889 N   0  0  0  0  0  0  0  0  0  0  0  0
    1.4237   -0.2818   40.9947 F   0  0  0  0  0  0  0  0  0  0  0  0
    0.1253   -4.5782   43.3799 Cl  0  0  0  0  0  0  0  0  0  0  0  0
    8.9276   -2.3097   46.6841 C   0  0  0  0  0  0  0  0  0  0  0  0
    9.8631   -2.2749   47.1769 C   0  0  0  0  0  0  0  0  0  0  0  0
   10.4671   -3.2528   48.1031 C   0  0  0  0  0  0  0  0  0  0  0  0
    8.3691   -3.6146   46.8691 C   0  0  0  0  0  0  0  0  0  0  0  0
    8.9048   -4.5743   47.6096 C   0  0  0  0  0  0  0  0  0  0  0  0
    9.9970   -4.3667   48.2752 C   0  0  0  0  0  0  0  0  0  0  0  0
    7.0377   -3.8740   46.1048 C   0  0  0  0  0  0  0  0  0  0  0  0
  1  2  1  0
  5  8  1  0
  7 15  1  0
  3 16  1  0
 11 14  2  0
 14 17  1  0
 20 23  1  0
 23 10  2  0
  2  3  2  0
  3  4  1  0
  4  5  2  0
  5  6  1  0
  6  7  2  0
  7  2  1  0
 17 18  2  0
 18 19  1  0
 19 22  2  0
 22 21  1  0
 21 20  2  0
 20 17  1  0
  8  9  2  0
  9 10  1  0
 10 11  1  0
 11 13  1  0
 13 12  2  0
 12  8  1  0
M  END
$$$$
O14757_PocketFlow_idx-in-all-generaetd-231
     RDKit          3D

 28 30  0  0  0  0  0  0  0  0999 V2000
   -0.8794   -1.9236   41.9357 O   0  0  0  0  0  0  0  0  0  0  0  0
    0.3070   -1.6014   41.6735 C   0  0  0  0  0  0  0  0  0  0  0  0
    1.2548   -2.6723   41.5755 C   0  0  0  0  0  0  0  0  0  0  0  0
    2.4147   -2.3743   42.2522 C   0  0  0  0  0  0  0  0  0  0  0  0
    3.0145   -1.7170   42.7854 C   0  0  0  0  0  0  0  0  0  0  0  0
    4.2287   -1.7621   43.5770 C   0  0  0  0  0  0  0  0  0  0  0  0
    5.1463   -0.7338   43.8125 C   0  0  0  0  0  0  0  0  0  0  0  0
    4.7869    0.4879   43.1017 C   0  0  0  0  0  0  0  0  0  0  0  0
    3.1745   -0.2469   42.1764 C   0  0  1  0  0  0  0  0  0  0  0  0
    2.8666    0.6746   41.7428 O   0  0  0  0  0  0  0  0  0  0  0  0
    4.2513    0.0485   42.3923 O   0  0  0  0  0  0  0  0  0  0  0  0
    4.4148   -3.0590   44.4306 C   0  0  0  0  0  0  0  0  0  0  0  0
    5.2507   -3.0984   45.5252 C   0  0  0  0  0  0  0  0  0  0  0  0
    5.1854   -4.1509   46.4164 C   0  0  0  0  0  0  0  0  0  0  0  0
    6.0084   -4.1516   47.6391 C   0  0  0  0  0  0  0  0  0  0  0  0
    7.2836   -3.5411   47.6178 C   0  0  0  0  0  0  0  0  0  0  0  0
    7.4962   -2.6536   46.4654 C   0  0  0  0  0  0  0  0  0  0  0  0
    6.5582   -2.4787   45.4497 C   0  0  0  0  0  0  0  0  0  0  0  0
    8.7942   -1.9641   46.4936 C   0  0  0  0  0  0  0  0  0  0  0  0
    8.9937   -0.7286   46.0032 C   0  0  0  0  0  0  0  0  0  0  0  0
    9.9007   -2.7379   47.0373 C   0  0  0  0  0  0  0  0  0  0  0  0
   11.1838   -2.4019   46.7480 C   0  0  0  0  0  0  0  0  0  0  0  0
   10.3662   -0.2307   46.0232 C   0  0  0  0  0  0  0  0  0  0  0  0
   11.4086   -1.0364   46.3694 C   0  0  0  0  0  0  0  0  0  0  0  0
   -1.8550   -1.7501   40.9105 C   0  0  0  0  0  0  0  0  0  0  0  0
   -2.8701   -2.7766   40.9524 C   0  0  0  0  0  0  0  0  0  0  0  0
   -3.7654   -2.5910   39.9937 O   0  0  0  0  0  0  0  0  0  0  0  0
    3.6738   -4.9667   46.5526 Cl  0  0  0  0  0  0  0  0  0  0  0  0
  1  2  1  0
  2  3  1  0
  3  4  1  0
  4  5  2  3
  5  6  1  0
  6  7  2  0
  7  8  1  0
  5  9  1  0
  9 10  1  1
  8 11  1  0
  9 11  1  0
  6 12  1  0
 12 13  1  0
 17 19  1  0
  1 25  1  0
 25 26  1  0
 26 27  1  0
 14 28  1  0
 19 20  2  0
 20 23  1  0
 23 24  2  0
 24 22  1  0
 22 21  2  0
 21 19  1  0
 13 14  2  0
 14 15  1  0
 15 16  2  0
 16 17  1  0
 17 18  2  0
 18 13  1  0
M  END
$$$$
O14757_PocketFlow_idx-in-all-generaetd-232
     RDKit          3D

  5  4  0  0  0  0  0  0  0  0999 V2000
   -0.6770   -2.0561   41.5845 Cl  0  0  0  0  0  0  0  0  0  0  0  0
    0.3848   -3.0618   41.9511 C   0  0  0  0  0  0  0  0  0  0  0  0
    1.6487   -2.6690   42.3503 C   0  0  0  0  0  0  0  0  0  0  0  0
    2.0740   -1.4696   42.1305 C   0  0  0  0  0  0  0  0  0  0  0  0
    1.2406   -0.4982   41.4639 C   0  0  0  0  0  0  0  0  0  0  0  0
  1  2  1  0
  2  3  1  0
  3  4  2  3
  4  5  1  0
M  END
$$$$
O14757_PocketFlow_idx-in-all-generaetd-233
     RDKit          3D

 33 36  0  0  0  0  0  0  0  0999 V2000
   -0.6702   -2.0741   41.4972 P   0  0  0  0  0  0  0  0  0  0  0  0
    0.2414   -2.3770   42.0200 O   0  0  0  0  0  0  0  0  0  0  0  0
   -1.2481   -2.9385   40.4916 O   0  0  0  0  0  0  0  0  0  0  0  0
   -0.5223   -0.7030   40.6724 O   0  0  0  0  0  0  0  0  0  0  0  0
    0.3650   -3.4982   42.9282 C   0  0  0  0  0  0  0  0  0  0  0  0
    1.6899   -3.3081   43.8277 C   0  0  0  0  0  0  0  0  0  0  0  0
    1.8879   -4.3605   44.7799 C   0  0  0  0  0  0  0  0  0  0  0  0
    3.0438   -4.2214   45.5545 C   0  0  0  0  0  0  0  0  0  0  0  0
    4.0566   -3.2714   45.2183 C   0  0  0  0  0  0  0  0  0  0  0  0
    3.8338   -2.4260   44.1154 C   0  0  0  0  0  0  0  0  0  0  0  0
    2.6914   -2.5101   43.3864 C   0  0  0  0  0  0  0  0  0  0  0  0
    4.8832   -1.4496   43.7874 C   0  0  0  0  0  0  0  0  0  0  0  0
    4.8715   -0.2438   44.3673 C   0  0  0  0  0  0  0  0  0  0  0  0
   -1.9242   -1.7551   42.4583 O   0  0  0  0  0  0  0  0  0  0  0  0
    5.3066   -3.2136   46.0161 C   0  0  0  0  0  0  0  0  0  0  0  0
    5.4911   -4.1600   47.1149 C   0  0  0  0  0  0  0  0  0  0  0  0
    6.5064   -3.8305   48.0488 C   0  0  0  0  0  0  0  0  0  0  0  0
    7.6848   -3.2751   47.6804 C   0  0  0  0  0  0  0  0  0  0  0  0
    7.6312   -2.4943   46.3887 C   0  0  0  0  0  0  0  0  0  0  0  0
    6.4412   -2.5182   45.6258 C   0  0  0  0  0  0  0  0  0  0  0  0
    1.1159   -5.4411   45.0721 C   0  0  0  0  0  0  0  0  0  0  0  0
   -0.0497   -5.3519   45.9022 C   0  0  0  0  0  0  0  0  0  0  0  0
   -0.8824   -6.4164   46.2652 C   0  0  0  0  0  0  0  0  0  0  0  0
   -0.9641   -7.4907   45.3472 C   0  0  0  0  0  0  0  0  0  0  0  0
    0.0002   -7.4594   44.2903 C   0  0  0  0  0  0  0  0  0  0  0  0
    0.9895   -6.5209   44.1690 C   0  0  0  0  0  0  0  0  0  0  0  0
   -1.9079   -8.5267   45.4951 C   0  0  0  0  0  0  0  0  0  0  0  0
   -3.0711   -8.5266   44.6835 N   0  0  0  0  0  0  0  0  0  0  0  0
   -3.2892   -7.7244   43.6809 C   0  0  0  0  0  0  0  0  0  0  0  0
   -4.5019   -7.9991   43.0260 N   0  0  0  0  0  0  0  0  0  0  0  0
   -4.0175   -9.6003   44.7889 C   0  0  0  0  0  0  0  0  0  0  0  0
   -4.8970   -9.1096   43.7428 C   0  0  0  0  0  0  0  0  0  0  0  0
   -1.6989   -9.3905   46.3938 O   0  0  0  0  0  0  0  0  0  0  0  0
  1  2  1  0
  1  3  2  0
  1  4  1  0
  2  5  1  0
  5  6  1  0
 10 12  1  0
 12 13  1  0
  1 14  1  0
  9 15  1  0
  7 21  1  0
 24 27  1  0
 27 28  1  0
 28 29  1  0
 29 30  2  0
 28 31  1  0
 30 32  1  0
 31 32  2  0
 27 33  2  0
 15 16  2  0
 16 17  1  0
 17 18  2  0
 18 19  1  0
 19 20  2  0
 20 15  1  0
  6  7  2  0
  7  8  1  0
  8  9  2  0
  9 10  1  0
 10 11  2  0
 11  6  1  0
 21 22  2  0
 22 23  1  0
 23 24  2  0
 24 25  1  0
 25 26  2  0
 26 21  1  0
M  END
$$$$
O14757_PocketFlow_idx-in-all-generaetd-234
     RDKit          3D

 14 15  0  0  0  0  0  0  0  0999 V2000
   -0.6395   -2.0713   41.4947 C   0  0  0  0  0  0  0  0  0  0  0  0
   -0.2671   -3.2464   41.6546 C   0  0  0  0  0  0  0  0  0  0  0  0
   -2.0053   -1.6706   41.3987 C   0  0  0  0  0  0  0  0  0  0  0  0
   -2.8330   -2.6263   40.7760 C   0  0  0  0  0  0  0  0  0  0  0  0
    1.1099   -3.6129   41.9114 C   0  0  0  0  0  0  0  0  0  0  0  0
    1.9434   -2.5225   42.1864 C   0  0  0  0  0  0  0  0  0  0  0  0
    1.4810   -1.1988   42.1414 C   0  0  0  0  0  0  0  0  0  0  0  0
    0.1562   -0.9259   41.8221 C   0  0  0  0  0  0  0  0  0  0  0  0
    2.6359    0.0986   42.3521 Cl  0  0  0  0  0  0  0  0  0  0  0  0
   -2.1072   -3.4895   40.1615 C   0  0  0  0  0  0  0  0  0  0  0  0
   -0.9614   -4.0891   40.7682 C   0  0  0  0  0  0  0  0  0  0  0  0
    3.4653   -2.8581   42.8659 Cl  0  0  0  0  0  0  0  0  0  0  0  0
   -2.4985   -0.4692   41.6662 O   0  0  0  0  0  0  0  0  0  0  0  0
   -4.0131   -2.2584   40.3608 O   0  0  0  0  0  0  0  0  0  0  0  0
  7  9  1  0
  6 12  1  0
  3 13  1  0
  4 14  1  0
  2 11  1  0
 11 10  2  0
 10  4  1  0
  4  3  2  0
  3  1  1  0
  1  2  2  0
  2  5  1  0
  5  6  2  0
  6  7  1  0
  7  8  2  0
  8  1  1  0
M  END
$$$$
O14757_PocketFlow_idx-in-all-generaetd-235
     RDKit          3D

 11 11  0  0  0  0  0  0  0  0999 V2000
   -0.6395   -2.0713   41.4947 C   0  0  0  0  0  0  0  0  0  0  0  0
   -0.2671   -3.2464   41.6546 C   0  0  0  0  0  0  0  0  0  0  0  0
   -2.0053   -1.6706   41.3987 C   0  0  0  0  0  0  0  0  0  0  0  0
   -2.3187   -0.3966   41.5492 O   0  0  0  0  0  0  0  0  0  0  0  0
    0.6088   -3.5822   42.7432 C   0  0  0  0  0  0  0  0  0  0  0  0
    0.4310   -4.4360   43.8071 C   0  0  0  0  0  0  0  0  0  0  0  0
    1.5064   -4.4399   44.7944 C   0  0  0  0  0  0  0  0  0  0  0  0
    1.4304   -5.2581   45.9623 C   0  0  0  0  0  0  0  0  0  0  0  0
    2.6210   -3.6105   44.4866 C   0  0  0  0  0  0  0  0  0  0  0  0
    2.7863   -2.7734   43.4848 C   0  0  0  0  0  0  0  0  0  0  0  0
    1.8316   -2.7472   42.5722 C   0  0  0  0  0  0  0  0  0  0  0  0
  1  2  1  0
  1  3  1  0
  3  4  1  0
  2  5  1  0
  8  7  1  0
  5  6  2  0
  6  7  1  0
  7  9  2  0
  9 10  1  0
 10 11  2  0
 11  5  1  0
M  END
$$$$
O14757_PocketFlow_idx-in-all-generaetd-236
     RDKit          3D

 24 24  0  0  0  0  0  0  0  0999 V2000
   -0.6395   -2.0713   41.4947 C   0  0  2  0  0  0  0  0  0  0  0  0
    0.6719   -2.2449   41.7518 C   0  0  0  0  0  0  0  0  0  0  0  0
    1.1287   -3.3339   42.4778 C   0  0  0  0  0  0  0  0  0  0  0  0
    0.1404   -4.2568   42.9148 C   0  0  0  0  0  0  0  0  0  0  0  0
    0.6714   -5.1944   43.7817 F   0  0  0  0  0  0  0  0  0  0  0  0
   -1.0621   -0.8816   40.8231 C   0  0  0  0  0  0  0  0  0  0  0  0
   -2.5040   -0.7040   40.9542 C   0  0  0  0  0  0  0  0  0  0  0  0
   -3.1115    0.4758   40.6959 C   0  0  0  0  0  0  0  0  0  0  0  0
    1.5257   -1.1042   41.4786 C   0  0  0  0  0  0  0  0  0  0  0  0
    2.2385   -0.4949   42.5684 C   0  0  0  0  0  0  0  0  0  0  0  0
    3.3124    0.4543   42.2302 C   0  0  0  0  0  0  0  0  0  0  0  0
   -0.8322   -3.7424   43.4174 F   0  0  0  0  0  0  0  0  0  0  0  0
   -4.6183    0.4456   40.9251 C   0  0  0  0  0  0  0  0  0  0  0  0
   -0.3020   -4.9188   41.7727 F   0  0  0  0  0  0  0  0  0  0  0  0
   -5.1721   -0.8186   40.6023 C   0  0  0  0  0  0  0  0  0  0  0  0
   -4.3129   -1.8194   40.0452 C   0  0  0  0  0  0  0  0  0  0  0  0
   -3.0097   -1.7974   40.2848 C   0  0  0  0  0  0  0  0  0  0  0  0
    4.3504    0.5755   43.0981 N   0  0  0  0  0  0  0  0  0  0  0  0
    5.0609   -0.5799   43.4560 C   0  0  0  0  0  0  0  0  0  0  0  0
    4.8724   -1.6060   43.0255 O   0  0  0  0  0  0  0  0  0  0  0  0
    6.0807   -0.2426   44.2061 F   0  0  0  0  0  0  0  0  0  0  0  0
   -2.4320   -2.9748   40.1685 O   0  0  0  0  0  0  0  0  0  0  0  0
   -1.1680   -3.3422   40.3229 Cl  0  0  0  0  0  0  0  0  0  0  0  0
   -1.5201   -2.0334   42.5072 F   0  0  0  0  0  0  0  0  0  0  0  0
  1  2  1  0
  2  3  2  3
  3  4  1  0
  4  5  1  0
  1  6  1  0
  2  9  1  0
  9 10  1  0
 10 11  1  0
  4 12  1  0
  4 14  1  0
 11 18  1  0
 18 19  1  0
 19 20  2  0
 19 21  1  0
 17 22  1  0
 22 23  1  0
  1 24  1  1
  6  7  1  0
  7  8  2  0
  8 13  1  0
 13 15  2  0
 15 16  1  0
 16 17  2  0
 17  7  1  0
M  END
$$$$
O14757_PocketFlow_idx-in-all-generaetd-237
     RDKit          3D

 18 18  0  0  0  0  0  0  0  0999 V2000
    0.0138   -2.7927   42.5918 N   0  0  0  0  0  0  0  0  0  0  0  0
   -0.1707   -2.5494   41.4965 C   0  0  0  0  0  0  0  0  0  0  0  0
    1.2399   -3.4297   42.9825 C   0  0  0  0  0  0  0  0  0  0  0  0
    1.2714   -4.3030   44.0659 C   0  0  0  0  0  0  0  0  0  0  0  0
    1.7648   -4.1362   45.0482 C   0  0  0  0  0  0  0  0  0  0  0  0
    3.0884   -3.2982   45.0891 C   0  0  0  0  0  0  0  0  0  0  0  0
    3.2664   -2.5107   43.8746 C   0  0  0  0  0  0  0  0  0  0  0  0
    4.4323   -1.7442   43.6973 C   0  0  0  0  0  0  0  0  0  0  0  0
    2.3164   -2.5310   43.0194 C   0  0  0  0  0  0  0  0  0  0  0  0
    4.6651   -0.5926   44.1891 C   0  0  0  0  0  0  0  0  0  0  0  0
   -1.3391   -2.1121   41.0781 O   0  0  0  0  0  0  0  0  0  0  0  0
    0.6865   -2.7102   40.5179 O   0  0  0  0  0  0  0  0  0  0  0  0
    5.7866    0.0630   43.7562 N   0  0  0  0  0  0  0  0  0  0  0  0
    3.9224   -3.3079   46.0428 F   0  0  0  0  0  0  0  0  0  0  0  0
    0.0179   -5.2666   44.0644 C   0  0  0  0  0  0  0  0  0  0  0  0
    0.3161   -6.2111   43.2152 O   0  0  0  0  0  0  0  0  0  0  0  0
    5.3668   -2.2683   42.9523 O   0  0  0  0  0  0  0  0  0  0  0  0
   -0.7183   -5.3886   44.9543 O   0  0  0  0  0  0  0  0  0  0  0  0
  1  2  1  0
  1  3  1  0
  7  8  1  0
  8 10  1  0
  2 11  2  0
  2 12  1  0
 10 13  1  0
  6 14  1  0
  4 15  1  0
 15 16  1  0
  8 17  2  0
 15 18  2  0
  3  4  2  0
  4  5  1  0
  5  6  2  0
  6  7  1  0
  7  9  2  0
  9  3  1  0
M  END
$$$$
O14757_PocketFlow_idx-in-all-generaetd-238
     RDKit          3D

 24 27  0  0  0  0  0  0  0  0999 V2000
   -0.8794   -1.9236   41.9357 O   0  0  0  0  0  0  0  0  0  0  0  0
    0.3070   -1.6014   41.6735 C   0  0  0  0  0  0  0  0  0  0  0  0
    1.2176   -1.8259   42.4685 C   0  0  0  0  0  0  0  0  0  0  0  0
    2.6471   -1.5469   42.2528 C   0  0  0  0  0  0  0  0  0  0  0  0
    3.6389   -1.8734   43.1543 C   0  0  0  0  0  0  0  0  0  0  0  0
    3.4948   -2.7935   44.1581 C   0  0  0  0  0  0  0  0  0  0  0  0
    2.1560   -3.3448   44.3146 C   0  0  0  0  0  0  0  0  0  0  0  0
    1.8482   -4.3411   45.2149 C   0  0  0  0  0  0  0  0  0  0  0  0
    1.1225   -2.9233   43.4609 C   0  0  0  0  0  0  0  0  0  0  0  0
    1.7704   -5.5335   45.0490 C   0  0  0  0  0  0  0  0  0  0  0  0
    0.5175   -6.2591   45.2889 C   0  0  0  0  0  0  0  0  0  0  0  0
   -0.3096   -6.4463   44.1263 C   0  0  0  0  0  0  0  0  0  0  0  0
   -1.4103   -7.4570   44.2387 C   0  0  0  0  0  0  0  0  0  0  0  0
   -1.5977   -8.0105   45.5816 C   0  0  0  0  0  0  0  0  0  0  0  0
   -0.7675   -7.8297   46.6376 C   0  0  0  0  0  0  0  0  0  0  0  0
    0.3419   -6.9121   46.4558 C   0  0  0  0  0  0  0  0  0  0  0  0
    4.5379   -3.2445   44.9780 C   0  0  0  0  0  0  0  0  0  0  0  0
    5.5046   -2.2219   45.3280 C   0  0  0  0  0  0  0  0  0  0  0  0
    6.5515   -2.6344   46.2354 C   0  0  0  0  0  0  0  0  0  0  0  0
    7.8048   -1.9891   46.2321 C   0  0  0  0  0  0  0  0  0  0  0  0
    7.9243   -0.9061   45.3010 C   0  0  0  0  0  0  0  0  0  0  0  0
    6.9566   -0.6596   44.4223 N   0  0  0  0  0  0  0  0  0  0  0  0
    5.8387   -1.3778   44.3914 C   0  0  0  0  0  0  0  0  0  0  0  0
    4.9275   -1.0943   43.1503 C   0  0  0  0  0  0  0  0  0  0  0  0
  1  2  1  0
  7  8  1  0
  8 10  1  0
 10 11  1  0
  2  3  1  0
 18 19  2  0
 19 20  1  0
 20 21  2  0
 21 22  1  0
 22 23  2  0
 11 12  2  0
 12 13  1  0
 13 14  2  0
 14 15  1  0
 15 16  2  0
 16 11  1  0
  6 17  2  0
 17 18  1  0
 18 23  1  0
 23 24  1  0
 24  5  2  0
  3  4  2  0
  4  5  1  0
  5  6  1  0
  6  7  1  0
  7  9  2  0
  9  3  1  0
M  END
$$$$
O14757_PocketFlow_idx-in-all-generaetd-239
     RDKit          3D

 25 28  0  0  0  0  0  0  0  0999 V2000
    0.2881   -2.9111   42.4378 C   0  0  0  0  0  0  0  0  0  0  0  0
    1.3023   -2.0648   42.1981 C   0  0  0  0  0  0  0  0  0  0  0  0
    2.5313   -2.2887   42.6989 C   0  0  0  0  0  0  0  0  0  0  0  0
    3.5918   -1.3644   42.5325 C   0  0  0  0  0  0  0  0  0  0  0  0
    4.9074   -1.6090   43.1723 C   0  0  0  0  0  0  0  0  0  0  0  0
    0.5587   -4.0229   43.2500 C   0  0  0  0  0  0  0  0  0  0  0  0
    1.7170   -4.0785   43.9941 C   0  0  0  0  0  0  0  0  0  0  0  0
    2.7657   -3.1890   43.7647 C   0  0  0  0  0  0  0  0  0  0  0  0
    4.9434   -2.5869   44.1658 C   0  0  0  0  0  0  0  0  0  0  0  0
    3.8988   -3.4497   44.4554 C   0  0  0  0  0  0  0  0  0  0  0  0
   -0.8708   -2.8695   41.7649 O   0  0  0  0  0  0  0  0  0  0  0  0
    6.2230   -2.6295   44.9934 C   0  0  0  0  0  0  0  0  0  0  0  0
    6.3947   -3.5734   46.0499 C   0  0  0  0  0  0  0  0  0  0  0  0
    5.3186   -4.1294   46.7434 C   0  0  0  0  0  0  0  0  0  0  0  0
    4.0341   -4.1262   45.8252 C   0  0  0  0  0  0  0  0  0  0  0  0
    7.5669   -3.3275   46.9385 C   0  0  0  0  0  0  0  0  0  0  0  0
    8.6628   -2.4829   46.7024 C   0  0  0  0  0  0  0  0  0  0  0  0
    9.8118   -2.4131   47.4723 C   0  0  0  0  0  0  0  0  0  0  0  0
    9.8849   -3.0983   48.6491 C   0  0  0  0  0  0  0  0  0  0  0  0
    8.7781   -3.9556   48.9621 C   0  0  0  0  0  0  0  0  0  0  0  0
    7.6886   -4.0748   48.1734 C   0  0  0  0  0  0  0  0  0  0  0  0
   -1.1029   -2.5480   40.4603 C   0  0  0  0  0  0  0  0  0  0  0  0
   -2.3778   -1.7393   40.4225 C   0  0  0  0  0  0  0  0  0  0  0  0
   -3.5735   -2.3133   39.9622 C   0  0  0  0  0  0  0  0  0  0  0  0
   -4.6191   -1.4089   40.0826 N   0  0  0  0  0  0  0  0  0  0  0  0
  1 11  1  0
 13 16  1  0
 11 22  1  0
 22 23  1  0
 23 24  2  3
 24 25  1  0
 10 15  1  0
 15 14  2  0
 14 13  1  0
 13 12  2  0
 12  9  1  0
  1  2  2  0
  2  3  1  0
  8  7  1  0
  7  6  2  0
  6  1  1  0
  3  4  2  0
  4  5  1  0
  5  9  2  0
  9 10  1  0
 10  8  2  0
  8  3  1  0
 16 17  2  0
 17 18  1  0
 18 19  2  0
 19 20  1  0
 20 21  2  0
 21 16  1  0
M  END
$$$$
O14757_PocketFlow_idx-in-all-generaetd-240
     RDKit          3D

 35 38  0  0  0  0  0  0  0  0999 V2000
   -0.6395   -2.0713   41.4947 C   0  0  0  0  0  0  0  0  0  0  0  0
   -0.2671   -3.2464   41.6546 C   0  0  0  0  0  0  0  0  0  0  0  0
    0.2407   -0.9706   41.5952 C   0  0  0  0  0  0  0  0  0  0  0  0
    1.6195   -1.2958   41.8767 C   0  0  0  0  0  0  0  0  0  0  0  0
    1.9162   -2.6816   42.2016 C   0  0  0  0  0  0  0  0  0  0  0  0
    0.8512   -3.4415   42.5412 C   0  0  0  0  0  0  0  0  0  0  0  0
    2.6906   -0.5089   42.0819 N   0  0  0  0  0  0  0  0  0  0  0  0
    2.7442    0.8230   41.9809 C   0  0  0  0  0  0  0  0  0  0  0  0
    3.8719   -0.9784   42.7159 C   0  0  0  0  0  0  0  0  0  0  0  0
    4.8409   -0.0112   43.0354 C   0  0  0  0  0  0  0  0  0  0  0  0
    4.0801    1.1851   42.4930 N   0  0  0  0  0  0  0  0  0  0  0  0
   -2.0740   -1.8843   41.1075 C   0  0  0  0  0  0  0  0  0  0  0  0
   -2.7001   -0.6859   41.3151 N   0  0  0  0  0  0  0  0  0  0  0  0
   -2.7517   -2.7263   40.5566 O   0  0  0  0  0  0  0  0  0  0  0  0
   -3.9546   -0.2278   40.8484 C   0  0  0  0  0  0  0  0  0  0  0  0
    4.1032   -2.3562   43.0598 C   0  0  2  0  0  0  0  0  0  0  0  0
    3.0294   -3.1949   42.9757 C   0  0  0  0  0  0  0  0  0  0  0  0
    5.3255   -2.7339   43.7654 C   0  0  0  0  0  0  0  0  0  0  0  0
    5.1300   -3.7211   44.8323 C   0  0  0  0  0  0  0  0  0  0  0  0
    4.5360   -3.3463   46.0059 C   0  0  2  0  0  0  0  0  0  0  0  0
    5.2701   -2.4086   46.8265 C   0  0  0  0  0  0  0  0  0  0  0  0
    3.3997   -4.0245   46.5221 C   0  0  0  0  0  0  0  0  0  0  0  0
    3.3139   -5.3406   46.3764 C   0  0  0  0  0  0  0  0  0  0  0  0
    2.1574   -5.9414   45.7087 C   0  0  1  0  0  0  0  0  0  0  0  0
    2.0060   -7.2449   45.5373 C   0  0  0  0  0  0  0  0  0  0  0  0
    2.9760   -7.9494   45.8519 O   0  0  0  0  0  0  0  0  0  0  0  0
    1.0012   -7.7101   44.9419 O   0  0  0  0  0  0  0  0  0  0  0  0
    0.0062   -6.7810   44.5629 C   0  0  1  0  0  0  0  0  0  0  0  0
    0.9898   -5.1341   45.3019 C   0  0  2  0  0  0  0  0  0  0  0  0
    1.2318   -3.8143   45.5738 F   0  0  0  0  0  0  0  0  0  0  0  0
   -0.0493   -5.3255   45.5551 O   0  0  0  0  0  0  0  0  0  0  0  0
   -0.1302   -6.4738   43.0754 Cl  0  0  0  0  0  0  0  0  0  0  0  0
    6.6724   -2.6858   46.9266 C   0  0  0  0  0  0  0  0  0  0  0  0
    7.1588   -3.7080   47.7327 C   0  0  0  0  0  0  0  0  0  0  0  0
    6.4416   -4.3644   48.6234 C   0  0  0  0  0  0  0  0  0  0  0  0
  4  7  1  0
  7  8  1  0
  7  9  1  0
  8 11  1  0
 10 11  1  0
  1 12  1  0
 12 13  1  0
 12 14  2  0
 13 15  1  0
  9 16  1  0
  5 17  1  0
 16 18  1  1
 18 19  1  0
 20 19  1  1
 20 21  1  0
 20 22  1  0
 22 23  1  0
 24 23  1  1
 24 25  1  0
 25 26  2  0
 25 27  1  0
 27 28  1  0
 24 29  1  0
 29 30  1  1
 28 31  1  0
 29 31  1  0
 28 32  1  6
 21 33  1  0
 33 34  1  0
 34 35  1  0
 10  9  1  0
 17 16  1  0
  1  2  2  0
  2  6  1  0
  6  5  2  0
  5  4  1  0
  4  3  2  0
  3  1  1  0
M  END
$$$$
O14757_PocketFlow_idx-in-all-generaetd-241
     RDKit          3D

 32 34  0  0  0  0  0  0  0  0999 V2000
   -0.6395   -2.0713   41.4947 C   0  0  0  0  0  0  0  0  0  0  0  0
    0.1859   -1.1027   41.5970 C   0  0  0  0  0  0  0  0  0  0  0  0
    1.5836   -1.3270   41.4670 C   0  0  0  0  0  0  0  0  0  0  0  0
   -0.2462   -3.3905   41.2409 C   0  0  0  0  0  0  0  0  0  0  0  0
    2.5675   -0.3472   41.7943 C   0  0  0  0  0  0  0  0  0  0  0  0
    3.8546   -0.6776   42.2362 C   0  0  0  0  0  0  0  0  0  0  0  0
    3.9971   -0.8191   43.6382 C   0  0  0  0  0  0  0  0  0  0  0  0
    3.9303   -1.8463   44.3484 C   0  0  0  0  0  0  0  0  0  0  0  0
    4.5499   -1.9585   45.6676 C   0  0  0  0  0  0  0  0  0  0  0  0
    1.0816   -3.5931   41.1272 N   0  0  0  0  0  0  0  0  0  0  0  0
    1.9627   -2.5775   41.3018 C   0  0  0  0  0  0  0  0  0  0  0  0
    4.5420   -3.1145   46.4387 C   0  0  0  0  0  0  0  0  0  0  0  0
    4.5243   -4.1501   45.9456 C   0  0  0  0  0  0  0  0  0  0  0  0
    4.0358   -4.3378   44.5914 C   0  0  0  0  0  0  0  0  0  0  0  0
    3.9175   -3.2128   43.7792 C   0  0  0  0  0  0  0  0  0  0  0  0
   -1.9968   -1.8833   41.5933 F   0  0  0  0  0  0  0  0  0  0  0  0
    4.5837   -5.5126   46.7124 C   0  0  0  0  0  0  0  0  0  0  0  0
    4.0875   -6.5846   46.3431 O   0  0  0  0  0  0  0  0  0  0  0  0
    5.4761   -5.5723   47.7281 O   0  0  0  0  0  0  0  0  0  0  0  0
    5.8821   -4.4673   48.3628 C   0  0  0  0  0  0  0  0  0  0  0  0
    6.7113   -4.8669   49.6564 C   0  0  0  0  0  0  0  0  0  0  0  0
    7.0463   -3.8174   50.3350 O   0  0  0  0  0  0  0  0  0  0  0  0
    8.3735   -3.3338   50.1031 C   0  0  2  0  0  0  0  0  0  0  0  0
    8.7411   -2.3636   51.0581 C   0  0  0  0  0  0  0  0  0  0  0  0
    9.8170   -1.4316   50.7521 C   0  0  2  0  0  0  0  0  0  0  0  0
   10.2585   -0.4229   51.6011 C   0  0  0  0  0  0  0  0  0  0  0  0
   10.2192   -1.4679   49.3697 C   0  0  0  0  0  0  0  0  0  0  0  0
    9.7421   -2.3663   48.4687 C   0  0  0  0  0  0  0  0  0  0  0  0
    8.4351   -2.8126   48.7818 C   0  0  0  0  0  0  0  0  0  0  0  0
   11.2937   -0.5547   52.0436 O   0  0  0  0  0  0  0  0  0  0  0  0
    9.4053    0.5286   51.9914 O   0  0  0  0  0  0  0  0  0  0  0  0
    9.3437   -4.5448   50.3141 C   0  0  0  0  0  0  0  0  0  0  0  0
  3  5  1  0
  5  6  1  0
  6  7  1  0
  1 16  1  0
 13 17  1  0
 17 18  2  0
 17 19  1  0
 19 20  1  0
 20 21  1  0
 21 22  1  0
 22 23  1  0
 23 24  1  0
 25 26  1  6
 25 27  1  0
 23 29  1  0
 28 29  1  0
 26 30  2  0
 26 31  1  0
 23 32  1  6
  7  8  1  0
 24 25  1  0
 27 28  1  0
  1  2  2  0
  2  3  1  0
  3 11  2  0
 11 10  1  0
 10  4  2  0
  4  1  1  0
  8  9  2  0
  9 12  1  0
 12 13  2  0
 13 14  1  0
 14 15  2  0
 15  8  1  0
M  END
$$$$
O14757_PocketFlow_idx-in-all-generaetd-242
     RDKit          3D

 11 11  0  0  0  0  0  0  0  0999 V2000
   -0.6395   -2.0713   41.4947 C   0  0  0  0  0  0  0  0  0  0  0  0
   -0.2671   -3.2464   41.6546 C   0  0  0  0  0  0  0  0  0  0  0  0
    0.2407   -0.9706   41.5952 C   0  0  0  0  0  0  0  0  0  0  0  0
    1.5531   -1.3394   41.8399 C   0  0  0  0  0  0  0  0  0  0  0  0
    1.9123   -2.6863   42.1918 C   0  0  0  0  0  0  0  0  0  0  0  0
    0.9325   -3.6408   42.1137 C   0  0  0  0  0  0  0  0  0  0  0  0
    2.6100   -0.3048   42.0902 C   0  0  0  0  0  0  0  0  0  0  0  0
    3.8845   -0.6239   42.5736 C   0  0  0  0  0  0  0  0  0  0  0  0
    4.0567   -1.9059   43.2111 C   0  0  0  0  0  0  0  0  0  0  0  0
    3.0315   -2.9136   43.0229 C   0  0  0  0  0  0  0  0  0  0  0  0
    3.2698   -4.1634   43.7000 C   0  0  0  0  0  0  0  0  0  0  0  0
  4  7  1  0
  7  8  2  3
  8  9  1  0
  9 10  2  3
 10 11  1  0
  1  2  2  0
  2  6  1  0
  6  5  2  0
  5  4  1  0
  4  3  2  0
  3  1  1  0
M  END
$$$$
O14757_PocketFlow_idx-in-all-generaetd-243
     RDKit          3D

 35 37  0  0  0  0  0  0  0  0999 V2000
   -0.6395   -2.0713   41.4947 C   0  0  0  0  0  0  0  0  0  0  0  0
   -0.2671   -3.2464   41.6546 C   0  0  0  0  0  0  0  0  0  0  0  0
    0.2407   -0.9706   41.5952 C   0  0  0  0  0  0  0  0  0  0  0  0
    1.6195   -1.2958   41.8767 C   0  0  0  0  0  0  0  0  0  0  0  0
    1.9162   -2.6816   42.2016 C   0  0  0  0  0  0  0  0  0  0  0  0
    0.9422   -3.6324   42.1156 C   0  0  0  0  0  0  0  0  0  0  0  0
    2.6136   -0.2815   42.1191 C   0  0  0  0  0  0  0  0  0  0  0  0
    3.9096   -0.5773   42.5950 C   0  0  0  0  0  0  0  0  0  0  0  0
    4.9367    0.3662   42.6897 C   0  0  0  0  0  0  0  0  0  0  0  0
   -2.0669   -1.7559   41.0542 C   0  0  2  0  0  0  0  0  0  0  0  0
   -2.6831   -0.6103   41.3220 N   0  0  0  0  0  0  0  0  0  0  0  0
   -2.8496   -2.7168   40.9188 F   0  0  0  0  0  0  0  0  0  0  0  0
    4.1632   -1.8440   43.2103 C   0  0  0  0  0  0  0  0  0  0  0  0
    4.7297   -1.9116   44.5594 C   0  0  0  0  0  0  0  0  0  0  0  0
    5.9254   -1.1444   44.6450 C   0  0  0  0  0  0  0  0  0  0  0  0
    6.3683   -0.3825   43.8337 N   0  0  0  0  0  0  0  0  0  0  0  0
    6.9942   -1.6047   45.4587 N   0  0  0  0  0  0  0  0  0  0  0  0
    6.8905   -2.8139   46.2153 C   0  0  0  0  0  0  0  0  0  0  0  0
    8.1364   -3.1662   46.8793 C   0  0  0  0  0  0  0  0  0  0  0  0
    8.0291   -4.3503   47.7088 C   0  0  0  0  0  0  0  0  0  0  0  0
    5.8893   -3.6529   46.2626 C   0  0  0  0  0  0  0  0  0  0  0  0
    5.8112   -4.6609   47.2714 C   0  0  0  0  0  0  0  0  0  0  0  0
    6.9191   -4.9674   47.9867 C   0  0  0  0  0  0  0  0  0  0  0  0
    6.8256   -6.1310   48.9021 C   0  0  0  0  0  0  0  0  0  0  0  0
    5.6507   -6.9366   48.8207 C   0  0  0  0  0  0  0  0  0  0  0  0
    5.5571   -7.9690   49.8691 C   0  0  0  0  0  0  0  0  0  0  0  0
    4.2680   -8.4661   49.9890 C   0  0  0  0  0  0  0  0  0  0  0  0
    3.9665   -8.9563   51.3155 C   0  0  0  0  0  0  0  0  0  0  0  0
    3.9020  -10.1741   51.4959 C   0  0  0  0  0  0  0  0  0  0  0  0
    3.0419  -10.7032   52.5888 C   0  0  0  0  0  0  0  0  0  0  0  0
    1.7762  -10.0599   52.7807 C   0  0  0  0  0  0  0  0  0  0  0  0
    1.7322   -8.6745   52.3317 C   0  0  0  0  0  0  0  0  0  0  0  0
    2.8418   -8.1750   51.6267 C   0  0  2  0  0  0  0  0  0  0  0  0
    2.7377   -6.9057   51.5183 F   0  0  0  0  0  0  0  0  0  0  0  0
    2.5223   -8.1575   50.6294 O   0  0  0  0  0  0  0  0  0  0  0  0
  4  7  1  0
  1 10  1  0
 10 11  1  1
 10 12  1  0
 15 17  1  0
 17 18  1  0
 23 24  1  0
 24 25  1  0
 25 26  1  0
 26 27  1  0
 27 28  2  3
 28 29  1  0
 29 30  2  3
 30 31  1  0
 31 32  2  3
 32 33  1  0
 33 34  1  0
 33 35  1  6
  7  8  1  0
  8  9  2  0
  9 16  1  0
 16 15  2  0
 15 14  1  0
 14 13  2  0
 13  8  1  0
  1  2  2  0
  2  6  1  0
  6  5  2  0
  5  4  1  0
  4  3  2  0
  3  1  1  0
 18 19  2  0
 19 20  1  0
 20 23  2  0
 23 22  1  0
 22 21  2  0
 21 18  1  0
M  END
$$$$
O14757_PocketFlow_idx-in-all-generaetd-244
     RDKit          3D

 29 32  0  0  0  0  0  0  0  0999 V2000
   -0.6395   -2.0713   41.4947 C   0  0  0  0  0  0  0  0  0  0  0  0
   -0.2671   -3.2464   41.6546 C   0  0  0  0  0  0  0  0  0  0  0  0
    0.2277   -0.9875   41.6495 C   0  0  0  0  0  0  0  0  0  0  0  0
    1.6284   -1.2752   41.8841 C   0  0  0  0  0  0  0  0  0  0  0  0
    1.9209   -2.6657   42.2361 C   0  0  0  0  0  0  0  0  0  0  0  0
    0.9459   -3.6290   42.1337 C   0  0  0  0  0  0  0  0  0  0  0  0
    2.4021   -0.1788   42.3316 C   0  0  0  0  0  0  0  0  0  0  0  0
    3.8409   -0.4735   42.4916 C   0  0  0  0  0  0  0  0  0  0  0  0
    4.4309   -0.6925   43.7462 C   0  0  0  0  0  0  0  0  0  0  0  0
    4.2889   -1.5787   44.5340 C   0  0  0  0  0  0  0  0  0  0  0  0
    5.3817   -2.3382   45.0073 C   0  0  0  0  0  0  0  0  0  0  0  0
    5.2987   -3.5868   45.7631 C   0  0  0  0  0  0  0  0  0  0  0  0
    6.4987   -3.9408   46.4243 C   0  0  0  0  0  0  0  0  0  0  0  0
    7.1986   -3.0650   47.0297 C   0  0  0  0  0  0  0  0  0  0  0  0
    8.4487   -3.5665   47.6769 C   0  0  0  0  0  0  0  0  0  0  0  0
    9.5611   -2.7800   47.6683 C   0  0  0  0  0  0  0  0  0  0  0  0
    9.4483   -1.4295   47.1321 C   0  0  0  0  0  0  0  0  0  0  0  0
    8.4012   -1.1101   46.3234 C   0  0  0  0  0  0  0  0  0  0  0  0
    7.3799   -1.9577   46.1770 C   0  0  0  0  0  0  0  0  0  0  0  0
    6.5212   -1.4860   45.2834 C   0  0  0  0  0  0  0  0  0  0  0  0
   -2.0024   -1.6626   40.9894 C   0  0  0  0  0  0  0  0  0  0  0  0
   -2.6298   -0.5508   41.2901 N   0  0  0  0  0  0  0  0  0  0  0  0
   -2.7462   -2.5589   40.4608 O   0  0  0  0  0  0  0  0  0  0  0  0
    8.5103   -4.8139   48.4404 C   0  0  0  0  0  0  0  0  0  0  0  0
    9.2100   -5.7897   47.9992 C   0  0  0  0  0  0  0  0  0  0  0  0
    9.7195   -6.5109   48.5310 C   0  0  0  0  0  0  0  0  0  0  0  0
    9.1409   -6.9106   49.8760 C   0  0  0  0  0  0  0  0  0  0  0  0
    8.2231   -6.0177   50.3887 C   0  0  0  0  0  0  0  0  0  0  0  0
    7.9816   -4.8443   49.7553 C   0  0  0  0  0  0  0  0  0  0  0  0
  4  7  1  0
  7  8  1  0
  8  9  1  0
  9 10  1  0
 10 11  1  0
  1 21  1  0
 21 22  1  0
 21 23  2  0
 15 24  1  0
 14 15  1  0
 15 16  2  0
 16 17  1  0
 17 18  2  0
 18 19  1  0
  1  2  2  0
  2  6  1  0
  6  5  2  0
  5  4  1  0
  4  3  2  0
  3  1  1  0
 24 25  2  0
 25 26  1  0
 26 27  2  0
 27 28  1  0
 28 29  2  0
 29 24  1  0
 11 12  2  0
 12 13  1  0
 13 14  2  0
 14 19  1  0
 19 20  2  0
 20 11  1  0
M  END
$$$$
O14757_PocketFlow_idx-in-all-generaetd-245
     RDKit          3D

 35 37  0  0  0  0  0  0  0  0999 V2000
   -0.6395   -2.0713   41.4947 C   0  0  0  0  0  0  0  0  0  0  0  0
    0.6719   -2.2449   41.7518 C   0  0  0  0  0  0  0  0  0  0  0  0
    1.5951   -1.1948   41.6106 C   0  0  0  0  0  0  0  0  0  0  0  0
    2.9587   -1.3961   42.0240 C   0  0  0  0  0  0  0  0  0  0  0  0
    3.8815   -0.3441   42.0598 C   0  0  0  0  0  0  0  0  0  0  0  0
   -1.5492   -3.1120   41.4053 C   0  0  0  0  0  0  0  0  0  0  0  0
   -1.0384   -4.3411   41.5309 F   0  0  0  0  0  0  0  0  0  0  0  0
    5.1062   -0.5637   42.7770 C   0  0  0  0  0  0  0  0  0  0  0  0
    5.0073   -1.3793   43.9008 C   0  0  0  0  0  0  0  0  0  0  0  0
    4.0751   -2.4535   43.9094 C   0  0  0  0  0  0  0  0  0  0  0  0
    2.9373   -2.3409   43.0952 C   0  0  0  0  0  0  0  0  0  0  0  0
    4.1848   -3.5835   44.8614 C   0  0  0  0  0  0  0  0  0  0  0  0
    3.4038   -4.7505   44.6202 C   0  0  0  0  0  0  0  0  0  0  0  0
    3.6016   -5.7756   45.5572 C   0  0  0  0  0  0  0  0  0  0  0  0
    4.4474   -5.6463   46.6621 C   0  0  0  0  0  0  0  0  0  0  0  0
    5.1932   -4.4841   46.8333 C   0  0  0  0  0  0  0  0  0  0  0  0
    5.0501   -3.3890   45.9876 C   0  0  0  0  0  0  0  0  0  0  0  0
   -2.1854   -3.2037   40.1402 F   0  0  0  0  0  0  0  0  0  0  0  0
    6.0596   -4.3671   48.0593 C   0  0  0  0  0  0  0  0  0  0  0  0
    5.8483   -5.0928   49.0182 O   0  0  0  0  0  0  0  0  0  0  0  0
    7.3082   -3.8004   47.9211 N   0  0  0  0  0  0  0  0  0  0  0  0
    7.8181   -3.2088   46.7873 C   0  0  0  0  0  0  0  0  0  0  0  0
    9.1731   -2.7428   46.9292 C   0  0  0  0  0  0  0  0  0  0  0  0
    9.8092   -2.7964   48.0971 C   0  0  0  0  0  0  0  0  0  0  0  0
    9.1484   -3.2585   49.2548 C   0  0  0  0  0  0  0  0  0  0  0  0
    7.9199   -3.7361   49.1799 C   0  0  0  0  0  0  0  0  0  0  0  0
   -1.1406   -0.7916   41.5295 O   0  0  0  0  0  0  0  0  0  0  0  0
    2.8489   -7.0289   45.3996 C   0  0  0  0  0  0  0  0  0  0  0  0
    3.0533   -7.9847   46.0556 O   0  0  0  0  0  0  0  0  0  0  0  0
    2.0112   -7.0937   44.4145 O   0  0  0  0  0  0  0  0  0  0  0  0
    9.8513   -3.1648   50.6184 C   0  0  0  0  0  0  0  0  0  0  0  0
   10.1218   -2.1507   51.0904 C   0  0  0  0  0  0  0  0  0  0  0  0
    9.9767   -0.8932   50.5758 C   0  0  0  0  0  0  0  0  0  0  0  0
   10.4739    0.3125   51.1922 C   0  0  0  0  0  0  0  0  0  0  0  0
   10.7982    0.2389   52.5496 C   0  0  0  0  0  0  0  0  0  0  0  0
  1  2  1  0
  2  3  2  3
  3  4  1  0
  1  6  1  0
  6  7  1  0
 10 12  1  0
  6 18  1  0
 16 19  1  0
 19 20  2  0
 19 21  1  0
 21 22  1  0
 23 24  1  0
 21 26  1  0
 25 26  1  0
  1 27  2  0
 14 28  1  0
 28 29  2  0
 28 30  1  0
 25 31  1  0
 31 32  1  0
 32 33  2  3
 33 34  1  0
 34 35  2  0
 22 23  1  0
 24 25  1  0
 12 13  2  0
 13 14  1  0
 14 15  2  0
 15 16  1  0
 16 17  2  0
 17 12  1  0
  4  5  2  0
  5  8  1  0
  8  9  2  0
  9 10  1  0
 10 11  2  0
 11  4  1  0
M  END
$$$$
O14757_PocketFlow_idx-in-all-generaetd-246
     RDKit          3D

 17 19  0  0  0  0  0  0  0  0999 V2000
   -0.6395   -2.0713   41.4947 C   0  0  0  0  0  0  0  0  0  0  0  0
   -0.2671   -3.2464   41.6546 C   0  0  0  0  0  0  0  0  0  0  0  0
    0.2407   -0.9706   41.5952 C   0  0  0  0  0  0  0  0  0  0  0  0
    1.6195   -1.2958   41.8767 C   0  0  0  0  0  0  0  0  0  0  0  0
    1.9162   -2.6816   42.2016 C   0  0  0  0  0  0  0  0  0  0  0  0
    0.9422   -3.6324   42.1156 C   0  0  0  0  0  0  0  0  0  0  0  0
    2.6136   -0.2815   42.1191 C   0  0  0  0  0  0  0  0  0  0  0  0
    3.9096   -0.5773   42.5950 C   0  0  0  0  0  0  0  0  0  0  0  0
    4.0819   -1.8037   43.3231 C   0  0  0  0  0  0  0  0  0  0  0  0
    5.2017   -2.1063   44.1267 C   0  0  0  0  0  0  0  0  0  0  0  0
    6.0533   -1.0833   44.5253 C   0  0  0  0  0  0  0  0  0  0  0  0
    3.1069   -2.8254   42.9372 N   0  0  0  0  0  0  0  0  0  0  0  0
    5.1043   -3.2800   45.0449 C   0  0  0  0  0  0  0  0  0  0  0  0
    6.1053   -3.5227   45.9499 C   0  0  0  0  0  0  0  0  0  0  0  0
    7.1460   -1.3680   45.4221 C   0  0  0  0  0  0  0  0  0  0  0  0
    7.1489   -2.5579   46.1010 C   0  0  0  0  0  0  0  0  0  0  0  0
   -1.9255   -1.7304   41.0165 N   0  0  0  0  0  0  0  0  0  0  0  0
  9 10  1  0
  1 17  1  0
  1  2  2  0
  2  6  1  0
  6  5  2  0
  4  3  2  0
  3  1  1  0
  4  5  1  0
  5 12  1  0
 12  9  2  0
  9  8  1  0
  8  7  2  0
  7  4  1  0
 10 11  2  0
 11 15  1  0
 15 16  2  0
 16 14  1  0
 14 13  2  0
 13 10  1  0
M  END
$$$$
O14757_PocketFlow_idx-in-all-generaetd-247
     RDKit          3D

 35 39  0  0  0  0  0  0  0  0999 V2000
    0.2881   -2.9111   42.4378 C   0  0  0  0  0  0  0  0  0  0  0  0
    1.3023   -2.0648   42.1981 C   0  0  0  0  0  0  0  0  0  0  0  0
    2.5313   -2.2887   42.6989 C   0  0  0  0  0  0  0  0  0  0  0  0
    3.5902   -1.3681   42.6298 C   0  0  0  0  0  0  0  0  0  0  0  0
    3.2847   -0.0585   42.1867 C   0  0  0  0  0  0  0  0  0  0  0  0
    0.6458   -3.9890   43.2092 N   0  0  0  0  0  0  0  0  0  0  0  0
    1.7186   -4.0966   43.9527 C   0  0  0  0  0  0  0  0  0  0  0  0
    2.7711   -3.2060   43.7385 C   0  0  0  0  0  0  0  0  0  0  0  0
    2.0170    0.2113   41.6143 C   0  0  0  0  0  0  0  0  0  0  0  0
    0.9882   -0.7555   41.7102 C   0  0  0  0  0  0  0  0  0  0  0  0
   -0.8994   -2.8538   42.0755 O   0  0  0  0  0  0  0  0  0  0  0  0
    4.0483   -3.4495   44.3807 C   0  0  0  0  0  0  0  0  0  0  0  0
    4.4125   -4.5767   45.0588 C   0  0  0  0  0  0  0  0  0  0  0  0
    3.4171   -5.5885   45.2460 C   0  0  0  0  0  0  0  0  0  0  0  0
    2.0928   -5.4145   44.6260 C   0  0  0  0  0  0  0  0  0  0  0  0
    1.0757   -6.3985   44.8652 C   0  0  1  0  0  0  0  0  0  0  0  0
    0.1179   -6.5822   44.0527 N   0  0  0  0  0  0  0  0  0  0  0  0
    1.1439   -7.4758   46.1933 Cl  0  0  0  0  0  0  0  0  0  0  0  0
   -1.1383   -7.2244   44.4059 C   0  0  0  0  0  0  0  0  0  0  0  0
   -1.4923   -7.5679   45.9095 Cl  0  0  0  0  0  0  0  0  0  0  0  0
   -1.6830   -7.8401   43.3887 O   0  0  0  0  0  0  0  0  0  0  0  0
    4.8729   -1.2552   43.1236 N   0  0  0  0  0  0  0  0  0  0  0  0
    5.1263   -2.4432   43.9951 C   0  0  1  0  0  0  0  0  0  0  0  0
    6.3214   -2.4276   44.6202 N   0  0  0  0  0  0  0  0  0  0  0  0
    6.7171   -3.1380   45.6497 C   0  0  0  0  0  0  0  0  0  0  0  0
    8.0709   -2.8479   46.1584 C   0  0  0  0  0  0  0  0  0  0  0  0
    8.7171   -3.7183   47.0017 C   0  0  0  0  0  0  0  0  0  0  0  0
   10.0574   -3.5829   47.3052 C   0  0  0  0  0  0  0  0  0  0  0  0
   10.7306   -2.4278   46.8486 C   0  0  0  0  0  0  0  0  0  0  0  0
   10.0220   -1.4295   46.1507 C   0  0  0  0  0  0  0  0  0  0  0  0
    8.6936   -1.6308   45.8009 C   0  0  0  0  0  0  0  0  0  0  0  0
   12.1219   -2.0854   47.2824 C   0  0  0  0  0  0  0  0  0  0  0  0
   12.9283   -2.0787   46.4017 O   0  0  0  0  0  0  0  0  0  0  0  0
   12.3840   -1.8806   48.5256 O   0  0  0  0  0  0  0  0  0  0  0  0
   -0.1430   -0.5028   41.1590 O   0  0  0  0  0  0  0  0  0  0  0  0
  1  2  1  0
  1  6  1  0
  3  8  1  0
  1 11  2  0
 15 16  1  0
 16 17  1  0
 16 18  1  6
 17 19  1  0
 19 20  1  0
 19 21  2  0
  4 22  1  0
 12 23  1  0
 22 23  1  0
 23 24  1  1
 24 25  1  0
 29 32  1  0
 32 33  2  0
 32 34  1  0
 10 35  1  0
 25 26  1  0
  7  6  1  0
  7  8  2  0
  8 12  1  0
 12 13  2  0
 13 14  1  0
 14 15  2  0
 15  7  1  0
  2  3  2  0
  3  4  1  0
  4  5  2  0
  5  9  1  0
  9 10  2  0
 10  2  1  0
 26 27  2  0
 27 28  1  0
 28 29  2  0
 29 30  1  0
 30 31  2  0
 31 26  1  0
M  END
$$$$
O14757_PocketFlow_idx-in-all-generaetd-248
     RDKit          3D

 19 18  0  0  0  0  0  0  0  0999 V2000
    0.2881   -2.9111   42.4378 C   0  0  0  0  0  0  0  0  0  0  0  0
   -0.0650   -2.5021   41.5798 C   0  0  0  0  0  0  0  0  0  0  0  0
    1.6108   -3.5167   42.6657 C   0  0  0  0  0  0  0  0  0  0  0  0
    2.0262   -4.1022   43.9169 C   0  0  1  0  0  0  0  0  0  0  0  0
    3.3116   -4.3084   44.3274 C   0  0  1  0  0  0  0  0  0  0  0  0
    3.9442   -3.6357   45.1397 C   0  0  0  0  0  0  0  0  0  0  0  0
    4.8320   -2.5321   44.8824 C   0  0  0  0  0  0  0  0  0  0  0  0
    4.8628   -1.7511   43.7517 C   0  0  0  0  0  0  0  0  0  0  0  0
    5.4922   -0.4917   43.7349 C   0  0  0  0  0  0  0  0  0  0  0  0
   -1.3736   -1.9044   41.4909 C   0  0  0  0  0  0  0  0  0  0  0  0
    5.1794    0.3411   42.6665 C   0  0  0  0  0  0  0  0  0  0  0  0
    0.9490   -4.4189   44.9258 C   0  0  0  0  0  0  0  0  0  0  0  0
    1.1247   -5.3357   45.8712 C   0  0  0  0  0  0  0  0  0  0  0  0
    1.8910   -6.4459   45.5178 C   0  0  0  0  0  0  0  0  0  0  0  0
    3.8745   -5.5610   43.8757 C   0  0  0  0  0  0  0  0  0  0  0  0
    1.7651   -7.5938   46.3267 C   0  0  0  0  0  0  0  0  0  0  0  0
    1.8475   -7.3602   47.4017 F   0  0  0  0  0  0  0  0  0  0  0  0
    2.7612   -8.5342   46.0488 F   0  0  0  0  0  0  0  0  0  0  0  0
    0.6001   -8.2422   46.0316 F   0  0  0  0  0  0  0  0  0  0  0  0
  1  2  2  3
  1  3  1  0
  4  3  1  1
  4  5  1  0
  5  6  1  0
  6  7  2  3
  7  8  1  0
  8  9  2  3
  2 10  1  0
  9 11  1  0
  4 12  1  0
 12 13  2  3
 13 14  1  0
  5 15  1  1
 14 16  1  0
 16 17  1  0
 16 18  1  0
 16 19  1  0
M  END
$$$$
O14757_PocketFlow_idx-in-all-generaetd-249
     RDKit          3D

 35 38  0  0  0  0  0  0  0  0999 V2000
    0.2881   -2.9111   42.4378 C   0  0  0  0  0  0  0  0  0  0  0  0
    1.1784   -3.4293   42.9321 C   0  0  0  0  0  0  0  0  0  0  0  0
    2.4507   -2.7243   42.9621 C   0  0  0  0  0  0  0  0  0  0  0  0
    2.5762   -1.5430   42.3314 C   0  0  0  0  0  0  0  0  0  0  0  0
    0.2669   -1.7116   41.6824 C   0  0  0  0  0  0  0  0  0  0  0  0
    1.4692   -1.0385   41.6539 C   0  0  0  0  0  0  0  0  0  0  0  0
    3.6303   -3.2035   43.7474 C   0  0  0  0  0  0  0  0  0  0  0  0
    4.6537   -2.3893   44.2360 C   0  0  0  0  0  0  0  0  0  0  0  0
    5.3656   -2.6429   45.3307 C   0  0  0  0  0  0  0  0  0  0  0  0
    5.2078   -3.9221   45.9784 C   0  0  0  0  0  0  0  0  0  0  0  0
    4.1441   -4.7496   45.5266 C   0  0  0  0  0  0  0  0  0  0  0  0
    3.2952   -4.3760   44.5741 C   0  0  0  0  0  0  0  0  0  0  0  0
    6.0942   -4.2717   47.1237 C   0  0  0  0  0  0  0  0  0  0  0  0
    5.5461   -4.5532   48.3646 C   0  0  0  0  0  0  0  0  0  0  0  0
    6.4597   -4.8370   49.4683 C   0  0  0  0  0  0  0  0  0  0  0  0
    7.3555   -3.4666   47.2517 C   0  0  0  0  0  0  0  0  0  0  0  0
    8.2436   -3.7656   48.2697 C   0  0  0  0  0  0  0  0  0  0  0  0
    7.7200   -4.3275   49.4576 C   0  0  0  0  0  0  0  0  0  0  0  0
   -0.8774   -1.2049   41.1181 N   0  0  0  0  0  0  0  0  0  0  0  0
   -1.6670   -0.3781   41.6984 C   0  0  2  0  0  0  0  0  0  0  0  0
   -1.4039    0.1931   42.8775 Cl  0  0  0  0  0  0  0  0  0  0  0  0
   -2.9495   -0.2876   41.1675 F   0  0  0  0  0  0  0  0  0  0  0  0
    9.5794   -3.1989   48.2199 C   0  0  0  0  0  0  0  0  0  0  0  0
   10.4676   -3.7084   48.3045 C   0  0  0  0  0  0  0  0  0  0  0  0
    9.5806   -1.7786   47.5649 C   0  0  0  0  0  0  0  0  0  0  0  0
   11.8683   -3.2306   48.1312 C   0  0  0  0  0  0  0  0  0  0  0  0
   10.8724   -1.2485   47.2956 C   0  0  0  0  0  0  0  0  0  0  0  0
   11.9976   -1.9044   47.5948 C   0  0  0  0  0  0  0  0  0  0  0  0
   13.3074   -1.2559   47.2913 C   0  0  0  0  0  0  0  0  0  0  0  0
   13.4520   -0.6717   46.1534 C   0  0  0  0  0  0  0  0  0  0  0  0
   14.2480    0.3857   46.0747 C   0  0  0  0  0  0  0  0  0  0  0  0
   14.2372    1.2473   44.8279 C   0  0  0  0  0  0  0  0  0  0  0  0
   13.7868    2.4065   45.0385 F   0  0  0  0  0  0  0  0  0  0  0  0
   13.4213    0.6624   43.9435 F   0  0  0  0  0  0  0  0  0  0  0  0
   15.4352    1.4614   44.2865 F   0  0  0  0  0  0  0  0  0  0  0  0
  3  7  1  0
 10 13  1  0
  5 19  1  0
 19 20  1  0
 20 21  1  0
 20 22  1  1
 17 23  1  0
 28 29  1  0
 29 30  1  0
 30 31  2  3
 31 32  1  0
 32 33  1  0
 32 34  1  0
 32 35  1  0
 13 14  2  0
 14 15  1  0
 15 18  2  0
 18 17  1  0
 17 16  2  0
 16 13  1  0
  1  2  2  0
  2  3  1  0
  3  4  2  0
  4  6  1  0
  6  5  2  0
  5  1  1  0
 23 24  2  0
 24 26  1  0
 26 28  2  0
 28 27  1  0
 27 25  2  0
 25 23  1  0
  7  8  2  0
  8  9  1  0
  9 10  2  0
 10 11  1  0
 11 12  2  0
 12  7  1  0
M  END
$$$$
O14757_PocketFlow_idx-in-all-generaetd-250
     RDKit          3D

  8  8  0  0  0  0  0  0  0  0999 V2000
   -0.6395   -2.0713   41.4947 C   0  0  0  0  0  0  0  0  0  0  0  0
    0.1859   -1.1027   41.5970 C   0  0  0  0  0  0  0  0  0  0  0  0
    1.5836   -1.3270   41.4670 C   0  0  0  0  0  0  0  0  0  0  0  0
   -0.2462   -3.3905   41.2409 C   0  0  0  0  0  0  0  0  0  0  0  0
    2.0075   -2.6977   41.3341 C   0  0  0  0  0  0  0  0  0  0  0  0
    1.0655   -3.6470   41.1373 C   0  0  0  0  0  0  0  0  0  0  0  0
    2.7327   -0.1019   41.7587 Cl  0  0  0  0  0  0  0  0  0  0  0  0
   -1.9827   -1.8367   41.6081 F   0  0  0  0  0  0  0  0  0  0  0  0
  3  7  1  0
  1  8  1  0
  1  2  2  0
  2  3  1  0
  3  5  2  0
  5  6  1  0
  6  4  2  0
  4  1  1  0
M  END
$$$$
O14757_PocketFlow_idx-in-all-generaetd-251
     RDKit          3D

 12 12  0  0  0  0  0  0  0  0999 V2000
   -0.8794   -1.9236   41.9357 O   0  0  0  0  0  0  0  0  0  0  0  0
    0.3070   -1.6014   41.6735 C   0  0  0  0  0  0  0  0  0  0  0  0
    0.8076   -0.3104   41.6588 C   0  0  0  0  0  0  0  0  0  0  0  0
    2.1973   -0.1560   42.0682 C   0  0  0  0  0  0  0  0  0  0  0  0
    3.0388   -1.2356   42.4097 C   0  0  0  0  0  0  0  0  0  0  0  0
    2.3612   -2.5152   42.5452 C   0  0  0  0  0  0  0  0  0  0  0  0
    1.0303   -2.6316   42.3240 C   0  0  0  0  0  0  0  0  0  0  0  0
    4.3728   -1.0745   42.7910 C   0  0  0  0  0  0  0  0  0  0  0  0
    4.9977   -1.7727   43.8127 C   0  0  0  0  0  0  0  0  0  0  0  0
    6.2388   -1.3024   44.3527 C   0  0  0  0  0  0  0  0  0  0  0  0
    6.8745   -2.0622   45.3590 C   0  0  0  0  0  0  0  0  0  0  0  0
    6.3481   -3.2690   45.7422 C   0  0  0  0  0  0  0  0  0  0  0  0
  1  2  1  0
  5  8  1  0
  8  9  2  3
  9 10  1  0
 10 11  2  3
 11 12  1  0
  2  3  2  0
  3  4  1  0
  4  5  2  0
  5  6  1  0
  6  7  2  0
  7  2  1  0
M  END
$$$$
O14757_PocketFlow_idx-in-all-generaetd-252
     RDKit          3D

 28 32  0  0  0  0  0  0  0  0999 V2000
   -0.6395   -2.0713   41.4947 C   0  0  0  0  0  0  0  0  0  0  0  0
    0.1859   -1.1027   41.5970 C   0  0  0  0  0  0  0  0  0  0  0  0
    1.5858   -1.4430   41.9548 C   0  0  0  0  0  0  0  0  0  0  0  0
   -0.3290   -3.4217   41.4987 C   0  0  0  0  0  0  0  0  0  0  0  0
    1.8734   -2.7956   42.1741 C   0  0  0  0  0  0  0  0  0  0  0  0
    0.8724   -3.7449   42.0341 C   0  0  0  0  0  0  0  0  0  0  0  0
    2.6003   -0.4578   42.2422 C   0  0  0  0  0  0  0  0  0  0  0  0
    2.5531    0.8861   41.8483 C   0  0  0  0  0  0  0  0  0  0  0  0
    3.6549   -0.8360   43.2026 C   0  0  0  0  0  0  0  0  0  0  0  0
    4.8799   -0.1535   43.2368 C   0  0  0  0  0  0  0  0  0  0  0  0
    5.8614   -0.7098   44.0954 C   0  0  0  0  0  0  0  0  0  0  0  0
    5.6713   -1.9667   44.7565 C   0  0  0  0  0  0  0  0  0  0  0  0
    4.4933   -2.6858   44.5026 C   0  0  0  0  0  0  0  0  0  0  0  0
    3.5205   -2.1330   43.7415 C   0  0  0  0  0  0  0  0  0  0  0  0
    2.5173   -2.9203   43.2366 N   0  0  0  0  0  0  0  0  0  0  0  0
    6.7776   -2.4409   45.5983 C   0  0  0  0  0  0  0  0  0  0  0  0
    6.6580   -3.6528   46.3498 C   0  0  0  0  0  0  0  0  0  0  0  0
    7.6974   -3.9601   47.2300 C   0  0  0  0  0  0  0  0  0  0  0  0
    8.8756   -3.2387   47.2578 C   0  0  0  0  0  0  0  0  0  0  0  0
    8.0348   -1.7939   45.7995 C   0  0  0  0  0  0  0  0  0  0  0  0
    9.0201   -2.1056   46.5584 C   0  0  0  0  0  0  0  0  0  0  0  0
   -2.0453   -1.6762   40.9883 C   0  0  0  0  0  0  0  0  0  0  0  0
   -2.8976   -2.5648   40.5079 N   0  0  0  0  0  0  0  0  0  0  0  0
   -2.4135   -0.3575   41.1041 N   0  0  0  0  0  0  0  0  0  0  0  0
   -3.7129    0.0046   40.9430 C   0  0  0  0  0  0  0  0  0  0  0  0
   -4.1602   -2.1840   40.2539 C   0  0  0  0  0  0  0  0  0  0  0  0
   -4.5412   -0.9143   40.4117 N   0  0  0  0  0  0  0  0  0  0  0  0
   -4.0180    1.2164   41.1110 O   0  0  0  0  0  0  0  0  0  0  0  0
  3  7  1  0
  7  8  2  0
  7  9  1  0
  5 15  1  0
 14 15  1  0
 12 16  1  0
  1 22  1  0
 22 23  1  0
 24 25  1  0
 25 27  1  0
 25 28  2  0
 24 22  1  0
 23 26  1  0
 26 27  1  0
  1  2  2  0
  2  3  1  0
  3  5  2  0
  5  6  1  0
  6  4  2  0
  4  1  1  0
  9 10  2  0
 10 11  1  0
 11 12  2  0
 12 13  1  0
 13 14  2  0
 14  9  1  0
 16 17  2  0
 17 18  1  0
 18 19  2  0
 19 21  1  0
 21 20  2  0
 20 16  1  0
M  END
$$$$
O14757_PocketFlow_idx-in-all-generaetd-253
     RDKit          3D

 21 22  0  0  0  0  0  0  0  0999 V2000
    0.2881   -2.9111   42.4378 C   0  0  2  0  0  0  0  0  0  0  0  0
    1.3023   -2.0648   42.1981 C   0  0  0  0  0  0  0  0  0  0  0  0
    0.9971   -0.8647   41.5341 C   0  0  0  0  0  0  0  0  0  0  0  0
    0.6297   -4.1493   43.0166 N   0  0  0  0  0  0  0  0  0  0  0  0
    1.6136   -4.0870   43.9875 C   0  0  0  0  0  0  0  0  0  0  0  0
    1.7898   -5.2904   44.8351 C   0  0  0  0  0  0  0  0  0  0  0  0
    2.6108   -3.0788   44.0468 C   0  0  2  0  0  0  0  0  0  0  0  0
    2.4516   -2.0318   43.1379 C   0  0  0  0  0  0  0  0  0  0  0  0
    0.6353   -5.6679   45.5405 C   0  0  0  0  0  0  0  0  0  0  0  0
   -0.2065   -6.5401   45.1089 C   0  0  0  0  0  0  0  0  0  0  0  0
   -0.2436   -7.0878   43.9497 C   0  0  0  0  0  0  0  0  0  0  0  0
   -1.3879   -7.8662   43.5376 C   0  0  0  0  0  0  0  0  0  0  0  0
   -2.4401   -8.0289   44.5202 C   0  0  0  0  0  0  0  0  0  0  0  0
   -2.3226   -7.6026   45.7918 C   0  0  0  0  0  0  0  0  0  0  0  0
   -1.2759   -6.7466   46.1480 C   0  0  0  0  0  0  0  0  0  0  0  0
   -0.7360   -2.9469   41.5954 N   0  0  0  0  0  0  0  0  0  0  0  0
    3.8255   -3.2061   44.8081 C   0  0  0  0  0  0  0  0  0  0  0  0
    3.9655   -3.8954   45.9146 C   0  0  0  0  0  0  0  0  0  0  0  0
    5.1875   -3.6303   46.7030 C   0  0  0  0  0  0  0  0  0  0  0  0
    6.1594   -2.8218   46.2790 C   0  0  0  0  0  0  0  0  0  0  0  0
    5.9683   -2.1049   45.0887 C   0  0  0  0  0  0  0  0  0  0  0  0
  1  2  1  0
  2  3  2  0
  1  4  1  0
  4  5  1  0
  5  6  2  3
  5  7  1  0
  2  8  1  0
  7  8  1  6
  6  9  1  0
  9 10  1  0
  1 16  1  6
  7 17  1  0
 17 18  2  3
 18 19  1  0
 19 20  2  3
 20 21  1  0
 10 11  2  0
 11 12  1  0
 12 13  2  0
 13 14  1  0
 14 15  2  0
 15 10  1  0
M  END
$$$$
O14757_PocketFlow_idx-in-all-generaetd-254
     RDKit          3D

 22 24  0  0  0  0  0  0  0  0999 V2000
    0.2881   -2.9111   42.4378 C   0  0  0  0  0  0  0  0  0  0  0  0
    1.1784   -3.4293   42.9321 C   0  0  0  0  0  0  0  0  0  0  0  0
    2.4507   -2.7243   42.9621 C   0  0  0  0  0  0  0  0  0  0  0  0
    3.6020   -3.2282   43.7398 C   0  0  0  0  0  0  0  0  0  0  0  0
    4.7688   -2.4047   43.9090 C   0  0  0  0  0  0  0  0  0  0  0  0
    5.7650   -2.7027   44.9133 C   0  0  0  0  0  0  0  0  0  0  0  0
    0.5422   -1.9595   41.4954 C   0  0  0  0  0  0  0  0  0  0  0  0
    1.6449   -1.1907   41.4833 C   0  0  0  0  0  0  0  0  0  0  0  0
    2.6783   -1.6289   42.2405 C   0  0  0  0  0  0  0  0  0  0  0  0
    5.5915   -3.9043   45.6239 C   0  0  0  0  0  0  0  0  0  0  0  0
    3.6148   -4.3634   44.6202 C   0  0  0  0  0  0  0  0  0  0  0  0
    4.5253   -4.6233   45.5560 C   0  0  0  0  0  0  0  0  0  0  0  0
    6.9481   -1.8033   44.9727 C   0  0  0  0  0  0  0  0  0  0  0  0
    7.2620   -1.3627   46.0596 C   0  0  0  0  0  0  0  0  0  0  0  0
    8.6494   -1.4650   46.5098 C   0  0  2  0  0  0  0  0  0  0  0  0
    9.0902   -1.5096   47.8625 C   0  0  0  0  0  0  0  0  0  0  0  0
   10.2741   -1.2264   48.2989 C   0  0  0  0  0  0  0  0  0  0  0  0
   10.6042   -1.2913   49.7274 C   0  0  0  0  0  0  0  0  0  0  0  0
    9.6261   -1.8379   50.6001 C   0  0  0  0  0  0  0  0  0  0  0  0
    8.4538   -2.3620   50.0518 C   0  0  0  0  0  0  0  0  0  0  0  0
    8.2224   -2.2582   48.7257 C   0  0  0  0  0  0  0  0  0  0  0  0
    9.7204   -1.1044   45.5959 C   0  0  0  0  0  0  0  0  0  0  0  0
  3  4  1  0
  6 13  1  0
 13 14  2  3
 14 15  1  0
 15 16  1  0
 15 22  1  1
  1  2  2  0
  2  3  1  0
  3  9  2  0
  9  8  1  0
  8  7  2  0
  7  1  1  0
  4  5  2  0
  5  6  1  0
  6 10  2  0
 10 12  1  0
 12 11  2  0
 11  4  1  0
 16 17  2  0
 17 18  1  0
 18 19  2  0
 19 20  1  0
 20 21  2  0
 21 16  1  0
M  END
$$$$
O14757_PocketFlow_idx-in-all-generaetd-255
     RDKit          3D

 35 38  0  0  0  0  0  0  0  0999 V2000
   -0.6395   -2.0713   41.4947 C   0  0  0  0  0  0  0  0  0  0  0  0
   -0.2671   -3.2464   41.6546 C   0  0  0  0  0  0  0  0  0  0  0  0
   -0.3973   -1.1236   41.8820 C   0  0  0  0  0  0  0  0  0  0  0  0
    0.8910   -3.4382   42.5023 C   0  0  0  0  0  0  0  0  0  0  0  0
    1.4837   -2.2518   42.8648 C   0  0  0  0  0  0  0  0  0  0  0  0
    0.9066   -1.0463   42.5694 C   0  0  0  0  0  0  0  0  0  0  0  0
    2.7439   -2.3747   43.6272 C   0  0  0  0  0  0  0  0  0  0  0  0
    3.0653   -3.5402   44.3828 C   0  0  0  0  0  0  0  0  0  0  0  0
    4.2012   -3.5676   45.0728 C   0  0  0  0  0  0  0  0  0  0  0  0
    5.1213   -2.5339   45.0624 C   0  0  0  0  0  0  0  0  0  0  0  0
    4.8836   -1.4807   44.2199 C   0  0  0  0  0  0  0  0  0  0  0  0
    3.7008   -1.3509   43.5167 C   0  0  0  0  0  0  0  0  0  0  0  0
    6.4466   -2.6808   45.7334 C   0  0  0  0  0  0  0  0  0  0  0  0
    7.5244   -1.8362   45.4652 C   0  0  0  0  0  0  0  0  0  0  0  0
    8.7058   -1.9481   46.1869 C   0  0  0  0  0  0  0  0  0  0  0  0
    9.7462   -0.9367   46.1988 C   0  0  0  0  0  0  0  0  0  0  0  0
    9.1602   -3.2819   46.6002 C   0  0  0  0  0  0  0  0  0  0  0  0
   10.3739   -3.4816   47.2628 C   0  0  0  0  0  0  0  0  0  0  0  0
   10.9233   -1.1225   46.8951 C   0  0  0  0  0  0  0  0  0  0  0  0
   11.2422   -2.4193   47.4032 C   0  0  0  0  0  0  0  0  0  0  0  0
    3.4760   -0.1633   42.7131 C   0  0  0  0  0  0  0  0  0  0  0  0
    4.6052    0.5409   42.5706 O   0  0  0  0  0  0  0  0  0  0  0  0
    2.5048    0.1389   42.0860 O   0  0  0  0  0  0  0  0  0  0  0  0
    1.2636   -0.2831   42.0005 C   0  0  0  0  0  0  0  0  0  0  0  0
    4.4541   -4.7976   45.9282 C   0  0  0  0  0  0  0  0  0  0  0  0
    4.9089   -4.6733   47.0963 O   0  0  0  0  0  0  0  0  0  0  0  0
    4.1373   -5.9294   45.4847 O   0  0  0  0  0  0  0  0  0  0  0  0
   -2.1946   -2.1718   40.8396 C   0  0  0  0  0  0  0  0  0  0  0  0
   -2.9215   -1.0496   40.8414 N   0  0  0  0  0  0  0  0  0  0  0  0
   -4.0978   -1.0944   40.2537 C   0  0  0  0  0  0  0  0  0  0  0  0
   -2.4834   -3.1207   40.2490 O   0  0  0  0  0  0  0  0  0  0  0  0
   10.6938   -4.8341   47.7463 C   0  0  0  0  0  0  0  0  0  0  0  0
   10.4122   -5.7167   47.2966 O   0  0  0  0  0  0  0  0  0  0  0  0
   11.5124   -4.8402   48.8059 F   0  0  0  0  0  0  0  0  0  0  0  0
    5.5930   -5.7805   47.7775 C   0  0  0  0  0  0  0  0  0  0  0  0
  5  7  1  0
 10 13  1  0
 13 14  2  3
 14 15  1  0
 12 21  1  0
 21 22  2  0
 21 23  1  0
  6 24  1  0
 23 24  1  0
  9 25  1  0
 25 26  1  0
 25 27  2  0
  1 28  1  0
 28 29  1  0
 29 30  1  0
 28 31  2  0
 18 32  1  0
 32 33  2  0
 32 34  1  0
 26 35  1  0
  1  2  2  0
  2  4  1  0
  4  5  2  0
  5  6  1  0
  6  3  2  0
  3  1  1  0
  7  8  2  0
  8  9  1  0
  9 10  2  0
 10 11  1  0
 11 12  2  0
 12  7  1  0
 15 16  2  0
 16 19  1  0
 19 20  2  0
 20 18  1  0
 18 17  2  0
 17 15  1  0
M  END
$$$$
O14757_PocketFlow_idx-in-all-generaetd-256
     RDKit          3D

 35 37  0  0  0  0  0  0  0  0999 V2000
   -0.6395   -2.0713   41.4947 C   0  0  0  0  0  0  0  0  0  0  0  0
   -0.2671   -3.2464   41.6546 C   0  0  0  0  0  0  0  0  0  0  0  0
    0.2407   -0.9706   41.5952 C   0  0  0  0  0  0  0  0  0  0  0  0
    1.6195   -1.2958   41.8767 C   0  0  0  0  0  0  0  0  0  0  0  0
    1.9162   -2.6816   42.2016 C   0  0  0  0  0  0  0  0  0  0  0  0
    3.2242   -2.9142   42.7890 C   0  0  0  0  0  0  0  0  0  0  0  0
    0.9779   -3.6270   42.0792 C   0  0  0  0  0  0  0  0  0  0  0  0
    3.4828   -2.3178   44.1167 C   0  0  0  0  0  0  0  0  0  0  0  0
    4.5869   -2.8845   44.8721 C   0  0  0  0  0  0  0  0  0  0  0  0
    5.4922   -1.9383   45.3229 C   0  0  0  0  0  0  0  0  0  0  0  0
    6.7104   -2.4424   45.8730 C   0  0  0  0  0  0  0  0  0  0  0  0
    6.7753   -3.7821   46.3076 C   0  0  0  0  0  0  0  0  0  0  0  0
    5.6322   -4.5490   46.0853 C   0  0  0  0  0  0  0  0  0  0  0  0
    4.5477   -4.1386   45.2892 C   0  0  0  0  0  0  0  0  0  0  0  0
   -1.9376   -1.7701   41.0615 N   0  0  0  0  0  0  0  0  0  0  0  0
    7.8173   -1.4935   46.1320 C   0  0  0  0  0  0  0  0  0  0  0  0
    8.8256   -1.8135   46.9578 N   0  0  0  0  0  0  0  0  0  0  0  0
    8.7151   -2.1866   48.1841 C   0  0  0  0  0  0  0  0  0  0  0  0
    9.9330   -2.1729   49.0382 C   0  0  0  0  0  0  0  0  0  0  0  0
   10.2468   -1.3812   46.7876 C   0  0  0  0  0  0  0  0  0  0  0  0
   10.8660   -1.5560   48.0013 C   0  0  0  0  0  0  0  0  0  0  0  0
    7.9315   -0.5214   45.3225 O   0  0  0  0  0  0  0  0  0  0  0  0
    2.5578   -0.1783   42.0332 C   0  0  0  0  0  0  0  0  0  0  0  0
    2.1810    0.8813   42.2837 O   0  0  0  0  0  0  0  0  0  0  0  0
    3.8605   -0.4820   41.9429 O   0  0  0  0  0  0  0  0  0  0  0  0
   10.1535   -2.4362   50.3506 C   0  0  0  0  0  0  0  0  0  0  0  0
    9.4961   -2.6314   51.2522 C   0  0  0  0  0  0  0  0  0  0  0  0
    7.9780   -2.5427   51.1374 C   0  0  0  0  0  0  0  0  0  0  0  0
   -2.6250   -0.5917   41.2938 C   0  0  0  0  0  0  0  0  0  0  0  0
   -2.7174   -2.7243   40.4261 C   0  0  0  0  0  0  0  0  0  0  0  0
   -3.7838   -0.4702   40.8215 O   0  0  0  0  0  0  0  0  0  0  0  0
    3.4903   -5.0927   45.0540 C   0  0  0  0  0  0  0  0  0  0  0  0
    2.5458   -5.2432   45.8703 N   0  0  0  0  0  0  0  0  0  0  0  0
    1.2096   -4.9442   45.5273 C   0  0  0  0  0  0  0  0  0  0  0  0
    0.2242   -5.3779   46.4658 C   0  0  0  0  0  0  0  0  0  0  0  0
  5  6  1  0
  6  8  1  0
  8  9  1  0
  1 15  1  0
 11 16  1  0
 16 17  1  0
 17 18  1  0
 18 19  2  0
 17 20  1  0
 19 21  1  0
 20 21  2  0
 16 22  2  0
  4 23  1  0
 23 24  2  0
 23 25  1  0
 19 26  1  0
 26 27  1  0
 27 28  1  0
 15 29  1  0
 15 30  1  0
 29 31  2  0
 14 32  1  0
 32 33  1  0
 33 34  1  0
 34 35  1  0
  1  2  2  0
  2  7  1  0
  7  5  2  0
  5  4  1  0
  4  3  2  0
  3  1  1  0
  9 10  2  0
 10 11  1  0
 11 12  2  0
 12 13  1  0
 13 14  2  0
 14  9  1  0
M  END
$$$$
O14757_PocketFlow_idx-in-all-generaetd-257
     RDKit          3D

 26 26  0  0  0  0  0  0  0  0999 V2000
   -0.6395   -2.0713   41.4947 C   0  0  0  0  0  0  0  0  0  0  0  0
    0.6719   -2.2449   41.7518 C   0  0  0  0  0  0  0  0  0  0  0  0
    1.5951   -1.1948   41.6106 C   0  0  0  0  0  0  0  0  0  0  0  0
    2.1924   -0.6388   42.6886 C   0  0  0  0  0  0  0  0  0  0  0  0
    3.3977    0.2661   42.4110 C   0  0  0  0  0  0  0  0  0  0  0  0
   -1.2054   -1.0421   41.9605 O   0  0  0  0  0  0  0  0  0  0  0  0
   -1.3650   -3.1733   41.2885 O   0  0  0  0  0  0  0  0  0  0  0  0
    4.4770    0.2240   43.1266 N   0  0  0  0  0  0  0  0  0  0  0  0
    4.7627   -0.8935   43.7262 C   0  0  0  0  0  0  0  0  0  0  0  0
    5.2230   -1.8176   43.7225 C   0  0  0  0  0  0  0  0  0  0  0  0
    5.5125   -2.8428   44.7060 C   0  0  0  0  0  0  0  0  0  0  0  0
    5.1464   -4.0534   44.8610 C   0  0  0  0  0  0  0  0  0  0  0  0
    3.8563   -4.2178   45.3727 C   0  0  0  0  0  0  0  0  0  0  0  0
    3.1092   -5.4275   45.1312 C   0  0  0  0  0  0  0  0  0  0  0  0
    1.6834   -5.4573   45.1431 C   0  0  0  0  0  0  0  0  0  0  0  0
    0.8288   -6.5075   45.0678 C   0  0  0  0  0  0  0  0  0  0  0  0
   -0.4969   -6.3825   44.8312 C   0  0  0  0  0  0  0  0  0  0  0  0
   -1.1643   -7.5918   44.6587 C   0  0  0  0  0  0  0  0  0  0  0  0
   -2.5032   -7.4909   44.2317 C   0  0  0  0  0  0  0  0  0  0  0  0
   -3.1079   -8.7845   43.8849 C   0  0  0  0  0  0  0  0  0  0  0  0
   -4.4190   -8.5125   43.3983 C   0  0  0  0  0  0  0  0  0  0  0  0
   -5.0373   -9.1572   42.8394 C   0  0  0  0  0  0  0  0  0  0  0  0
   -6.3988   -8.8311   42.2401 C   0  0  0  0  0  0  0  0  0  0  0  0
   -6.8874   -7.5479   42.5880 C   0  0  0  0  0  0  0  0  0  0  0  0
   -6.1380   -6.7377   43.3997 C   0  0  0  0  0  0  0  0  0  0  0  0
   -4.8860   -7.2044   43.8932 C   0  0  0  0  0  0  0  0  0  0  0  0
  1  2  1  0
  2  3  1  0
  3  4  1  0
  4  5  1  0
  1  6  2  0
  1  7  1  0
  5  8  1  0
  8  9  1  0
  9 10  2  3
 10 11  1  0
 11 12  1  0
 12 13  1  0
 13 14  1  0
 14 15  2  3
 15 16  1  0
 16 17  2  3
 17 18  1  0
 18 19  2  3
 19 20  1  0
 20 21  1  0
 21 22  2  0
 22 23  1  0
 23 24  2  0
 24 25  1  0
 25 26  2  0
 26 21  1  0
M  END
$$$$
O14757_PocketFlow_idx-in-all-generaetd-258
     RDKit          3D

 35 38  0  0  0  0  0  0  0  0999 V2000
    0.2881   -2.9111   42.4378 C   0  0  0  0  0  0  0  0  0  0  0  0
    1.1784   -3.4293   42.9321 C   0  0  0  0  0  0  0  0  0  0  0  0
    1.7344   -3.2949   44.1416 C   0  0  0  0  0  0  0  0  0  0  0  0
   -0.1251   -3.1416   41.0579 C   0  0  0  0  0  0  0  0  0  0  0  0
    3.0147   -3.7421   44.4969 C   0  0  0  0  0  0  0  0  0  0  0  0
    3.9704   -3.2083   44.4929 C   0  0  0  0  0  0  0  0  0  0  0  0
    5.2967   -3.5792   45.2139 C   0  0  0  0  0  0  0  0  0  0  0  0
    5.0651   -4.5680   46.1096 C   0  0  0  0  0  0  0  0  0  0  0  0
    3.8704   -5.1728   46.3546 C   0  0  0  0  0  0  0  0  0  0  0  0
    2.7996   -4.8426   45.5731 C   0  0  0  0  0  0  0  0  0  0  0  0
    4.2395   -2.0573   43.4735 C   0  0  0  0  0  0  0  0  0  0  0  0
    3.5616   -1.5888   42.5735 C   0  0  0  0  0  0  0  0  0  0  0  0
    3.8417   -0.2839   42.0294 C   0  0  0  0  0  0  0  0  0  0  0  0
    4.9583    0.1636   42.6142 N   0  0  0  0  0  0  0  0  0  0  0  0
    5.2953   -0.8999   43.7147 C   0  0  2  0  0  0  0  0  0  0  0  0
    6.2980   -0.8228   44.5122 N   0  0  0  0  0  0  0  0  0  0  0  0
    1.5608   -5.5401   45.7406 C   0  0  0  0  0  0  0  0  0  0  0  0
    0.7073   -5.6654   46.3785 O   0  0  0  0  0  0  0  0  0  0  0  0
    1.5445   -6.6856   44.8531 N   0  0  0  0  0  0  0  0  0  0  0  0
    0.4679   -7.5744   44.6778 C   0  0  2  0  0  0  0  0  0  0  0  0
   -0.6496   -6.8331   44.0252 C   0  0  0  0  0  0  0  0  0  0  0  0
   -1.7736   -7.5004   44.1773 N   0  0  0  0  0  0  0  0  0  0  0  0
   -2.2714   -7.9234   45.3795 C   0  0  0  0  0  0  0  0  0  0  0  0
   -3.2625   -7.5905   45.8325 C   0  0  0  0  0  0  0  0  0  0  0  0
   -3.8520   -8.3533   46.9920 C   0  0  0  0  0  0  0  0  0  0  0  0
   -2.8625   -8.8263   47.8626 C   0  0  0  0  0  0  0  0  0  0  0  0
   -1.5493   -9.0641   47.4986 C   0  0  0  0  0  0  0  0  0  0  0  0
   -1.2274   -8.6723   46.1862 C   0  0  0  0  0  0  0  0  0  0  0  0
    0.1835   -8.3465   45.7267 C   0  0  0  0  0  0  0  0  0  0  0  0
   -2.4104   -8.1675   43.0423 C   0  0  0  0  0  0  0  0  0  0  0  0
   -0.5910   -9.6972   48.3079 C   0  0  0  0  0  0  0  0  0  0  0  0
   -0.0586  -10.9270   47.9669 C   0  0  0  0  0  0  0  0  0  0  0  0
    1.2204  -11.1678   48.2009 C   0  0  0  0  0  0  0  0  0  0  0  0
    2.0113  -10.5407   49.1893 C   0  0  0  0  0  0  0  0  0  0  0  0
    1.5244   -9.7917   49.8175 C   0  0  0  0  0  0  0  0  0  0  0  0
  1  2  2  3
  2  3  1  0
  1  4  1  0
  3  5  1  0
  6 11  1  0
 11 12  2  0
 12 13  1  0
 13 14  2  0
 11 15  1  0
 14 15  1  0
 15 16  1  6
 10 17  1  0
 17 18  2  0
 17 19  1  0
 20 19  1  1
 20 21  1  0
 21 22  1  0
 22 23  1  0
 20 29  1  0
 28 29  1  0
 22 30  1  0
 27 31  1  0
 31 32  1  0
 32 33  2  3
 33 34  1  0
 34 35  2  0
 23 24  2  0
 24 25  1  0
 25 26  2  0
 26 27  1  0
 27 28  2  0
 28 23  1  0
  5  6  2  0
  6  7  1  0
  7  8  2  0
  8  9  1  0
  9 10  2  0
 10  5  1  0
M  END
$$$$
O14757_PocketFlow_idx-in-all-generaetd-259
     RDKit          3D

 19 20  0  0  0  0  0  0  0  0999 V2000
   -0.6395   -2.0713   41.4947 C   0  0  0  0  0  0  0  0  0  0  0  0
    0.6719   -2.2449   41.7518 C   0  0  0  0  0  0  0  0  0  0  0  0
    1.1287   -3.3339   42.4778 C   0  0  0  0  0  0  0  0  0  0  0  0
    2.4060   -3.3351   43.0418 C   0  0  0  0  0  0  0  0  0  0  0  0
    2.8579   -4.2212   44.0684 C   0  0  0  0  0  0  0  0  0  0  0  0
    1.8801   -5.1822   44.5266 C   0  0  0  0  0  0  0  0  0  0  0  0
    0.5683   -5.0671   44.0172 C   0  0  0  0  0  0  0  0  0  0  0  0
    0.1857   -4.1701   43.1046 C   0  0  0  0  0  0  0  0  0  0  0  0
   -1.1528   -0.7109   41.1824 C   0  0  0  0  0  0  0  0  0  0  0  0
    1.4156   -1.5454   40.8253 C   0  0  0  0  0  0  0  0  0  0  0  0
    4.1830   -4.1322   44.6256 C   0  0  0  0  0  0  0  0  0  0  0  0
    4.3861   -3.3246   45.7993 C   0  0  0  0  0  0  0  0  0  0  0  0
    4.9432   -2.0257   45.7141 C   0  0  0  0  0  0  0  0  0  0  0  0
    5.4380   -1.4737   44.6044 C   0  0  0  0  0  0  0  0  0  0  0  0
    4.7740   -1.1513   43.4899 C   0  0  0  0  0  0  0  0  0  0  0  0
    5.1163    0.1020   42.7341 C   0  0  0  0  0  0  0  0  0  0  0  0
    1.3426   -0.0973   40.8381 C   0  0  0  0  0  0  0  0  0  0  0  0
   -0.0855    0.2347   40.8340 C   0  0  0  0  0  0  0  0  0  0  0  0
    6.0468    0.7404   43.1970 F   0  0  0  0  0  0  0  0  0  0  0  0
  5 11  1  0
 11 12  1  0
 12 13  2  3
 13 14  1  0
 14 15  1  0
 15 16  2  3
 16 19  1  0
  2  3  1  0
  3  4  2  0
  4  5  1  0
  5  6  2  0
  6  7  1  0
  7  8  2  0
  8  3  1  0
  1  2  2  0
  2 10  1  0
 10 17  2  0
 17 18  1  0
 18  9  2  0
  9  1  1  0
M  END
$$$$
O14757_PocketFlow_idx-in-all-generaetd-260
     RDKit          3D

 22 23  0  0  0  0  0  0  0  0999 V2000
   -0.6395   -2.0713   41.4947 C   0  0  0  0  0  0  0  0  0  0  0  0
    0.1859   -1.1027   41.5970 C   0  0  0  0  0  0  0  0  0  0  0  0
    1.5836   -1.3270   41.4669 C   0  0  0  0  0  0  0  0  0  0  0  0
   -0.2462   -3.3905   41.2409 C   0  0  0  0  0  0  0  0  0  0  0  0
    2.5788   -0.3160   41.7511 C   0  0  0  0  0  0  0  0  0  0  0  0
    3.8805   -0.6481   42.0316 C   0  0  0  0  0  0  0  0  0  0  0  0
    4.7763    0.3621   42.5236 C   0  0  0  0  0  0  0  0  0  0  0  0
    1.1512   -3.6204   41.1506 C   0  0  0  0  0  0  0  0  0  0  0  0
    2.0404   -2.5875   41.2518 C   0  0  0  0  0  0  0  0  0  0  0  0
   -2.0212   -1.7030   41.5631 O   0  0  0  0  0  0  0  0  0  0  0  0
    5.9516   -0.2213   43.1832 C   0  0  0  0  0  0  0  0  0  0  0  0
    5.7911   -1.3388   44.1455 C   0  0  0  0  0  0  0  0  0  0  0  0
    4.9502   -1.5637   44.8309 C   0  0  0  0  0  0  0  0  0  0  0  0
    4.8943   -2.6936   45.8040 C   0  0  0  0  0  0  0  0  0  0  0  0
    6.1313   -3.1648   46.2687 C   0  0  0  0  0  0  0  0  0  0  0  0
    7.3311   -2.6454   45.6584 C   0  0  0  0  0  0  0  0  0  0  0  0
    7.2280   -1.6986   44.5946 C   0  0  0  0  0  0  0  0  0  0  0  0
    6.2370   -4.1452   47.3201 C   0  0  0  0  0  0  0  0  0  0  0  0
    5.8796   -3.8894   48.3607 O   0  0  0  0  0  0  0  0  0  0  0  0
    7.0260   -5.1501   47.1930 O   0  0  0  0  0  0  0  0  0  0  0  0
   -2.7111   -1.2909   40.4789 C   0  0  0  0  0  0  0  0  0  0  0  0
   -4.1509   -1.1126   40.8860 C   0  0  0  0  0  0  0  0  0  0  0  0
  3  5  1  0
  5  6  2  3
  6  7  1  0
  1 10  1  0
  7 11  1  0
 11 12  1  0
 15 18  1  0
 18 19  1  0
 18 20  2  0
 10 21  1  0
 21 22  1  0
 12 13  2  0
 13 14  1  0
 14 15  2  0
 15 16  1  0
 16 17  2  0
 17 12  1  0
  1  2  2  0
  2  3  1  0
  3  9  2  0
  9  8  1  0
  8  4  2  0
  4  1  1  0
M  END
$$$$
O14757_PocketFlow_idx-in-all-generaetd-261
     RDKit          3D

 35 38  0  0  0  0  0  0  0  0999 V2000
    0.2881   -2.9111   42.4378 C   0  0  0  0  0  0  0  0  0  0  0  0
    1.1784   -3.4293   42.9321 C   0  0  0  0  0  0  0  0  0  0  0  0
    2.4507   -2.7243   42.9621 C   0  0  0  0  0  0  0  0  0  0  0  0
    2.5762   -1.5430   42.3314 C   0  0  0  0  0  0  0  0  0  0  0  0
    0.2669   -1.7116   41.6824 C   0  0  0  0  0  0  0  0  0  0  0  0
    1.4692   -1.0385   41.6539 C   0  0  0  0  0  0  0  0  0  0  0  0
    3.7538   -3.0407   43.6817 C   0  0  0  0  0  0  0  0  0  0  0  0
    4.0409   -2.5828   44.9105 C   0  0  0  0  0  0  0  0  0  0  0  0
    5.1685   -3.1410   45.6757 C   0  0  0  0  0  0  0  0  0  0  0  0
    4.7986   -4.2637   46.4311 C   0  0  0  0  0  0  0  0  0  0  0  0
    5.7164   -4.5795   47.3109 C   0  0  0  0  0  0  0  0  0  0  0  0
    6.9992   -3.9445   47.5238 C   0  0  0  0  0  0  0  0  0  0  0  0
    7.2902   -2.8623   46.6356 C   0  0  0  0  0  0  0  0  0  0  0  0
    6.3507   -2.4215   45.7775 C   0  0  0  0  0  0  0  0  0  0  0  0
   -0.9906   -1.1818   41.1253 C   0  0  0  0  0  0  0  0  0  0  0  0
   -2.1887   -1.9880   41.0774 C   0  0  0  0  0  0  0  0  0  0  0  0
   -3.3634   -1.4744   40.6148 C   0  0  0  0  0  0  0  0  0  0  0  0
    6.8646   -1.3013   44.9084 C   0  0  0  0  0  0  0  0  0  0  0  0
   -4.2196   -2.2724   39.8011 C   0  0  0  0  0  0  0  0  0  0  0  0
    7.9891   -4.3969   48.4915 C   0  0  0  0  0  0  0  0  0  0  0  0
    7.5043   -4.7095   49.6777 C   0  0  0  0  0  0  0  0  0  0  0  0
    8.4079   -5.0462   50.7781 C   0  0  0  0  0  0  0  0  0  0  0  0
    9.4335   -4.8251   50.7716 C   0  0  0  0  0  0  0  0  0  0  0  0
   10.1552   -4.3557   49.5821 C   0  0  0  0  0  0  0  0  0  0  0  0
    9.3190   -4.0199   48.4590 C   0  0  0  0  0  0  0  0  0  0  0  0
   -3.8200   -0.2596   41.2479 C   0  0  0  0  0  0  0  0  0  0  0  0
    1.1343   -4.6841   43.8200 C   0  0  0  0  0  0  0  0  0  0  0  0
    1.8536   -4.8999   44.9969 C   0  0  0  0  0  0  0  0  0  0  0  0
    1.6474   -6.0739   45.7429 C   0  0  0  0  0  0  0  0  0  0  0  0
    0.6829   -6.8507   45.3196 C   0  0  0  0  0  0  0  0  0  0  0  0
   -0.1221   -6.6855   44.1173 C   0  0  0  0  0  0  0  0  0  0  0  0
    0.1109   -5.5742   43.4236 C   0  0  0  0  0  0  0  0  0  0  0  0
    0.3411   -8.1599   46.1148 C   0  0  0  0  0  0  0  0  0  0  0  0
   -1.0877   -8.3185   46.4132 C   0  0  0  0  0  0  0  0  0  0  0  0
   -1.9151   -7.3266   46.3253 C   0  0  0  0  0  0  0  0  0  0  0  0
  3  7  1  0
  7  8  1  0
  5 15  1  0
 15 16  1  0
 16 17  1  0
 14 18  1  0
 17 19  2  0
 12 20  1  0
 17 26  1  0
  2 27  1  0
 30 33  1  0
 33 34  1  0
 34 35  2  0
  8  9  1  0
 27 28  2  0
 28 29  1  0
 29 30  2  0
 30 31  1  0
 31 32  2  0
 32 27  1  0
  1  2  2  0
  2  3  1  0
  3  4  2  0
  4  6  1  0
  6  5  2  0
  5  1  1  0
  9 10  2  0
 10 11  1  0
 11 12  2  0
 12 13  1  0
 13 14  2  0
 14  9  1  0
 20 21  2  0
 21 22  1  0
 22 23  2  0
 23 24  1  0
 24 25  2  0
 25 20  1  0
M  END
$$$$
O14757_PocketFlow_idx-in-all-generaetd-262
     RDKit          3D

 35 38  0  0  0  0  0  0  0  0999 V2000
   -0.8794   -1.9236   41.9357 O   0  0  0  0  0  0  0  0  0  0  0  0
    0.3182   -2.2442   41.7073 C   0  0  0  0  0  0  0  0  0  0  0  0
    1.3930   -1.3691   41.5725 C   0  0  0  0  0  0  0  0  0  0  0  0
    2.5842   -1.6677   42.2358 C   0  0  0  0  0  0  0  0  0  0  0  0
    2.7668   -2.8138   43.0798 C   0  0  1  0  0  0  0  0  0  0  0  0
    3.9716   -3.0716   43.7755 C   0  0  0  0  0  0  0  0  0  0  0  0
    4.1080   -4.1423   44.7018 C   0  0  0  0  0  0  0  0  0  0  0  0
    2.9563   -4.9970   44.7545 C   0  0  0  0  0  0  0  0  0  0  0  0
    1.6544   -3.6429   43.4974 C   0  0  0  0  0  0  0  0  0  0  0  0
    1.8127   -4.6519   44.3189 N   0  0  0  0  0  0  0  0  0  0  0  0
    0.1499   -3.2027   40.6801 F   0  0  0  0  0  0  0  0  0  0  0  0
    0.6349   -5.5090   44.5918 C   0  0  1  0  0  0  0  0  0  0  0  0
    0.4433   -6.6204   43.7951 C   0  0  0  0  0  0  0  0  0  0  0  0
    5.0044   -2.1846   43.5602 N   0  0  0  0  0  0  0  0  0  0  0  0
    6.0335   -1.9927   44.4784 C   0  0  0  0  0  0  0  0  0  0  0  0
    6.2390   -2.9444   45.4746 C   0  0  0  0  0  0  0  0  0  0  0  0
    5.2289   -4.0138   45.6035 C   0  0  0  0  0  0  0  0  0  0  0  0
    7.4243   -2.8870   46.2964 C   0  0  0  0  0  0  0  0  0  0  0  0
    7.8094   -3.9264   47.0448 N   0  0  0  0  0  0  0  0  0  0  0  0
    8.4871   -4.0492   47.8011 C   0  0  0  0  0  0  0  0  0  0  0  0
    9.4285   -2.9856   48.1184 C   0  0  0  0  0  0  0  0  0  0  0  0
    8.0251   -1.6771   46.6112 C   0  0  0  0  0  0  0  0  0  0  0  0
    9.1122   -1.6908   47.5568 C   0  0  0  0  0  0  0  0  0  0  0  0
   -0.7620   -7.2782   44.3951 C   0  0  0  0  0  0  0  0  0  0  0  0
   -0.9626   -7.0263   45.7475 C   0  0  2  0  0  0  0  0  0  0  0  0
   -2.1158   -7.8368   46.3419 C   0  0  0  0  0  0  0  0  0  0  0  0
   -3.0930   -8.0439   45.6063 C   0  0  0  0  0  0  0  0  0  0  0  0
   -4.2868   -8.6732   46.0284 C   0  0  0  0  0  0  0  0  0  0  0  0
   -0.1567   -5.8970   46.1969 C   0  0  0  0  0  0  0  0  0  0  0  0
   -4.2454   -8.9310   47.1516 O   0  0  0  0  0  0  0  0  0  0  0  0
   -5.2722   -8.8168   45.2525 O   0  0  0  0  0  0  0  0  0  0  0  0
   10.4717   -2.9843   49.1757 C   0  0  0  0  0  0  0  0  0  0  0  0
   10.1718   -3.4561   50.3353 C   0  0  0  0  0  0  0  0  0  0  0  0
    9.3247   -2.8170   51.1227 C   0  0  0  0  0  0  0  0  0  0  0  0
    7.9155   -3.2527   51.2271 C   0  0  0  0  0  0  0  0  0  0  0  0
  1  2  2  0
  2  3  1  0
  3  4  1  0
  5  4  1  1
  5  6  1  0
  7  8  1  0
  5  9  1  0
  8 10  1  0
  9 10  1  0
  2 11  1  0
 12 10  1  1
 12 13  1  0
 16 18  1  0
 13 24  1  0
 24 25  1  0
 25 26  1  6
 26 27  1  0
 27 28  1  0
 12 29  1  0
 25 29  1  0
 28 30  2  0
 28 31  1  0
 21 32  1  0
 32 33  1  0
 33 34  1  0
 34 35  2  0
 18 19  2  0
 19 20  1  0
 20 21  2  0
 21 23  1  0
 23 22  2  0
 22 18  1  0
  6 14  2  0
 14 15  1  0
 15 16  2  0
 16 17  1  0
 17  7  2  0
  7  6  1  0
M  END
$$$$
O14757_PocketFlow_idx-in-all-generaetd-263
     RDKit          3D

  8  7  0  0  0  0  0  0  0  0999 V2000
    0.0138   -2.7927   42.5918 N   0  0  0  0  0  0  0  0  0  0  0  0
    1.1722   -3.1858   42.8673 C   0  0  2  0  0  0  0  0  0  0  0  0
    1.4725   -4.0593   43.8477 C   0  0  0  0  0  0  0  0  0  0  0  0
    2.6678   -4.0777   44.5978 C   0  0  0  0  0  0  0  0  0  0  0  0
    3.6720   -3.1406   44.1243 C   0  0  0  0  0  0  0  0  0  0  0  0
    5.0386   -3.1569   44.6855 C   0  0  0  0  0  0  0  0  0  0  0  0
    5.9546   -2.1450   44.2637 C   0  0  0  0  0  0  0  0  0  0  0  0
    2.2242   -2.1560   42.5829 C   0  0  0  0  0  0  0  0  0  0  0  0
  1  2  1  0
  2  3  1  0
  3  4  2  3
  4  5  1  0
  5  6  2  3
  6  7  1  0
  2  8  1  1
M  END
$$$$
O14757_PocketFlow_idx-in-all-generaetd-264
     RDKit          3D

 35 36  0  0  0  0  0  0  0  0999 V2000
   -0.6395   -2.0713   41.4947 C   0  0  0  0  0  0  0  0  0  0  0  0
    0.6719   -2.2449   41.7518 C   0  0  1  0  0  0  0  0  0  0  0  0
    1.1287   -3.3339   42.4778 C   0  0  0  0  0  0  0  0  0  0  0  0
    2.4060   -3.3351   43.0418 C   0  0  0  0  0  0  0  0  0  0  0  0
    2.8579   -4.2212   44.0684 C   0  0  0  0  0  0  0  0  0  0  0  0
    1.9658   -5.2493   44.5126 C   0  0  0  0  0  0  0  0  0  0  0  0
    0.6257   -5.1305   44.0221 C   0  0  0  0  0  0  0  0  0  0  0  0
    0.2110   -4.2316   43.0836 C   0  0  0  0  0  0  0  0  0  0  0  0
    1.6164   -1.3409   41.1839 C   0  0  0  0  0  0  0  0  0  0  0  0
    4.2243   -4.1285   44.5905 C   0  0  0  0  0  0  0  0  0  0  0  0
    4.9640   -3.4747   43.8836 F   0  0  0  0  0  0  0  0  0  0  0  0
    4.2394   -3.5684   45.8863 F   0  0  0  0  0  0  0  0  0  0  0  0
    1.9273   -0.0854   42.0727 C   0  0  0  0  0  0  0  0  0  0  0  0
    3.2759    0.1561   42.4264 C   0  0  0  0  0  0  0  0  0  0  0  0
    4.0159   -0.6048   42.1080 O   0  0  0  0  0  0  0  0  0  0  0  0
    4.6511   -5.3909   44.7877 F   0  0  0  0  0  0  0  0  0  0  0  0
   -1.3501   -2.9063   40.8824 O   0  0  0  0  0  0  0  0  0  0  0  0
   -1.3078   -0.9141   41.7029 O   0  0  0  0  0  0  0  0  0  0  0  0
    3.6309    1.4019   42.7965 O   0  0  0  0  0  0  0  0  0  0  0  0
   -0.2793   -6.2162   44.5581 C   0  0  0  0  0  0  0  0  0  0  0  0
   -0.8657   -6.9398   43.7856 O   0  0  0  0  0  0  0  0  0  0  0  0
   -0.4259   -6.3863   45.9322 N   0  0  0  0  0  0  0  0  0  0  0  0
   -1.2357   -7.3662   46.5329 C   0  0  0  0  0  0  0  0  0  0  0  0
   -0.5298   -8.6105   46.6820 C   0  0  0  0  0  0  0  0  0  0  0  0
   -1.2828   -9.7226   47.0221 C   0  0  0  0  0  0  0  0  0  0  0  0
   -2.5340   -9.8350   46.6026 C   0  0  0  0  0  0  0  0  0  0  0  0
   -3.2212   -8.6497   46.1298 C   0  0  0  0  0  0  0  0  0  0  0  0
   -2.4331   -7.4272   45.9610 C   0  0  0  0  0  0  0  0  0  0  0  0
   -4.5917   -8.7315   45.6284 C   0  0  0  0  0  0  0  0  0  0  0  0
   -4.7828   -8.9180   44.5589 O   0  0  0  0  0  0  0  0  0  0  0  0
   -5.2142   -7.9632   43.6464 C   0  0  0  0  0  0  0  0  0  0  0  0
   -4.9381   -8.2630   42.2643 C   0  0  0  0  0  0  0  0  0  0  0  0
   -5.9282   -8.1611   41.4433 O   0  0  0  0  0  0  0  0  0  0  0  0
    0.9235   -8.7132   46.5019 C   0  0  0  0  0  0  0  0  0  0  0  0
    1.6805   -9.8142   47.0286 C   0  0  0  0  0  0  0  0  0  0  0  0
  1  2  1  0
  2  9  1  6
  5 10  1  0
 10 11  1  0
 10 12  1  0
  9 13  1  0
 13 14  1  0
 14 15  2  0
 10 16  1  0
  1 17  2  0
  1 18  1  0
 14 19  1  0
  7 20  1  0
 20 21  2  0
 20 22  1  0
 22 23  1  0
 27 29  1  0
 29 30  1  0
 30 31  1  0
 31 32  1  0
 32 33  1  0
 24 34  1  0
 34 35  2  0
  2  3  1  0
 23 24  2  0
 24 25  1  0
 25 26  2  0
 26 27  1  0
 27 28  2  0
 28 23  1  0
  3  4  2  0
  4  5  1  0
  5  6  2  0
  6  7  1  0
  7  8  2  0
  8  3  1  0
M  END
$$$$
O14757_PocketFlow_idx-in-all-generaetd-265
     RDKit          3D

 20 21  0  0  0  0  0  0  0  0999 V2000
   -0.6395   -2.0713   41.4947 C   0  0  0  0  0  0  0  0  0  0  0  0
   -0.2671   -3.2464   41.6546 C   0  0  0  0  0  0  0  0  0  0  0  0
   -2.0053   -1.6706   41.3987 C   0  0  0  0  0  0  0  0  0  0  0  0
   -2.2928   -0.3176   41.3208 C   0  0  1  0  0  0  0  0  0  0  0  0
   -1.2669    0.4402   41.3701 F   0  0  0  0  0  0  0  0  0  0  0  0
    0.4045   -1.0868   41.4829 C   0  0  0  0  0  0  0  0  0  0  0  0
    1.7700   -1.3885   41.6363 C   0  0  0  0  0  0  0  0  0  0  0  0
    2.0655   -2.6568   42.1006 C   0  0  0  0  0  0  0  0  0  0  0  0
    1.0201   -3.6172   42.0677 C   0  0  0  0  0  0  0  0  0  0  0  0
    2.7068   -0.3026   41.7873 C   0  0  0  0  0  0  0  0  0  0  0  0
    3.4843   -0.0920   42.9952 C   0  0  0  0  0  0  0  0  0  0  0  0
    4.8646   -0.5953   42.9869 C   0  0  0  0  0  0  0  0  0  0  0  0
    5.2180   -1.7729   42.9619 C   0  0  0  0  0  0  0  0  0  0  0  0
   -3.1582    0.1047   40.3244 O   0  0  0  0  0  0  0  0  0  0  0  0
    5.0362   -2.4907   44.2778 C   0  0  0  0  0  0  0  0  0  0  0  0
    4.4109   -3.7300   44.3543 C   0  0  0  0  0  0  0  0  0  0  0  0
    4.2613   -4.4322   45.5151 C   0  0  0  0  0  0  0  0  0  0  0  0
    4.8675   -3.8747   46.7403 C   0  0  0  0  0  0  0  0  0  0  0  0
    5.7664   -2.9766   46.5931 C   0  0  0  0  0  0  0  0  0  0  0  0
    5.8705   -2.0934   45.4239 C   0  0  0  0  0  0  0  0  0  0  0  0
  3  4  1  0
  4  5  1  0
  7 10  1  0
 10 11  1  0
 11 12  1  0
 12 13  1  0
  4 14  1  6
 13 15  1  0
  3  1  1  0
 15 16  2  0
 16 17  1  0
 17 18  2  0
 18 19  1  0
 19 20  2  0
 20 15  1  0
  1  2  2  0
  2  9  1  0
  9  8  2  0
  8  7  1  0
  7  6  2  0
  6  1  1  0
M  END
$$$$
O14757_PocketFlow_idx-in-all-generaetd-266
     RDKit          3D

 26 27  0  0  0  0  0  0  0  0999 V2000
   -0.8794   -1.9236   41.9357 O   0  0  0  0  0  0  0  0  0  0  0  0
    0.3182   -2.2442   41.7073 C   0  0  2  0  0  0  0  0  0  0  0  0
    0.6211   -3.6733   41.8069 C   0  0  0  0  0  0  0  0  0  0  0  0
    1.3468   -1.3327   41.4438 C   0  0  0  0  0  0  0  0  0  0  0  0
    2.5869   -1.5128   42.0935 C   0  0  0  0  0  0  0  0  0  0  0  0
    3.6017   -0.5502   41.9889 C   0  0  0  0  0  0  0  0  0  0  0  0
    4.1915   -0.2931   43.3587 C   0  0  0  0  0  0  0  0  0  0  0  0
    4.6682   -1.3732   44.1709 C   0  0  0  0  0  0  0  0  0  0  0  0
    5.5103   -1.1667   45.2378 C   0  0  0  0  0  0  0  0  0  0  0  0
    4.0674   -2.6204   43.8524 C   0  0  0  0  0  0  0  0  0  0  0  0
    4.2542   -3.7178   44.6916 C   0  0  0  0  0  0  0  0  0  0  0  0
    2.8308   -2.6064   43.0491 C   0  0  0  0  0  0  0  0  0  0  0  0
    5.8648   -2.3719   46.0246 C   0  0  0  0  0  0  0  0  0  0  0  0
    6.9879   -2.4314   46.9441 C   0  0  0  0  0  0  0  0  0  0  0  0
    5.3105   -3.6456   45.6998 C   0  0  0  0  0  0  0  0  0  0  0  0
    8.1198   -3.2014   46.6287 C   0  0  0  0  0  0  0  0  0  0  0  0
    8.8757   -3.5122   47.4806 C   0  0  0  0  0  0  0  0  0  0  0  0
   10.1048   -3.8537   47.2485 C   0  0  0  0  0  0  0  0  0  0  0  0
    3.7128   -4.9857   44.4119 C   0  0  0  0  0  0  0  0  0  0  0  0
    3.1694   -5.7458   45.6015 C   0  0  0  0  0  0  0  0  0  0  0  0
    1.7645   -6.1240   45.3940 C   0  0  0  0  0  0  0  0  0  0  0  0
    0.8758   -5.0616   45.5118 C   0  0  0  0  0  0  0  0  0  0  0  0
   -0.4932   -5.3259   46.0124 C   0  0  0  0  0  0  0  0  0  0  0  0
   -1.0031   -6.6342   45.6662 C   0  0  0  0  0  0  0  0  0  0  0  0
   -1.1485   -7.0012   44.5750 C   0  0  0  0  0  0  0  0  0  0  0  0
   -0.5316   -6.4433   43.4265 C   0  0  0  0  0  0  0  0  0  0  0  0
  1  2  1  0
  2  3  1  1
  2  4  1  0
  4  5  1  0
 13 14  1  0
 14 16  1  0
 16 17  1  0
 17 18  2  0
 11 19  1  0
 19 20  1  0
 20 21  1  0
 21 22  2  3
 22 23  1  0
 23 24  1  0
 24 25  2  3
 25 26  1  0
  5  6  2  0
  6  7  1  0
  7  8  2  0
 10 12  2  0
 12  5  1  0
  8  9  1  0
  9 13  2  0
 13 15  1  0
 15 11  2  0
 11 10  1  0
 10  8  1  0
M  END
$$$$
O14757_PocketFlow_idx-in-all-generaetd-267
     RDKit          3D

 35 38  0  0  0  0  0  0  0  0999 V2000
    0.2881   -2.9111   42.4378 C   0  0  0  0  0  0  0  0  0  0  0  0
    1.1784   -3.4293   42.9321 C   0  0  0  0  0  0  0  0  0  0  0  0
    2.4507   -2.7243   42.9621 C   0  0  0  0  0  0  0  0  0  0  0  0
    2.5762   -1.5430   42.3314 C   0  0  0  0  0  0  0  0  0  0  0  0
    0.2669   -1.7116   41.6824 C   0  0  0  0  0  0  0  0  0  0  0  0
    1.4692   -1.0385   41.6539 C   0  0  0  0  0  0  0  0  0  0  0  0
    3.6383   -3.2079   43.7484 C   0  0  0  0  0  0  0  0  0  0  0  0
    4.6381   -2.3902   44.2743 C   0  0  1  0  0  0  0  0  0  0  0  0
    5.5720   -2.8707   45.1751 C   0  0  0  0  0  0  0  0  0  0  0  0
    6.7429   -2.1086   45.5862 C   0  0  0  0  0  0  0  0  0  0  0  0
    7.6867   -2.7398   46.4372 C   0  0  0  0  0  0  0  0  0  0  0  0
    7.3669   -4.0010   46.9637 C   0  0  0  0  0  0  0  0  0  0  0  0
    6.1145   -4.5283   46.7788 C   0  0  0  0  0  0  0  0  0  0  0  0
    5.2202   -3.9393   45.8976 C   0  0  0  0  0  0  0  0  0  0  0  0
   -0.9903   -1.3233   41.2709 N   0  0  0  0  0  0  0  0  0  0  0  0
   -2.2575   -1.6707   41.4174 C   0  0  0  0  0  0  0  0  0  0  0  0
   -3.2330   -1.0534   40.6338 C   0  0  0  0  0  0  0  0  0  0  0  0
    9.0021   -2.2577   46.7639 C   0  0  0  0  0  0  0  0  0  0  0  0
   10.1016   -2.9056   46.9895 C   0  0  0  0  0  0  0  0  0  0  0  0
   11.3750   -2.3388   47.1818 C   0  0  0  0  0  0  0  0  0  0  0  0
   11.4276   -0.9364   47.1930 C   0  0  0  0  0  0  0  0  0  0  0  0
   10.3148   -0.2005   46.8107 C   0  0  0  0  0  0  0  0  0  0  0  0
    9.1157   -0.7621   46.6217 C   0  0  0  0  0  0  0  0  0  0  0  0
    4.8345   -1.0529   43.6726 C   0  0  0  0  0  0  0  0  0  0  0  0
    3.7940   -0.6460   42.6601 C   0  0  0  0  0  0  0  0  0  0  0  0
    5.7750   -0.2572   43.8426 O   0  0  0  0  0  0  0  0  0  0  0  0
   12.7685   -0.2545   47.3576 C   0  0  0  0  0  0  0  0  0  0  0  0
   13.1897   -0.0657   48.6474 C   0  0  0  0  0  0  0  0  0  0  0  0
   12.7576   -0.6586   49.6805 C   0  0  0  0  0  0  0  0  0  0  0  0
   12.3678   -1.6340   49.9090 C   0  0  0  0  0  0  0  0  0  0  0  0
   11.8697   -2.1862   51.2384 C   0  0  0  0  0  0  0  0  0  0  0  0
   11.2442   -3.4021   51.3683 C   0  0  0  0  0  0  0  0  0  0  0  0
   11.1223   -4.1566   50.2064 C   0  0  0  0  0  0  0  0  0  0  0  0
   10.3777   -5.3241   50.4038 C   0  0  0  0  0  0  0  0  0  0  0  0
    9.4503   -5.2974   50.8742 C   0  0  0  0  0  0  0  0  0  0  0  0
  3  7  1  0
  7  8  1  0
  5 15  1  0
 15 16  1  0
 16 17  1  0
 11 18  1  0
  8 24  1  0
  4 25  1  0
 24 25  1  0
 24 26  2  0
 21 27  1  0
 27 28  1  0
 28 29  1  0
 29 30  2  3
 30 31  1  0
 31 32  2  3
 32 33  1  0
 33 34  2  3
 34 35  1  0
  8  9  1  6
 18 19  2  0
 19 20  1  0
 20 21  2  0
 21 22  1  0
 22 23  2  0
 23 18  1  0
  1  2  2  0
  2  3  1  0
  3  4  2  0
  4  6  1  0
  6  5  2  0
  5  1  1  0
  9 10  2  0
 10 11  1  0
 11 12  2  0
 12 13  1  0
 13 14  2  0
 14  9  1  0
M  END
$$$$
O14757_PocketFlow_idx-in-all-generaetd-268
     RDKit          3D

 22 25  0  0  0  0  0  0  0  0999 V2000
   -0.8794   -1.9236   41.9357 O   0  0  0  0  0  0  0  0  0  0  0  0
    0.3070   -1.6014   41.6735 C   0  0  0  0  0  0  0  0  0  0  0  0
    0.8076   -0.3104   41.6588 C   0  0  0  0  0  0  0  0  0  0  0  0
    2.1973   -0.1560   42.0682 C   0  0  0  0  0  0  0  0  0  0  0  0
    3.0388   -1.2356   42.4097 C   0  0  0  0  0  0  0  0  0  0  0  0
    4.3822   -1.0853   42.7927 C   0  0  0  0  0  0  0  0  0  0  0  0
    5.0430   -2.1546   43.3863 C   0  0  0  0  0  0  0  0  0  0  0  0
    1.1984   -2.7341   42.1193 C   0  0  0  0  0  0  0  0  0  0  0  0
    2.4894   -2.4747   42.5386 C   0  0  0  0  0  0  0  0  0  0  0  0
    6.2261   -1.8057   44.2020 C   0  0  0  0  0  0  0  0  0  0  0  0
    6.7385   -2.7387   45.1301 C   0  0  0  0  0  0  0  0  0  0  0  0
    5.8742   -3.8462   45.5035 C   0  0  0  0  0  0  0  0  0  0  0  0
    4.6356   -3.9809   44.8551 C   0  0  0  0  0  0  0  0  0  0  0  0
    4.2056   -3.1352   43.9408 C   0  0  0  0  0  0  0  0  0  0  0  0
    2.9422   -3.3455   43.4284 C   0  0  0  0  0  0  0  0  0  0  0  0
    8.0031   -2.5065   45.8373 C   0  0  0  0  0  0  0  0  0  0  0  0
    8.6196   -3.5531   46.5715 C   0  0  0  0  0  0  0  0  0  0  0  0
    9.8515   -3.2706   47.1738 C   0  0  0  0  0  0  0  0  0  0  0  0
    8.6733   -1.2935   45.8069 C   0  0  0  0  0  0  0  0  0  0  0  0
    9.8759   -1.0133   46.5033 C   0  0  0  0  0  0  0  0  0  0  0  0
   10.4454   -2.0360   47.1844 C   0  0  0  0  0  0  0  0  0  0  0  0
   -1.5153   -2.7353   40.9713 C   0  0  0  0  0  0  0  0  0  0  0  0
  1  2  1  0
 11 16  1  0
  1 22  1  0
  7 10  1  0
 10 11  2  0
 11 12  1  0
 12 13  2  0
 13 14  1  0
  2  3  2  0
  3  4  1  0
  4  5  2  0
  9  8  2  0
  8  2  1  0
  5  6  1  0
  6  7  2  0
  7 14  1  0
 14 15  2  0
 15  9  1  0
  9  5  1  0
 16 17  2  0
 17 18  1  0
 18 21  2  0
 21 20  1  0
 20 19  2  0
 19 16  1  0
M  END
$$$$
O14757_PocketFlow_idx-in-all-generaetd-269
     RDKit          3D

 10 11  0  0  0  0  0  0  0  0999 V2000
   -0.6395   -2.0713   41.4947 C   0  0  0  0  0  0  0  0  0  0  0  0
   -0.2671   -3.2464   41.6546 C   0  0  0  0  0  0  0  0  0  0  0  0
    0.2407   -0.9706   41.5952 C   0  0  0  0  0  0  0  0  0  0  0  0
    1.6195   -1.2958   41.8767 C   0  0  0  0  0  0  0  0  0  0  0  0
    1.9162   -2.6816   42.2016 C   0  0  0  0  0  0  0  0  0  0  0  0
    0.9422   -3.6324   42.1156 C   0  0  0  0  0  0  0  0  0  0  0  0
    2.4594   -0.2052   42.1939 C   0  0  0  0  0  0  0  0  0  0  0  0
    3.8581   -0.4928   42.4122 C   0  0  0  0  0  0  0  0  0  0  0  0
    4.2893   -1.7424   42.8085 C   0  0  0  0  0  0  0  0  0  0  0  0
    3.2413   -2.8014   42.7342 C   0  0  0  0  0  0  0  0  0  0  0  0
  5 10  1  0
 10  9  2  0
  9  8  1  0
  8  7  2  0
  7  4  1  0
  1  2  2  0
  2  6  1  0
  6  5  2  0
  5  4  1  0
  4  3  2  0
  3  1  1  0
M  END
$$$$
O14757_PocketFlow_idx-in-all-generaetd-270
     RDKit          3D

 21 23  0  0  0  0  0  0  0  0999 V2000
   -0.6395   -2.0713   41.4947 C   0  0  0  0  0  0  0  0  0  0  0  0
    0.1859   -1.1027   41.5970 C   0  0  0  0  0  0  0  0  0  0  0  0
   -0.2410   -3.3795   41.5297 C   0  0  0  0  0  0  0  0  0  0  0  0
    1.6125   -1.3642   41.8466 C   0  0  0  0  0  0  0  0  0  0  0  0
    2.5720   -0.3568   42.0335 C   0  0  0  0  0  0  0  0  0  0  0  0
    3.8647   -0.6704   42.4195 C   0  0  1  0  0  0  0  0  0  0  0  0
    4.8224    0.2982   42.7827 C   0  0  0  0  0  0  0  0  0  0  0  0
    1.0714   -3.7341   41.8674 C   0  0  0  0  0  0  0  0  0  0  0  0
    1.9515   -2.6785   42.0173 C   0  0  0  0  0  0  0  0  0  0  0  0
   -2.1060   -1.8325   41.1578 C   0  0  0  0  0  0  0  0  0  0  0  0
   -2.8536   -2.7130   40.6020 N   0  0  0  0  0  0  0  0  0  0  0  0
   -2.5914   -0.6465   41.4428 O   0  0  0  0  0  0  0  0  0  0  0  0
    5.9367   -0.2129   43.4275 N   0  0  0  0  0  0  0  0  0  0  0  0
    5.7226   -1.4864   43.9141 C   0  0  0  0  0  0  0  0  0  0  0  0
    4.2238   -1.8514   43.2573 C   0  0  0  0  0  0  0  0  0  0  0  0
    6.4059   -2.2113   44.8087 C   0  0  0  0  0  0  0  0  0  0  0  0
    5.8571   -3.3974   45.4954 C   0  0  0  0  0  0  0  0  0  0  0  0
    6.5504   -3.8029   46.6645 C   0  0  0  0  0  0  0  0  0  0  0  0
    7.8039   -3.2624   47.0235 C   0  0  0  0  0  0  0  0  0  0  0  0
    7.5198   -1.6501   45.5053 C   0  0  0  0  0  0  0  0  0  0  0  0
    8.2625   -2.1373   46.4805 C   0  0  0  0  0  0  0  0  0  0  0  0
  4  5  1  0
  6  5  1  1
  6  7  1  0
  1 10  1  0
 10 11  1  0
 10 12  2  0
  7 13  2  0
 13 14  1  0
  6 15  1  0
 14 15  2  0
 14 16  1  0
  1  2  2  0
  2  4  1  0
  4  9  2  0
  9  8  1  0
  8  3  2  0
  3  1  1  0
 16 17  2  0
 17 18  1  0
 18 19  2  0
 19 21  1  0
 21 20  2  0
 20 16  1  0
M  END
$$$$
O14757_PocketFlow_idx-in-all-generaetd-271
     RDKit          3D

 23 25  0  0  0  0  0  0  0  0999 V2000
   -0.8794   -1.9236   41.9357 O   0  0  0  0  0  0  0  0  0  0  0  0
    0.3182   -2.2442   41.7073 C   0  0  0  0  0  0  0  0  0  0  0  0
    0.5667   -3.6280   41.6085 N   0  0  0  0  0  0  0  0  0  0  0  0
    1.4046   -1.3356   41.4658 C   0  0  0  0  0  0  0  0  0  0  0  0
    2.5830   -1.4830   42.2639 C   0  0  0  0  0  0  0  0  0  0  0  0
    3.5214   -0.4754   42.1489 C   0  0  0  0  0  0  0  0  0  0  0  0
    4.7002   -0.6248   42.9974 C   0  0  0  0  0  0  0  0  0  0  0  0
    4.8617   -1.7409   43.8284 C   0  0  0  0  0  0  0  0  0  0  0  0
    3.8728   -2.7227   43.8120 C   0  0  0  0  0  0  0  0  0  0  0  0
    2.7502   -2.5881   43.0655 C   0  0  0  0  0  0  0  0  0  0  0  0
    6.0572   -1.7936   44.6727 C   0  0  0  0  0  0  0  0  0  0  0  0
    6.2408   -2.8964   45.6002 C   0  0  0  0  0  0  0  0  0  0  0  0
    7.3330   -2.9602   46.4739 C   0  0  0  0  0  0  0  0  0  0  0  0
    7.4154   -4.0761   47.3526 C   0  0  0  0  0  0  0  0  0  0  0  0
    6.2026   -4.7202   47.6571 C   0  0  0  0  0  0  0  0  0  0  0  0
    5.0286   -4.4764   46.9443 C   0  0  0  0  0  0  0  0  0  0  0  0
    5.0297   -3.4783   46.0343 C   0  0  0  0  0  0  0  0  0  0  0  0
    3.8496   -3.4879   45.1397 C   0  0  0  0  0  0  0  0  0  0  0  0
    2.8087   -4.1819   45.3348 O   0  0  0  0  0  0  0  0  0  0  0  0
    6.2657   -5.7231   48.8059 C   0  0  2  0  0  0  0  0  0  0  0  0
    5.2729   -5.8257   49.4311 O   0  0  0  0  0  0  0  0  0  0  0  0
    7.4401   -6.1078   49.2400 N   0  0  0  0  0  0  0  0  0  0  0  0
    7.5544   -7.0875   50.3034 C   0  0  0  0  0  0  0  0  0  0  0  0
  1  2  2  0
  2  3  1  0
  2  4  1  0
  4  5  1  0
  8 11  1  0
  9 18  1  0
 17 18  1  0
 18 19  2  0
 15 20  1  0
 20 21  1  1
 20 22  1  0
 22 23  1  0
 11 12  1  0
 12 13  2  0
 13 14  1  0
 14 15  2  0
 15 16  1  0
 16 17  2  0
 17 12  1  0
  5  6  2  0
  6  7  1  0
  7  8  2  0
  8  9  1  0
  9 10  2  0
 10  5  1  0
M  END
$$$$
O14757_PocketFlow_idx-in-all-generaetd-272
     RDKit          3D

 34 37  0  0  0  0  0  0  0  0999 V2000
    0.2881   -2.9111   42.4378 C   0  0  0  0  0  0  0  0  0  0  0  0
    1.3023   -2.0648   42.1981 C   0  0  0  0  0  0  0  0  0  0  0  0
    2.5200   -2.2700   42.7141 C   0  0  0  0  0  0  0  0  0  0  0  0
    3.5901   -1.3450   42.5364 C   0  0  0  0  0  0  0  0  0  0  0  0
    4.8853   -1.5459   43.2165 C   0  0  0  0  0  0  0  0  0  0  0  0
    5.7461   -0.4457   43.4777 C   0  0  0  0  0  0  0  0  0  0  0  0
    0.5754   -4.0263   43.2886 C   0  0  0  0  0  0  0  0  0  0  0  0
    1.7309   -4.0950   44.0515 C   0  0  0  0  0  0  0  0  0  0  0  0
    2.7753   -3.1858   43.7953 C   0  0  0  0  0  0  0  0  0  0  0  0
    1.8737   -5.1463   45.0856 C   0  0  0  0  0  0  0  0  0  0  0  0
    0.8285   -5.7806   45.5385 C   0  0  0  0  0  0  0  0  0  0  0  0
    0.7577   -7.1903   45.3932 C   0  0  0  0  0  0  0  0  0  0  0  0
   -0.1516   -7.7843   46.2128 C   0  0  0  0  0  0  0  0  0  0  0  0
   -1.5148   -7.3714   46.1083 C   0  0  0  0  0  0  0  0  0  0  0  0
   -2.3040   -7.9966   45.1263 C   0  0  0  0  0  0  0  0  0  0  0  0
   -2.0260   -8.2215   43.9679 C   0  0  0  0  0  0  0  0  0  0  0  0
   -3.6203   -8.5163   45.6038 C   0  0  0  0  0  0  0  0  0  0  0  0
   -4.6697   -8.6884   44.6878 C   0  0  0  0  0  0  0  0  0  0  0  0
   -3.0756   -8.2892   42.9262 C   0  0  0  0  0  0  0  0  0  0  0  0
   -4.3507   -8.6650   43.3629 C   0  0  0  0  0  0  0  0  0  0  0  0
    1.1157   -1.1688   41.2262 F   0  0  0  0  0  0  0  0  0  0  0  0
    3.1834   -5.4191   45.6011 C   0  0  0  0  0  0  0  0  0  0  0  0
    3.5630   -5.1393   46.6504 O   0  0  0  0  0  0  0  0  0  0  0  0
    6.6437   -0.6042   44.3684 N   0  0  0  0  0  0  0  0  0  0  0  0
    6.5943   -1.7005   45.3025 C   0  0  0  0  0  0  0  0  0  0  0  0
    7.7468   -2.0312   46.0821 C   0  0  0  0  0  0  0  0  0  0  0  0
    7.7676   -3.1814   46.8616 C   0  0  0  0  0  0  0  0  0  0  0  0
    8.7786   -3.6635   47.6658 C   0  0  0  0  0  0  0  0  0  0  0  0
    8.6105   -4.8517   48.4530 C   0  0  0  0  0  0  0  0  0  0  0  0
    7.3126   -5.4118   48.4356 C   0  0  0  0  0  0  0  0  0  0  0  0
    6.2644   -4.8920   47.7331 C   0  0  0  0  0  0  0  0  0  0  0  0
    6.4156   -3.7701   46.9686 C   0  0  0  0  0  0  0  0  0  0  0  0
    5.6074   -2.6478   44.9994 C   0  0  0  0  0  0  0  0  0  0  0  0
    4.7110   -2.4248   44.0017 N   0  0  0  0  0  0  0  0  0  0  0  0
  3  4  1  0
  4  5  1  0
  8 10  1  0
 10 11  1  0
 11 12  1  0
 12 13  1  0
 13 14  1  0
 14 15  1  0
  2 21  1  0
 10 22  1  0
 22 23  2  0
 25 26  1  0
 26 27  1  0
  5  6  2  0
  6 24  1  0
 24 25  2  0
 25 33  1  0
 33 34  2  0
 34  5  1  0
 27 28  2  0
 28 29  1  0
 29 30  2  0
 30 31  1  0
 31 32  2  0
 32 27  1  0
  1  2  2  0
  2  3  1  0
  3  9  2  0
  9  8  1  0
  8  7  2  0
  7  1  1  0
 15 16  2  0
 16 19  1  0
 19 20  2  0
 20 18  1  0
 18 17  2  0
 17 15  1  0
M  END
$$$$
O14757_PocketFlow_idx-in-all-generaetd-273
     RDKit          3D

 18 20  0  0  0  0  0  0  0  0999 V2000
    0.2881   -2.9111   42.4378 C   0  0  0  0  0  0  0  0  0  0  0  0
    1.1784   -3.4293   42.9321 C   0  0  0  0  0  0  0  0  0  0  0  0
    2.4507   -2.7243   42.9621 C   0  0  0  0  0  0  0  0  0  0  0  0
    2.5762   -1.5430   42.3314 C   0  0  0  0  0  0  0  0  0  0  0  0
    0.2682   -1.7017   41.6882 C   0  0  0  0  0  0  0  0  0  0  0  0
    1.4524   -1.0424   41.6523 C   0  0  0  0  0  0  0  0  0  0  0  0
    3.7561   -3.0398   43.6850 C   0  0  0  0  0  0  0  0  0  0  0  0
    3.9126   -4.2524   44.4302 C   0  0  0  0  0  0  0  0  0  0  0  0
    2.9754   -5.1899   44.6634 C   0  0  0  0  0  0  0  0  0  0  0  0
    3.4009   -6.3610   45.4005 C   0  0  0  0  0  0  0  0  0  0  0  0
    2.5537   -7.4516   45.5130 C   0  0  0  0  0  0  0  0  0  0  0  0
    1.2292   -7.2952   45.0766 C   0  0  0  0  0  0  0  0  0  0  0  0
    0.7669   -6.1231   44.4989 C   0  0  0  0  0  0  0  0  0  0  0  0
    1.6492   -5.0698   44.3076 C   0  0  0  0  0  0  0  0  0  0  0  0
    1.0840   -4.0088   43.6733 N   0  0  0  0  0  0  0  0  0  0  0  0
   -1.3595   -1.0713   40.9593 Br  0  0  0  0  0  0  0  0  0  0  0  0
    4.8717   -2.1734   43.4937 C   0  0  0  0  0  0  0  0  0  0  0  0
    4.8263   -0.9555   43.1001 C   0  0  0  0  0  0  0  0  0  0  0  0
  3  7  1  0
  7  8  2  0
  8  9  1  0
  2 15  1  0
 14 15  1  0
  5 16  1  0
  7 17  1  0
 17 18  2  0
  1  2  2  0
  2  3  1  0
  3  4  2  0
  4  6  1  0
  6  5  2  0
  5  1  1  0
  9 10  2  0
 10 11  1  0
 11 12  2  0
 12 13  1  0
 13 14  2  0
 14  9  1  0
M  END
$$$$
O14757_PocketFlow_idx-in-all-generaetd-274
     RDKit          3D

 12 12  0  0  0  0  0  0  0  0999 V2000
   -0.6395   -2.0713   41.4947 C   0  0  0  0  0  0  0  0  0  0  0  0
   -0.2671   -3.2464   41.6546 C   0  0  0  0  0  0  0  0  0  0  0  0
    0.2277   -0.9875   41.6495 C   0  0  0  0  0  0  0  0  0  0  0  0
    1.6284   -1.2752   41.8841 C   0  0  0  0  0  0  0  0  0  0  0  0
    1.8971   -2.6873   42.1685 C   0  0  0  0  0  0  0  0  0  0  0  0
    3.2056   -2.9302   42.7434 C   0  0  0  0  0  0  0  0  0  0  0  0
    0.9813   -3.6325   42.0216 C   0  0  0  0  0  0  0  0  0  0  0  0
    3.3996   -3.8528   43.8132 C   0  0  0  0  0  0  0  0  0  0  0  0
    4.2773   -3.6503   44.8394 C   0  0  0  0  0  0  0  0  0  0  0  0
    4.3567   -4.5551   45.9266 C   0  0  0  0  0  0  0  0  0  0  0  0
    5.3113   -4.3315   47.0098 C   0  0  0  0  0  0  0  0  0  0  0  0
    6.2117   -3.2413   46.7999 C   0  0  0  0  0  0  0  0  0  0  0  0
  5  6  1  0
  6  8  2  3
  8  9  1  0
  9 10  2  3
 10 11  1  0
 11 12  2  0
  1  2  2  0
  2  7  1  0
  7  5  2  0
  5  4  1  0
  4  3  2  0
  3  1  1  0
M  END
$$$$
O14757_PocketFlow_idx-in-all-generaetd-275
     RDKit          3D

 34 37  0  0  0  0  0  0  0  0999 V2000
   -0.6395   -2.0713   41.4947 C   0  0  0  0  0  0  0  0  0  0  0  0
   -0.2671   -3.2464   41.6546 C   0  0  0  0  0  0  0  0  0  0  0  0
    0.2277   -0.9875   41.6495 C   0  0  0  0  0  0  0  0  0  0  0  0
    1.5674   -1.3182   41.7554 C   0  0  0  0  0  0  0  0  0  0  0  0
    1.9085   -2.6890   42.0909 C   0  0  0  0  0  0  0  0  0  0  0  0
    0.9467   -3.6547   41.9678 C   0  0  0  0  0  0  0  0  0  0  0  0
    2.5661   -0.2882   42.0472 C   0  0  0  0  0  0  0  0  0  0  0  0
    3.8375   -0.5926   42.5632 C   0  0  0  0  0  0  0  0  0  0  0  0
    4.8279    0.3632   42.8163 C   0  0  0  0  0  0  0  0  0  0  0  0
   -2.0984   -1.7446   41.1342 C   0  0  0  0  0  0  0  0  0  0  0  0
   -3.0506   -1.7443   40.7151 N   0  0  0  0  0  0  0  0  0  0  0  0
    4.1684   -1.9318   42.9581 C   0  0  0  0  0  0  0  0  0  0  0  0
    3.1210   -2.9047   42.7407 N   0  0  0  0  0  0  0  0  0  0  0  0
    5.2283   -2.2509   43.5308 N   0  0  0  0  0  0  0  0  0  0  0  0
    5.5389   -1.7576   44.7613 C   0  0  0  0  0  0  0  0  0  0  0  0
    5.4332   -2.4772   45.9419 C   0  0  0  0  0  0  0  0  0  0  0  0
    6.0629   -3.1090   46.6890 C   0  0  0  0  0  0  0  0  0  0  0  0
    5.6244   -3.8857   47.8276 C   0  0  0  0  0  0  0  0  0  0  0  0
    6.5281   -4.6085   48.6030 C   0  0  0  0  0  0  0  0  0  0  0  0
    7.8811   -4.5503   48.4033 C   0  0  0  0  0  0  0  0  0  0  0  0
    8.3939   -3.8395   47.3244 C   0  0  0  0  0  0  0  0  0  0  0  0
    7.5551   -3.0998   46.4702 C   0  0  0  0  0  0  0  0  0  0  0  0
    9.8667   -3.8085   47.0196 C   0  0  0  0  0  0  0  0  0  0  0  0
   10.6478   -2.7307   47.1113 C   0  0  0  0  0  0  0  0  0  0  0  0
   10.1202   -1.5069   47.4314 C   0  0  0  0  0  0  0  0  0  0  0  0
   11.0351   -0.5120   47.5503 N   0  0  0  0  0  0  0  0  0  0  0  0
   12.0742   -2.7898   46.9315 C   0  0  0  0  0  0  0  0  0  0  0  0
   12.9204   -1.7099   46.9916 C   0  0  0  0  0  0  0  0  0  0  0  0
   12.2994   -0.4768   47.3638 C   0  0  0  0  0  0  0  0  0  0  0  0
   10.3671   -5.1258   46.5522 C   0  0  0  0  0  0  0  0  0  0  0  0
   11.2666   -5.6534   46.3974 C   0  0  0  0  0  0  0  0  0  0  0  0
   11.4295   -7.0602   45.8956 C   0  0  0  0  0  0  0  0  0  0  0  0
   10.2796   -7.7711   45.9667 C   0  0  0  0  0  0  0  0  0  0  0  0
    9.1157   -7.2906   46.5623 C   0  0  0  0  0  0  0  0  0  0  0  0
  8  9  1  0
  1 10  1  0
 10 11  3  0
 12 14  1  0
 14 15  1  0
 15 16  1  0
 21 23  1  0
 23 24  1  0
 23 30  1  0
 30 31  2  3
 31 32  1  0
 32 33  2  3
 33 34  1  0
 16 17  1  0
 17 18  2  0
 18 19  1  0
 19 20  2  0
 20 21  1  0
 21 22  2  0
 22 17  1  0
  1  2  2  0
  2  6  1  0
  6  5  2  0
  4  3  2  0
  3  1  1  0
  4  5  1  0
  5 13  1  0
 13 12  2  0
 12  8  1  0
  8  7  2  0
  7  4  1  0
 24 25  2  0
 25 26  1  0
 26 29  2  0
 29 28  1  0
 28 27  2  0
 27 24  1  0
M  END
$$$$
O14757_PocketFlow_idx-in-all-generaetd-276
     RDKit          3D

 35 36  0  0  0  0  0  0  0  0999 V2000
   -0.6395   -2.0713   41.4947 C   0  0  0  0  0  0  0  0  0  0  0  0
    0.1859   -1.1027   41.5970 C   0  0  0  0  0  0  0  0  0  0  0  0
    1.5836   -1.3270   41.4669 C   0  0  0  0  0  0  0  0  0  0  0  0
   -0.2462   -3.3905   41.2409 C   0  0  0  0  0  0  0  0  0  0  0  0
    2.0075   -2.6977   41.3340 C   0  0  0  0  0  0  0  0  0  0  0  0
    1.0655   -3.6470   41.1373 C   0  0  0  0  0  0  0  0  0  0  0  0
    2.5048   -0.3416   41.6826 N   0  0  0  0  0  0  0  0  0  0  0  0
    3.5415   -0.3915   42.5684 C   0  0  0  0  0  0  0  0  0  0  0  0
    3.7847   -1.3646   43.5173 C   0  0  0  0  0  0  0  0  0  0  0  0
    4.9170   -1.2236   44.3598 C   0  0  0  0  0  0  0  0  0  0  0  0
    5.1514   -2.2035   45.3604 C   0  0  0  0  0  0  0  0  0  0  0  0
    4.3991   -3.3935   45.4259 C   0  0  0  0  0  0  0  0  0  0  0  0
    3.3250   -3.5040   44.5137 C   0  0  0  0  0  0  0  0  0  0  0  0
    3.2324   -2.5730   43.6423 C   0  0  0  0  0  0  0  0  0  0  0  0
    4.3456    0.6540   42.4857 O   0  0  0  0  0  0  0  0  0  0  0  0
    4.6723   -4.3577   46.5011 C   0  0  0  0  0  0  0  0  0  0  0  0
    4.9798   -3.5765   47.6004 F   0  0  0  0  0  0  0  0  0  0  0  0
    5.8134   -5.0596   46.1961 F   0  0  0  0  0  0  0  0  0  0  0  0
    3.6693   -5.1548   46.6957 F   0  0  0  0  0  0  0  0  0  0  0  0
   -2.0266   -1.8196   41.5291 O   0  0  0  0  0  0  0  0  0  0  0  0
   -2.8262   -1.9952   40.4646 C   0  0  0  0  0  0  0  0  0  0  0  0
   -3.9397   -1.1134   40.4836 C   0  0  0  0  0  0  0  0  0  0  0  0
   -3.8291   -0.0762   41.2239 O   0  0  0  0  0  0  0  0  0  0  0  0
   -4.7347   -1.0952   39.5023 O   0  0  0  0  0  0  0  0  0  0  0  0
    2.5389   -4.6938   44.5769 C   0  0  0  0  0  0  0  0  0  0  0  0
    1.2327   -4.6759   44.6797 C   0  0  0  0  0  0  0  0  0  0  0  0
    0.3655   -5.8312   44.6298 C   0  0  0  0  0  0  0  0  0  0  0  0
    0.9010   -6.9529   45.1851 C   0  0  0  0  0  0  0  0  0  0  0  0
    0.0108   -8.1192   45.3212 C   0  0  0  0  0  0  0  0  0  0  0  0
    0.1021   -8.7987   46.5708 C   0  0  2  0  0  0  0  0  0  0  0  0
   -0.8978   -8.6312   47.5132 C   0  0  0  0  0  0  0  0  0  0  0  0
   -1.7974   -7.6492   47.2859 C   0  0  0  0  0  0  0  0  0  0  0  0
   -1.0842   -9.5178   48.6345 C   0  0  0  0  0  0  0  0  0  0  0  0
    1.2738   -9.5932   46.8747 C   0  0  0  0  0  0  0  0  0  0  0  0
    2.0931   -9.6157   45.9581 F   0  0  0  0  0  0  0  0  0  0  0  0
  3  7  1  0
  7  8  1  0
  8  9  1  0
  8 15  2  0
 12 16  1  0
 16 17  1  0
 16 18  1  0
 16 19  1  0
  1 20  1  0
 20 21  1  0
 21 22  1  0
 22 23  1  0
 22 24  2  0
 13 25  1  0
 25 26  1  0
 26 27  2  3
 27 28  1  0
 28 29  1  0
 30 29  1  1
 30 31  1  0
 31 32  1  0
 31 33  1  0
 30 34  1  0
 34 35  1  0
  1  2  2  0
  2  3  1  0
  3  5  2  0
  5  6  1  0
  6  4  2  0
  4  1  1  0
  9 10  2  0
 10 11  1  0
 11 12  2  0
 12 13  1  0
 13 14  2  0
 14  9  1  0
M  END
$$$$
O14757_PocketFlow_idx-in-all-generaetd-277
     RDKit          3D

 23 26  0  0  0  0  0  0  0  0999 V2000
   -0.6395   -2.0713   41.4947 C   0  0  0  0  0  0  0  0  0  0  0  0
   -0.2671   -3.2464   41.6546 C   0  0  0  0  0  0  0  0  0  0  0  0
    0.2277   -0.9875   41.6495 C   0  0  0  0  0  0  0  0  0  0  0  0
    1.6284   -1.2752   41.8841 C   0  0  0  0  0  0  0  0  0  0  0  0
    2.6421   -0.3335   42.0825 C   0  0  0  0  0  0  0  0  0  0  0  0
    3.8980   -0.6935   42.5215 C   0  0  0  0  0  0  0  0  0  0  0  0
    4.9125    0.2028   42.8756 C   0  0  0  0  0  0  0  0  0  0  0  0
    1.0599   -3.6657   41.9597 C   0  0  0  0  0  0  0  0  0  0  0  0
    1.9590   -2.5920   42.1652 C   0  0  0  0  0  0  0  0  0  0  0  0
   -2.0793   -1.7707   41.1289 C   0  0  0  0  0  0  0  0  0  0  0  0
   -2.8067   -2.6276   40.6357 O   0  0  0  0  0  0  0  0  0  0  0  0
   -2.5847   -0.6071   41.5422 O   0  0  0  0  0  0  0  0  0  0  0  0
    6.0016   -0.4052   43.5658 C   0  0  0  0  0  0  0  0  0  0  0  0
    5.8933   -1.6216   44.3064 C   0  0  0  0  0  0  0  0  0  0  0  0
    4.7609   -2.4209   43.9969 C   0  0  0  0  0  0  0  0  0  0  0  0
    4.6760   -3.6431   44.6229 C   0  0  0  0  0  0  0  0  0  0  0  0
    3.8008   -1.9443   43.1970 C   0  0  0  0  0  0  0  0  0  0  0  0
    3.0200   -2.8331   42.8147 N   0  0  0  0  0  0  0  0  0  0  0  0
    5.1389   -3.9120   45.9910 C   0  0  0  0  0  0  0  0  0  0  0  0
    4.8032   -5.0862   46.6737 C   0  0  0  0  0  0  0  0  0  0  0  0
    3.9101   -5.9283   46.0013 C   0  0  0  0  0  0  0  0  0  0  0  0
    3.4603   -5.7119   44.7022 C   0  0  0  0  0  0  0  0  0  0  0  0
    3.8127   -4.5336   44.0848 C   0  0  0  0  0  0  0  0  0  0  0  0
  4  5  1  0
  5  6  1  0
  1 10  1  0
 10 11  2  0
 10 12  1  0
 15 16  1  0
  9 18  1  0
 17 18  1  0
  1  2  2  0
  2  8  1  0
  8  9  2  0
  9  4  1  0
  4  3  2  0
  3  1  1  0
 16 19  2  0
 19 20  1  0
 20 21  2  0
 21 22  1  0
 22 23  2  0
 23 16  1  0
  6  7  2  0
  7 13  1  0
 13 14  2  0
 14 15  1  0
 15 17  2  0
 17  6  1  0
M  END
$$$$
O14757_PocketFlow_idx-in-all-generaetd-278
     RDKit          3D

 35 39  0  0  0  0  0  0  0  0999 V2000
   -0.6395   -2.0713   41.4947 C   0  0  0  0  0  0  0  0  0  0  0  0
    0.6719   -2.2449   41.7518 C   0  0  0  0  0  0  0  0  0  0  0  0
    1.5951   -1.1948   41.6106 C   0  0  0  0  0  0  0  0  0  0  0  0
    2.9587   -1.3961   42.0240 C   0  0  0  0  0  0  0  0  0  0  0  0
    3.1652   -2.3460   43.1085 C   0  0  0  0  0  0  0  0  0  0  0  0
    4.5010   -2.4269   43.6771 C   0  0  0  0  0  0  0  0  0  0  0  0
    4.6828   -3.3864   44.7249 C   0  0  0  0  0  0  0  0  0  0  0  0
    3.6177   -4.3183   44.9719 C   0  0  0  0  0  0  0  0  0  0  0  0
    2.4149   -4.2162   44.3461 C   0  0  0  0  0  0  0  0  0  0  0  0
    2.1572   -3.2260   43.4208 C   0  0  0  0  0  0  0  0  0  0  0  0
    0.8810   -3.1540   42.8526 C   0  0  0  0  0  0  0  0  0  0  0  0
   -1.3913   -3.0603   41.0968 O   0  0  0  0  0  0  0  0  0  0  0  0
   -1.2293   -0.8604   41.3706 O   0  0  0  0  0  0  0  0  0  0  0  0
    6.1767   -3.4239   45.5273 Cl  0  0  0  0  0  0  0  0  0  0  0  0
    1.3820   -5.1636   44.7637 C   0  0  0  0  0  0  0  0  0  0  0  0
    0.4659   -5.6077   44.4571 C   0  0  0  0  0  0  0  0  0  0  0  0
   -0.4502   -6.5973   45.0118 C   0  0  0  0  0  0  0  0  0  0  0  0
   -0.2084   -6.7414   46.3890 C   0  0  0  0  0  0  0  0  0  0  0  0
    0.7874   -6.0729   47.0238 C   0  0  0  0  0  0  0  0  0  0  0  0
    1.5872   -5.1742   46.3501 C   0  0  0  0  0  0  0  0  0  0  0  0
   -1.1555   -7.6500   47.1658 C   0  0  0  0  0  0  0  0  0  0  0  0
   -2.3439   -7.5140   46.9457 O   0  0  0  0  0  0  0  0  0  0  0  0
   -0.6919   -8.3787   48.0940 O   0  0  0  0  0  0  0  0  0  0  0  0
    5.5060   -1.3976   43.4014 C   0  0  0  0  0  0  0  0  0  0  0  0
    6.0061   -0.7092   44.5641 C   0  0  0  0  0  0  0  0  0  0  0  0
    6.9668   -1.4162   45.3699 C   0  0  0  0  0  0  0  0  0  0  0  0
    8.3866   -0.9556   45.2817 C   0  0  0  0  0  0  0  0  0  0  0  0
    9.2998   -1.4702   46.2726 C   0  0  0  0  0  0  0  0  0  0  0  0
    8.9292   -2.6143   47.0159 C   0  0  0  0  0  0  0  0  0  0  0  0
    9.7983   -3.1648   47.9181 C   0  0  0  0  0  0  0  0  0  0  0  0
    9.4099   -4.3024   48.6977 C   0  0  0  0  0  0  0  0  0  0  0  0
    8.0851   -4.8234   48.4079 C   0  0  0  0  0  0  0  0  0  0  0  0
    7.2506   -4.2116   47.5305 C   0  0  0  0  0  0  0  0  0  0  0  0
    7.6614   -3.1553   46.8355 C   0  0  0  0  0  0  0  0  0  0  0  0
    6.8193   -2.3101   46.0381 N   0  0  0  0  0  0  0  0  0  0  0  0
  1  2  1  0
  1 12  2  0
  1 13  1  0
  7 14  1  0
  9 15  1  0
 18 21  1  0
 21 22  1  0
 21 23  2  0
  6 24  1  0
 24 25  1  0
 25 26  1  0
 15 16  2  0
 16 17  1  0
 17 18  2  0
 18 19  1  0
 19 20  2  0
 20 15  1  0
  2  3  2  0
  3  4  1  0
  4  5  2  0
 10 11  2  0
 11  2  1  0
  5  6  1  0
  6  7  2  0
  7  8  1  0
  8  9  2  0
  9 10  1  0
 10  5  1  0
 26 27  2  0
 27 28  1  0
 28 29  2  0
 34 35  2  0
 35 26  1  0
 29 30  1  0
 30 31  2  0
 31 32  1  0
 32 33  2  0
 33 34  1  0
 34 29  1  0
M  END
$$$$
O14757_PocketFlow_idx-in-all-generaetd-279
     RDKit          3D

 11 10  0  0  0  0  0  0  0  0999 V2000
    0.2881   -2.9111   42.4378 C   0  0  0  0  0  0  0  0  0  0  0  0
    1.1784   -3.4293   42.9321 C   0  0  0  0  0  0  0  0  0  0  0  0
    1.6466   -3.2662   44.1990 C   0  0  0  0  0  0  0  0  0  0  0  0
   -0.0878   -3.2042   41.0598 C   0  0  0  0  0  0  0  0  0  0  0  0
    2.4224   -4.3571   44.8898 C   0  0  0  0  0  0  0  0  0  0  0  0
    3.9285   -4.1740   44.9318 C   0  0  0  0  0  0  0  0  0  0  0  0
    4.4180   -3.1922   45.8573 C   0  0  0  0  0  0  0  0  0  0  0  0
    5.7858   -3.0602   45.9845 C   0  0  0  0  0  0  0  0  0  0  0  0
    6.6480   -3.8494   46.6185 C   0  0  0  0  0  0  0  0  0  0  0  0
    8.0508   -3.5574   46.6883 C   0  0  0  0  0  0  0  0  0  0  0  0
    9.0101   -4.2600   47.4485 C   0  0  0  0  0  0  0  0  0  0  0  0
  1  2  1  0
  2  3  1  0
  1  4  1  0
  3  5  1  0
  5  6  1  0
  6  7  1  0
  7  8  1  0
  8  9  2  3
  9 10  1  0
 10 11  1  0
M  END
$$$$
O14757_PocketFlow_idx-in-all-generaetd-280
     RDKit          3D

 12 13  0  0  0  0  0  0  0  0999 V2000
    0.2881   -2.9111   42.4378 C   0  0  0  0  0  0  0  0  0  0  0  0
    1.1784   -3.4293   42.9321 C   0  0  0  0  0  0  0  0  0  0  0  0
    2.4696   -2.7231   42.8997 C   0  0  0  0  0  0  0  0  0  0  0  0
    2.5380   -1.5398   42.2487 C   0  0  0  0  0  0  0  0  0  0  0  0
    0.2254   -1.7181   41.6878 C   0  0  0  0  0  0  0  0  0  0  0  0
    1.4043   -1.0577   41.5785 C   0  0  0  0  0  0  0  0  0  0  0  0
    3.6662   -3.1326   43.6719 C   0  0  0  0  0  0  0  0  0  0  0  0
    4.6321   -2.2547   44.1531 C   0  0  0  0  0  0  0  0  0  0  0  0
    5.6476   -2.6394   44.9548 C   0  0  0  0  0  0  0  0  0  0  0  0
    5.6322   -3.9651   45.5360 C   0  0  0  0  0  0  0  0  0  0  0  0
    3.7038   -4.3978   44.3445 C   0  0  0  0  0  0  0  0  0  0  0  0
    4.6555   -4.7575   45.2273 C   0  0  0  0  0  0  0  0  0  0  0  0
  3  7  1  0
  7  8  2  0
  8  9  1  0
  9 10  2  0
 10 12  1  0
 12 11  2  0
 11  7  1  0
  1  2  2  0
  2  3  1  0
  3  4  2  0
  4  6  1  0
  6  5  2  0
  5  1  1  0
M  END
$$$$
O14757_PocketFlow_idx-in-all-generaetd-281
     RDKit          3D

  6  6  0  0  0  0  0  0  0  0999 V2000
   -0.6395   -2.0713   41.4947 C   0  0  0  0  0  0  0  0  0  0  0  0
    0.1859   -1.1027   41.5970 C   0  0  0  0  0  0  0  0  0  0  0  0
   -0.2410   -3.3795   41.5297 C   0  0  0  0  0  0  0  0  0  0  0  0
    1.6125   -1.3641   41.8466 C   0  0  0  0  0  0  0  0  0  0  0  0
    1.9568   -2.7213   42.1561 C   0  0  0  0  0  0  0  0  0  0  0  0
    0.9568   -3.6932   42.0424 C   0  0  0  0  0  0  0  0  0  0  0  0
  1  2  2  0
  2  4  1  0
  4  5  2  0
  5  6  1  0
  6  3  2  0
  3  1  1  0
M  END
$$$$
O14757_PocketFlow_idx-in-all-generaetd-282
     RDKit          3D

 29 30  0  0  0  0  0  0  0  0999 V2000
    0.2881   -2.9111   42.4378 C   0  0  0  0  0  0  0  0  0  0  0  0
    1.1784   -3.4293   42.9321 C   0  0  0  0  0  0  0  0  0  0  0  0
    1.7344   -3.2949   44.1416 C   0  0  0  0  0  0  0  0  0  0  0  0
   -0.1251   -3.1416   41.0579 C   0  0  0  0  0  0  0  0  0  0  0  0
    3.0147   -3.7421   44.4969 C   0  0  0  0  0  0  0  0  0  0  0  0
    3.5852   -4.7026   44.8874 C   0  0  0  0  0  0  0  0  0  0  0  0
    2.8257   -5.8136   45.3711 C   0  0  0  0  0  0  0  0  0  0  0  0
    3.5447   -6.9084   45.7425 N   0  0  0  0  0  0  0  0  0  0  0  0
    1.6184   -5.8876   45.2566 O   0  0  0  0  0  0  0  0  0  0  0  0
    2.8939   -8.0936   46.2706 C   0  0  0  0  0  0  0  0  0  0  0  0
    3.9856   -2.5407   43.9710 C   0  0  0  0  0  0  0  0  0  0  0  0
    5.0872   -2.2369   44.7744 C   0  0  0  0  0  0  0  0  0  0  0  0
    5.9372   -1.1902   44.3608 C   0  0  0  0  0  0  0  0  0  0  0  0
    5.6089   -0.4315   43.2427 C   0  0  0  0  0  0  0  0  0  0  0  0
    4.3337   -0.6011   42.6525 C   0  0  0  0  0  0  0  0  0  0  0  0
    3.5622   -1.6638   43.0027 C   0  0  0  0  0  0  0  0  0  0  0  0
    3.7626   -8.9031   47.0708 C   0  0  0  0  0  0  0  0  0  0  0  0
    3.3689  -10.1583   47.5598 C   0  0  0  0  0  0  0  0  0  0  0  0
    1.9393  -10.3754   47.3649 C   0  0  0  0  0  0  0  0  0  0  0  0
    1.1136   -9.5642   46.6743 C   0  0  0  0  0  0  0  0  0  0  0  0
    1.6264   -8.4158   46.1228 C   0  0  0  0  0  0  0  0  0  0  0  0
    7.1135   -0.9936   44.9620 F   0  0  0  0  0  0  0  0  0  0  0  0
   -1.3590   -2.7706   40.7562 N   0  0  0  0  0  0  0  0  0  0  0  0
   -1.9983   -1.7956   41.4765 C   0  0  0  0  0  0  0  0  0  0  0  0
   -3.1335   -1.2515   40.8905 N   0  0  0  0  0  0  0  0  0  0  0  0
   -3.8765   -1.8598   40.0555 C   0  0  0  0  0  0  0  0  0  0  0  0
   -3.2656    0.2661   41.0041 C   0  0  0  0  0  0  0  0  0  0  0  0
    5.2172   -8.6540   47.3109 C   0  0  0  0  0  0  0  0  0  0  0  0
    5.8477   -9.2467   48.4933 Br  0  0  0  0  0  0  0  0  0  0  0  0
  1  2  2  3
  2  3  1  0
  1  4  1  0
  3  5  1  0
  5  6  2  3
  6  7  1  0
  7  8  1  0
  7  9  2  0
  8 10  1  0
  5 11  1  0
 13 22  1  0
  4 23  1  0
 23 24  1  0
 24 25  1  0
 25 26  1  0
 25 27  1  0
 17 28  1  0
 28 29  1  0
 11 12  2  0
 12 13  1  0
 13 14  2  0
 14 15  1  0
 15 16  2  0
 16 11  1  0
 10 17  2  0
 17 18  1  0
 18 19  2  0
 19 20  1  0
 20 21  2  0
 21 10  1  0
M  END
$$$$
O14757_PocketFlow_idx-in-all-generaetd-283
     RDKit          3D

 14 14  0  0  0  0  0  0  0  0999 V2000
   -0.6395   -2.0713   41.4947 C   0  0  0  0  0  0  0  0  0  0  0  0
   -0.2671   -3.2464   41.6546 C   0  0  0  0  0  0  0  0  0  0  0  0
    0.2407   -0.9706   41.5952 C   0  0  0  0  0  0  0  0  0  0  0  0
    1.6195   -1.2958   41.8767 C   0  0  0  0  0  0  0  0  0  0  0  0
    1.9162   -2.6816   42.2016 C   0  0  0  0  0  0  0  0  0  0  0  0
    0.9422   -3.6324   42.1156 C   0  0  0  0  0  0  0  0  0  0  0  0
    2.6088   -0.2775   42.1300 C   0  0  2  0  0  0  0  0  0  0  0  0
    2.5071    1.0156   41.8230 C   0  0  0  0  0  0  0  0  0  0  0  0
    3.9347   -0.7818   42.5946 C   0  0  0  0  0  0  0  0  0  0  0  0
    4.9284    0.1806   42.9939 C   0  0  0  0  0  0  0  0  0  0  0  0
    1.3756    1.3910   41.4617 F   0  0  0  0  0  0  0  0  0  0  0  0
    6.0761   -0.4448   43.4939 C   0  0  0  0  0  0  0  0  0  0  0  0
    6.0011   -1.6458   44.2946 C   0  0  0  0  0  0  0  0  0  0  0  0
    4.8827   -2.4790   44.0551 C   0  0  0  0  0  0  0  0  0  0  0  0
  4  7  1  0
  7  8  1  6
  7  9  1  0
  9 10  2  3
  8 11  1  0
 10 12  1  0
 12 13  2  3
 13 14  1  0
  1  2  2  0
  2  6  1  0
  6  5  2  0
  5  4  1  0
  4  3  2  0
  3  1  1  0
M  END
$$$$
O14757_PocketFlow_idx-in-all-generaetd-284
     RDKit          3D

 26 28  0  0  0  0  0  0  0  0999 V2000
   -0.8794   -1.9236   41.9357 O   0  0  0  0  0  0  0  0  0  0  0  0
    0.3182   -2.2442   41.7073 C   0  0  0  0  0  0  0  0  0  0  0  0
    1.3766   -1.3498   41.6019 C   0  0  0  0  0  0  0  0  0  0  0  0
    2.6423   -1.6963   42.1387 C   0  0  0  0  0  0  0  0  0  0  0  0
    3.6323   -0.7168   42.3533 C   0  0  0  0  0  0  0  0  0  0  0  0
    4.8502   -1.0065   43.0448 C   0  0  0  0  0  0  0  0  0  0  0  0
    4.8776   -2.2728   43.7408 C   0  0  0  0  0  0  0  0  0  0  0  0
    3.7512   -3.1062   43.6740 C   0  0  0  0  0  0  0  0  0  0  0  0
    2.6097   -2.7404   43.0111 C   0  0  0  0  0  0  0  0  0  0  0  0
    3.5973   -4.3138   44.5283 C   0  0  0  0  0  0  0  0  0  0  0  0
    4.6546   -4.8193   45.2297 C   0  0  0  0  0  0  0  0  0  0  0  0
    2.3198   -4.9012   44.5350 C   0  0  0  0  0  0  0  0  0  0  0  0
    2.1254   -6.2371   44.9286 C   0  0  0  0  0  0  0  0  0  0  0  0
    4.3683   -6.0725   45.9454 C   0  0  0  0  0  0  0  0  0  0  0  0
    3.1879   -6.7182   45.8355 C   0  0  0  0  0  0  0  0  0  0  0  0
    0.8904   -6.8816   44.9191 C   0  0  0  0  0  0  0  0  0  0  0  0
    0.3243   -7.4520   46.0409 C   0  0  0  0  0  0  0  0  0  0  0  0
   -1.0117   -8.0439   45.9490 C   0  0  0  0  0  0  0  0  0  0  0  0
   -1.6725   -8.6648   47.0023 C   0  0  0  0  0  0  0  0  0  0  0  0
   -1.0422   -8.6740   48.1596 C   0  0  0  0  0  0  0  0  0  0  0  0
    0.2717   -8.1164   48.3228 C   0  0  0  0  0  0  0  0  0  0  0  0
    0.9184   -7.4964   47.3039 C   0  0  0  0  0  0  0  0  0  0  0  0
   -2.9988   -9.1837   46.7578 C   0  0  0  0  0  0  0  0  0  0  0  0
   -3.8062   -9.4634   47.5928 O   0  0  0  0  0  0  0  0  0  0  0  0
   -3.4380   -9.3036   45.5061 O   0  0  0  0  0  0  0  0  0  0  0  0
    0.4601   -3.5214   41.4911 O   0  0  0  0  0  0  0  0  0  0  0  0
  1  2  1  0
  2  3  1  0
  3  4  1  0
  8 10  1  0
 13 16  1  0
 19 23  1  0
 23 24  2  0
 23 25  1  0
  2 26  2  0
 16 17  1  0
 17 18  2  0
 18 19  1  0
 19 20  2  0
 20 21  1  0
 21 22  2  0
 22 17  1  0
 10 11  2  0
 11 14  1  0
 14 15  2  0
 15 13  1  0
 13 12  2  0
 12 10  1  0
  4  5  2  0
  5  6  1  0
  6  7  2  0
  7  8  1  0
  8  9  2  0
  9  4  1  0
M  END
$$$$
O14757_PocketFlow_idx-in-all-generaetd-285
     RDKit          3D

  6  6  0  0  0  0  0  0  0  0999 V2000
    0.2881   -2.9111   42.4378 C   0  0  0  0  0  0  0  0  0  0  0  0
    1.1784   -3.4293   42.9321 C   0  0  0  0  0  0  0  0  0  0  0  0
    2.4696   -2.7231   42.8997 C   0  0  0  0  0  0  0  0  0  0  0  0
    2.5380   -1.5398   42.2487 C   0  0  0  0  0  0  0  0  0  0  0  0
    0.2254   -1.7181   41.6878 C   0  0  0  0  0  0  0  0  0  0  0  0
    1.4043   -1.0577   41.5785 C   0  0  0  0  0  0  0  0  0  0  0  0
  1  2  2  0
  2  3  1  0
  3  4  2  0
  4  6  1  0
  6  5  2  0
  5  1  1  0
M  END
$$$$
O14757_PocketFlow_idx-in-all-generaetd-286
     RDKit          3D

 22 24  0  0  0  0  0  0  0  0999 V2000
   -0.6395   -2.0713   41.4947 C   0  0  0  0  0  0  0  0  0  0  0  0
    0.6719   -2.2449   41.7518 C   0  0  0  0  0  0  0  0  0  0  0  0
    1.5951   -1.1948   41.6106 C   0  0  0  0  0  0  0  0  0  0  0  0
    2.9587   -1.3961   42.0241 C   0  0  0  0  0  0  0  0  0  0  0  0
    3.1652   -2.3460   43.1085 C   0  0  0  0  0  0  0  0  0  0  0  0
    4.5010   -2.4269   43.6771 C   0  0  0  0  0  0  0  0  0  0  0  0
    5.3513   -1.3399   43.5095 C   0  0  0  0  0  0  0  0  0  0  0  0
   -1.1196   -0.7667   41.2888 C   0  0  0  0  0  0  0  0  0  0  0  0
    5.0336   -0.3087   42.6417 C   0  0  0  0  0  0  0  0  0  0  0  0
    3.7307   -0.0853   42.4009 C   0  0  0  0  0  0  0  0  0  0  0  0
   -0.1412    0.2648   41.2375 C   0  0  0  0  0  0  0  0  0  0  0  0
    1.1276    0.0860   41.4811 C   0  0  0  0  0  0  0  0  0  0  0  0
    4.8075   -3.6031   44.4556 C   0  0  0  0  0  0  0  0  0  0  0  0
    5.4483   -3.5305   45.6351 N   0  0  0  0  0  0  0  0  0  0  0  0
    6.6578   -3.1066   45.7592 C   0  0  0  0  0  0  0  0  0  0  0  0
    7.4199   -3.3755   47.0236 C   0  0  0  0  0  0  0  0  0  0  0  0
    8.7973   -3.1926   47.1832 C   0  0  0  0  0  0  0  0  0  0  0  0
    4.8498   -3.9439   46.8306 C   0  0  0  0  0  0  0  0  0  0  0  0
    9.3536   -3.5349   48.3807 C   0  0  0  0  0  0  0  0  0  0  0  0
    8.5067   -3.8426   49.5001 C   0  0  0  0  0  0  0  0  0  0  0  0
    7.1608   -3.9305   49.3207 C   0  0  0  0  0  0  0  0  0  0  0  0
    6.5766   -3.6855   48.0944 C   0  0  0  0  0  0  0  0  0  0  0  0
  3  4  1  0
  6 13  1  0
 13 14  1  0
 14 15  1  0
 14 18  1  0
 15 16  1  0
  1  2  2  0
  2  3  1  0
  3 12  2  0
 12 11  1  0
 11  8  2  0
  8  1  1  0
  4  5  2  0
  5  6  1  0
  6  7  2  0
  7  9  1  0
  9 10  2  0
 10  4  1  0
 16 17  2  0
 17 19  1  0
 19 20  2  0
 20 21  1  0
 21 22  2  0
 22 16  1  0
M  END
$$$$
O14757_PocketFlow_idx-in-all-generaetd-287
     RDKit          3D

 19 20  0  0  0  0  0  0  0  0999 V2000
    0.2881   -2.9111   42.4378 C   0  0  0  0  0  0  0  0  0  0  0  0
    1.3023   -2.0648   42.1981 C   0  0  1  0  0  0  0  0  0  0  0  0
    2.5313   -2.2887   42.6989 C   0  0  0  0  0  0  0  0  0  0  0  0
    2.7349   -3.3003   43.6759 C   0  0  0  0  0  0  0  0  0  0  0  0
    1.6954   -4.1653   43.9556 C   0  0  2  0  0  0  0  0  0  0  0  0
    0.5250   -3.9420   43.3173 N   0  0  0  0  0  0  0  0  0  0  0  0
    1.8466   -5.1566   44.9705 C   0  0  0  0  0  0  0  0  0  0  0  0
    0.8026   -5.3210   45.9002 C   0  0  0  0  0  0  0  0  0  0  0  0
   -0.8320   -2.8458   41.8826 O   0  0  0  0  0  0  0  0  0  0  0  0
    0.0690   -6.5456   45.9836 C   0  0  0  0  0  0  0  0  0  0  0  0
   -1.2987   -6.6830   45.6375 C   0  0  0  0  0  0  0  0  0  0  0  0
   -1.6682   -7.9916   45.0392 C   0  0  0  0  0  0  0  0  0  0  0  0
    1.1102   -0.9659   41.2472 C   0  0  0  0  0  0  0  0  0  0  0  0
    3.8893   -3.5730   44.5023 C   0  0  0  0  0  0  0  0  0  0  0  0
    5.0387   -2.6359   44.3893 C   0  0  0  0  0  0  0  0  0  0  0  0
    6.1193   -2.7911   45.2855 C   0  0  0  0  0  0  0  0  0  0  0  0
    6.1388   -3.8891   46.1743 C   0  0  0  0  0  0  0  0  0  0  0  0
    4.9478   -4.6382   46.3485 C   0  0  0  0  0  0  0  0  0  0  0  0
    3.9081   -4.4690   45.5048 C   0  0  0  0  0  0  0  0  0  0  0  0
  1  2  1  0
  2  3  1  0
  4  5  1  0
  1  6  1  0
  5  6  1  0
  5  7  1  1
  7  8  1  0
  1  9  2  0
  8 10  1  0
 10 11  1  0
 11 12  1  0
  2 13  1  6
  4 14  1  0
  3  4  1  0
 14 15  2  0
 15 16  1  0
 16 17  2  0
 17 18  1  0
 18 19  2  0
 19 14  1  0
M  END
$$$$
O14757_PocketFlow_idx-in-all-generaetd-288
     RDKit          3D

 11 10  0  0  0  0  0  0  0  0999 V2000
    0.2881   -2.9111   42.4378 C   0  0  0  0  0  0  0  0  0  0  0  0
   -0.0650   -2.5021   41.5798 C   0  0  0  0  0  0  0  0  0  0  0  0
    1.6221   -3.4772   42.5980 C   0  0  0  0  0  0  0  0  0  0  0  0
    2.3234   -2.8634   43.7452 C   0  0  0  0  0  0  0  0  0  0  0  0
    3.6204   -3.3149   44.0792 C   0  0  0  0  0  0  0  0  0  0  0  0
    4.3284   -3.5163   44.8943 C   0  0  0  0  0  0  0  0  0  0  0  0
   -1.4202   -1.9795   41.3558 C   0  0  0  0  0  0  0  0  0  0  0  0
    4.2920   -4.5229   45.7812 C   0  0  0  0  0  0  0  0  0  0  0  0
    5.2415   -4.6238   46.8850 C   0  0  0  0  0  0  0  0  0  0  0  0
    6.2103   -3.5479   46.9326 C   0  0  0  0  0  0  0  0  0  0  0  0
    6.2560   -2.5423   46.0107 C   0  0  0  0  0  0  0  0  0  0  0  0
  1  2  1  0
  1  3  1  0
  3  4  1  0
  4  5  1  0
  5  6  3  0
  2  7  1  0
  6  8  1  0
  8  9  2  3
  9 10  1  0
 10 11  2  0
M  END
$$$$
O14757_PocketFlow_idx-in-all-generaetd-289
     RDKit          3D

  6  5  0  0  0  0  0  0  0  0999 V2000
   -0.8413   -1.9048   41.7918 F   0  0  0  0  0  0  0  0  0  0  0  0
    0.3337   -2.3483   41.5607 C   0  0  0  0  0  0  0  0  0  0  0  0
    1.3952   -1.4784   41.5215 C   0  0  0  0  0  0  0  0  0  0  0  0
    1.7782   -0.8943   42.4095 C   0  0  0  0  0  0  0  0  0  0  0  0
    3.0041    0.1013   42.2244 C   0  0  0  0  0  0  0  0  0  0  0  0
    0.2184   -3.1737   40.3724 F   0  0  0  0  0  0  0  0  0  0  0  0
  1  2  1  0
  2  3  2  3
  3  4  1  0
  4  5  1  0
  2  6  1  0
M  END
$$$$
O14757_PocketFlow_idx-in-all-generaetd-290
     RDKit          3D

 10 10  0  0  0  0  0  0  0  0999 V2000
   -0.6395   -2.0713   41.4947 C   0  0  0  0  0  0  0  0  0  0  0  0
    0.6719   -2.2449   41.7518 C   0  0  0  0  0  0  0  0  0  0  0  0
    1.1287   -3.3339   42.4778 C   0  0  0  0  0  0  0  0  0  0  0  0
    2.2706   -3.1945   43.3374 C   0  0  0  0  0  0  0  0  0  0  0  0
    2.5794   -4.1545   44.3183 C   0  0  0  0  0  0  0  0  0  0  0  0
    1.6652   -5.1930   44.6059 C   0  0  0  0  0  0  0  0  0  0  0  0
    0.4184   -5.1320   43.9160 C   0  0  0  0  0  0  0  0  0  0  0  0
    0.1362   -4.2621   42.9076 C   0  0  0  0  0  0  0  0  0  0  0  0
    1.6394   -1.3080   41.2286 C   0  0  0  0  0  0  0  0  0  0  0  0
    1.3177    0.1400   41.4765 C   0  0  0  0  0  0  0  0  0  0  0  0
  1  2  1  0
  2  3  1  0
  2  9  1  0
  9 10  1  0
  3  4  2  0
  4  5  1  0
  5  6  2  0
  6  7  1  0
  7  8  2  0
  8  3  1  0
M  END
$$$$
O14757_PocketFlow_idx-in-all-generaetd-291
     RDKit          3D

 35 38  0  0  0  0  0  0  0  0999 V2000
   -0.6395   -2.0713   41.4947 C   0  0  0  0  0  0  0  0  0  0  0  0
   -0.2671   -3.2464   41.6546 C   0  0  0  0  0  0  0  0  0  0  0  0
    0.2407   -0.9706   41.5952 C   0  0  0  0  0  0  0  0  0  0  0  0
    1.6195   -1.2958   41.8767 C   0  0  0  0  0  0  0  0  0  0  0  0
    1.9162   -2.6816   42.2016 C   0  0  0  0  0  0  0  0  0  0  0  0
    0.9422   -3.6324   42.1156 C   0  0  0  0  0  0  0  0  0  0  0  0
    2.5514   -0.3501   42.0922 N   0  0  0  0  0  0  0  0  0  0  0  0
    3.8241   -0.5624   42.5345 C   0  0  0  0  0  0  0  0  0  0  0  0
    4.6918    0.4684   42.6139 N   0  0  0  0  0  0  0  0  0  0  0  0
    4.2993   -1.8015   43.0620 C   0  0  0  0  0  0  0  0  0  0  0  0
    4.9719   -1.7933   44.3658 C   0  0  0  0  0  0  0  0  0  0  0  0
    5.2307   -2.4175   45.2668 C   0  0  0  0  0  0  0  0  0  0  0  0
    4.5185   -3.6709   45.4656 C   0  0  0  0  0  0  0  0  0  0  0  0
    4.8292   -4.4815   46.6271 C   0  0  0  0  0  0  0  0  0  0  0  0
    5.8397   -3.9680   47.5193 C   0  0  0  0  0  0  0  0  0  0  0  0
    6.5979   -2.8274   47.2239 C   0  0  0  0  0  0  0  0  0  0  0  0
    6.3167   -2.0710   46.1678 C   0  0  0  0  0  0  0  0  0  0  0  0
    5.5868   -0.2392   44.3168 C   0  0  0  0  0  0  0  0  0  0  0  0
    5.4803    0.5900   43.5987 N   0  0  0  0  0  0  0  0  0  0  0  0
   -1.9000   -1.7742   41.0628 F   0  0  0  0  0  0  0  0  0  0  0  0
    6.1610   -4.8625   48.7069 C   0  0  0  0  0  0  0  0  0  0  0  0
    5.7860   -5.9879   48.6721 N   0  0  0  0  0  0  0  0  0  0  0  0
    6.7065   -7.1307   48.5005 C   0  0  0  0  0  0  0  0  0  0  0  0
    5.9979   -8.4108   48.3466 C   0  0  0  0  0  0  0  0  0  0  0  0
    4.6729   -8.3936   48.0792 C   0  0  0  0  0  0  0  0  0  0  0  0
    4.4648   -8.2706   46.6493 C   0  0  0  0  0  0  0  0  0  0  0  0
    3.0359   -8.3730   46.1476 C   0  0  0  0  0  0  0  0  0  0  0  0
    2.1872   -9.3369   46.7830 C   0  0  0  0  0  0  0  0  0  0  0  0
    0.8735   -9.2208   46.4543 C   0  0  0  0  0  0  0  0  0  0  0  0
   -0.0305  -10.0063   47.1583 C   0  0  0  0  0  0  0  0  0  0  0  0
   -1.4299   -9.8191   46.9887 C   0  0  0  0  0  0  0  0  0  0  0  0
   -1.8432   -8.8197   46.0472 C   0  0  0  0  0  0  0  0  0  0  0  0
   -0.9036   -8.0447   45.3311 C   0  0  0  0  0  0  0  0  0  0  0  0
    0.4168   -8.2041   45.6279 C   0  0  0  0  0  0  0  0  0  0  0  0
   -3.3036   -8.6010   45.7817 C   0  0  0  0  0  0  0  0  0  0  0  0
  4  7  1  0
  7  8  1  0
  1 20  1  0
 15 21  1  0
 21 22  1  0
 22 23  1  0
 23 24  1  0
 24 25  1  0
 25 26  1  0
 26 27  2  3
 27 28  1  0
 32 35  1  0
 28 29  1  0
 12 11  1  0
 12 13  2  0
 13 14  1  0
 14 15  2  0
 15 16  1  0
 16 17  2  0
 17 12  1  0
  1  2  2  0
  2  6  1  0
  6  5  2  0
  5  4  1  0
  4  3  2  0
  3  1  1  0
  8  9  2  0
  9 19  1  0
 19 18  2  0
 18 11  1  0
 11 10  2  0
 10  8  1  0
 29 30  2  0
 30 31  1  0
 31 32  2  0
 32 33  1  0
 33 34  2  0
 34 29  1  0
M  END
$$$$
O14757_PocketFlow_idx-in-all-generaetd-292
     RDKit          3D

 35 37  0  0  0  0  0  0  0  0999 V2000
   -0.8794   -1.9236   41.9357 O   0  0  0  0  0  0  0  0  0  0  0  0
    0.3070   -1.6014   41.6735 C   0  0  0  0  0  0  0  0  0  0  0  0
    1.3011   -2.6668   41.5732 C   0  0  0  0  0  0  0  0  0  0  0  0
    0.7830   -0.3895   41.5690 O   0  0  0  0  0  0  0  0  0  0  0  0
    2.3655   -2.4347   42.2626 C   0  0  0  0  0  0  0  0  0  0  0  0
    2.9866   -1.1894   42.3324 C   0  0  0  0  0  0  0  0  0  0  0  0
    2.0095   -0.1306   42.0540 C   0  0  0  0  0  0  0  0  0  0  0  0
    4.2522   -0.8496   42.8119 C   0  0  0  0  0  0  0  0  0  0  0  0
    4.8732    0.2513   42.5133 N   0  0  0  0  0  0  0  0  0  0  0  0
    4.9105   -1.7948   43.7076 C   0  0  0  0  0  0  0  0  0  0  0  0
    5.2435   -1.5536   44.9723 C   0  0  0  0  0  0  0  0  0  0  0  0
    5.8018   -2.4925   45.8720 C   0  0  0  0  0  0  0  0  0  0  0  0
    5.1177   -3.6777   46.2320 C   0  0  0  0  0  0  0  0  0  0  0  0
    5.7664   -4.5334   47.1950 C   0  0  0  0  0  0  0  0  0  0  0  0
    5.0954   -5.5974   47.8367 C   0  0  0  0  0  0  0  0  0  0  0  0
    5.8384   -6.3114   48.8309 C   0  0  0  0  0  0  0  0  0  0  0  0
    5.2780   -7.4898   49.3869 C   0  0  0  0  0  0  0  0  0  0  0  0
    4.5307   -8.2797   48.5160 C   0  0  0  0  0  0  0  0  0  0  0  0
    4.2388   -7.8405   47.1810 C   0  0  0  0  0  0  0  0  0  0  0  0
    4.5780   -6.5059   46.8626 C   0  0  0  0  0  0  0  0  0  0  0  0
    7.1047   -4.0227   47.6865 C   0  0  0  0  0  0  0  0  0  0  0  0
    7.7427   -2.9973   47.1527 N   0  0  0  0  0  0  0  0  0  0  0  0
    7.1626   -2.2010   46.3514 C   0  0  0  0  0  0  0  0  0  0  0  0
    7.8465   -1.1582   45.8565 N   0  0  0  0  0  0  0  0  0  0  0  0
    5.6751   -7.9603   50.5827 O   0  0  0  0  0  0  0  0  0  0  0  0
    4.6357   -8.4523   51.3669 C   0  0  0  0  0  0  0  0  0  0  0  0
    4.7414   -9.9007   51.5538 C   0  0  0  0  0  0  0  0  0  0  0  0
    3.7983  -10.4828   51.9762 O   0  0  0  0  0  0  0  0  0  0  0  0
    2.7559   -9.8670   52.5560 C   0  0  0  0  0  0  0  0  0  0  0  0
    1.5639   -9.8723   51.6569 C   0  0  0  0  0  0  0  0  0  0  0  0
    1.3352  -10.0658   50.6862 C   0  0  0  0  0  0  0  0  0  0  0  0
    0.1026   -9.8196   49.9499 C   0  0  0  0  0  0  0  0  0  0  0  0
    0.0618   -9.3469   48.6723 C   0  0  0  0  0  0  0  0  0  0  0  0
   -1.1453   -8.8563   48.0955 C   0  0  0  0  0  0  0  0  0  0  0  0
   -1.1717   -8.0581   46.9518 C   0  0  0  0  0  0  0  0  0  0  0  0
  1  2  2  0
  2  3  1  0
  2  4  1  0
  3  5  1  0
  5  6  2  0
  4  7  1  0
  6  7  1  0
  6  8  1  0
  8  9  1  0
  8 10  1  0
 10 11  2  3
 11 12  1  0
 23 24  1  0
 17 25  1  0
 25 26  1  0
 26 27  1  0
 27 28  1  0
 28 29  1  0
 29 30  1  0
 30 31  2  3
 31 32  1  0
 32 33  2  3
 33 34  1  0
 34 35  2  0
 14 15  1  0
 15 16  2  0
 16 17  1  0
 17 18  2  0
 18 19  1  0
 19 20  2  0
 20 15  1  0
 12 13  2  0
 13 14  1  0
 14 21  2  0
 21 22  1  0
 22 23  2  0
 23 12  1  0
M  END
$$$$
O14757_PocketFlow_idx-in-all-generaetd-293
     RDKit          3D

 35 39  0  0  0  0  0  0  0  0999 V2000
    0.2881   -2.9111   42.4378 C   0  0  0  0  0  0  0  0  0  0  0  0
   -0.0650   -2.5020   41.5798 C   0  0  0  0  0  0  0  0  0  0  0  0
    1.5584   -2.5265   43.0885 C   0  0  0  0  0  0  0  0  0  0  0  0
    2.2470   -3.1944   44.1996 C   0  0  2  0  0  0  0  0  0  0  0  0
    1.4410   -4.2396   44.8032 C   0  0  0  0  0  0  0  0  0  0  0  0
    1.9092   -4.8204   45.9844 C   0  0  0  0  0  0  0  0  0  0  0  0
    0.3795   -1.1712   41.1009 C   0  0  0  0  0  0  0  0  0  0  0  0
    1.5237   -0.6044   41.6979 C   0  0  0  0  0  0  0  0  0  0  0  0
    2.1194   -1.3295   42.7079 C   0  0  0  0  0  0  0  0  0  0  0  0
    1.0774   -5.7569   46.6016 C   0  0  0  0  0  0  0  0  0  0  0  0
   -0.2745   -5.9923   46.1359 C   0  0  0  0  0  0  0  0  0  0  0  0
   -0.9719   -6.9720   46.8049 C   0  0  0  0  0  0  0  0  0  0  0  0
   -1.2032   -8.1876   46.1395 C   0  0  0  0  0  0  0  0  0  0  0  0
   -2.4955   -8.1864   45.4881 C   0  0  0  0  0  0  0  0  0  0  0  0
   -2.4515   -7.9531   44.0894 C   0  0  0  0  0  0  0  0  0  0  0  0
   -3.6580   -8.0915   43.2835 C   0  0  0  0  0  0  0  0  0  0  0  0
   -4.8337   -8.2890   43.9071 C   0  0  0  0  0  0  0  0  0  0  0  0
   -4.8823   -8.4415   45.3144 C   0  0  0  0  0  0  0  0  0  0  0  0
   -3.6845   -8.4536   46.0406 C   0  0  0  0  0  0  0  0  0  0  0  0
   -6.0328   -8.3488   43.0564 C   0  0  0  0  0  0  0  0  0  0  0  0
    3.4061   -0.8253   43.2835 C   0  0  0  0  0  0  0  0  0  0  0  0
    4.0270    0.3368   42.7794 C   0  0  0  0  0  0  0  0  0  0  0  0
    4.1003   -1.6358   44.2713 C   0  0  0  0  0  0  0  0  0  0  0  0
    3.5212   -2.8276   44.7468 C   0  0  0  0  0  0  0  0  0  0  0  0
    5.4102   -1.2528   44.7885 C   0  0  0  0  0  0  0  0  0  0  0  0
    6.4224   -2.2437   44.8764 C   0  0  1  0  0  0  0  0  0  0  0  0
    7.6275   -1.9988   45.6742 C   0  0  0  0  0  0  0  0  0  0  0  0
    7.7390   -2.4713   46.8466 C   0  0  0  0  0  0  0  0  0  0  0  0
    7.0392   -3.5511   47.4452 C   0  0  0  0  0  0  0  0  0  0  0  0
    7.6542   -4.5711   48.0251 C   0  0  0  0  0  0  0  0  0  0  0  0
    6.8601   -5.5520   48.6654 C   0  0  0  0  0  0  0  0  0  0  0  0
    5.5747   -5.8176   48.1104 C   0  0  0  0  0  0  0  0  0  0  0  0
    4.9800   -4.8644   47.2818 C   0  0  0  0  0  0  0  0  0  0  0  0
    5.7468   -3.7837   46.8505 C   0  0  0  0  0  0  0  0  0  0  0  0
    5.2706   -2.9510   45.9930 O   0  0  0  0  0  0  0  0  0  0  0  0
  3  4  1  0
  4  5  1  0
  5  6  2  3
  6 10  1  0
 10 11  2  3
 11 12  1  0
 12 13  1  0
 13 14  1  0
 17 20  1  0
  9 21  1  0
 21 22  2  0
 21 23  1  0
  4 24  1  1
 23 24  1  0
 23 25  1  0
 26 25  1  1
 26 27  1  0
 27 28  1  0
 28 29  1  0
 26 35  1  0
 34 35  1  0
 29 30  2  0
 30 31  1  0
 31 32  2  0
 32 33  1  0
 33 34  2  0
 34 29  1  0
 14 15  2  0
 15 16  1  0
 16 17  2  0
 17 18  1  0
 18 19  2  0
 19 14  1  0
  1  2  2  0
  2  7  1  0
  7  8  2  0
  8  9  1  0
  9  3  2  0
  3  1  1  0
M  END
$$$$
O14757_PocketFlow_idx-in-all-generaetd-294
     RDKit          3D

 11 12  0  0  0  0  0  0  0  0999 V2000
    0.2881   -2.9111   42.4378 C   0  0  0  0  0  0  0  0  0  0  0  0
    1.3023   -2.0648   42.1981 C   0  0  0  0  0  0  0  0  0  0  0  0
    2.5313   -2.2887   42.6989 C   0  0  0  0  0  0  0  0  0  0  0  0
    2.7176   -3.3676   43.6275 C   0  0  0  0  0  0  0  0  0  0  0  0
    1.6703   -4.2006   43.9257 C   0  0  0  0  0  0  0  0  0  0  0  0
    0.5280   -3.9714   43.2987 N   0  0  0  0  0  0  0  0  0  0  0  0
    4.0201   -3.5139   44.3261 C   0  0  0  0  0  0  0  0  0  0  0  0
    4.9549   -2.4951   44.4143 C   0  0  0  0  0  0  0  0  0  0  0  0
    4.7625   -1.3174   43.7987 C   0  0  0  0  0  0  0  0  0  0  0  0
    3.5383   -1.1993   42.9091 C   0  0  0  0  0  0  0  0  0  0  0  0
   -0.8218   -2.9206   41.7970 F   0  0  0  0  0  0  0  0  0  0  0  0
  1 11  1  0
  4  7  2  0
  7  8  1  0
  8  9  2  0
  9 10  1  0
 10  3  2  0
  1  2  2  0
  2  3  1  0
  3  4  1  0
  4  5  1  0
  5  6  2  0
  6  1  1  0
M  END
$$$$
O14757_PocketFlow_idx-in-all-generaetd-295
     RDKit          3D

 13 13  0  0  0  0  0  0  0  0999 V2000
   -0.8794   -1.9236   41.9357 O   0  0  0  0  0  0  0  0  0  0  0  0
    0.3070   -1.6014   41.6735 C   0  0  0  0  0  0  0  0  0  0  0  0
    0.8076   -0.3104   41.6588 C   0  0  0  0  0  0  0  0  0  0  0  0
    2.1617   -0.1430   41.5642 C   0  0  0  0  0  0  0  0  0  0  0  0
    3.0186   -1.2162   41.8562 C   0  0  0  0  0  0  0  0  0  0  0  0
    2.4453   -2.4294   42.2584 C   0  0  0  0  0  0  0  0  0  0  0  0
    1.0999   -2.5846   42.3063 C   0  0  0  0  0  0  0  0  0  0  0  0
    0.5623   -3.7804   42.6708 N   0  0  0  0  0  0  0  0  0  0  0  0
    0.7879   -4.3270   43.7923 O   0  0  0  0  0  0  0  0  0  0  0  0
    4.4207   -1.0323   42.0167 C   0  0  0  0  0  0  0  0  0  0  0  0
    4.7988    0.2092   42.7712 C   0  0  0  0  0  0  0  0  0  0  0  0
    5.9489    0.1248   43.4198 O   0  0  0  0  0  0  0  0  0  0  0  0
   -1.9145   -1.0637   41.3591 C   0  0  0  0  0  0  0  0  0  0  0  0
  1  2  1  0
  7  8  1  0
  8  9  2  0
  5 10  1  0
 10 11  1  0
 11 12  1  0
  1 13  1  0
  2  3  2  0
  3  4  1  0
  4  5  2  0
  5  6  1  0
  6  7  2  0
  7  2  1  0
M  END
$$$$
O14757_PocketFlow_idx-in-all-generaetd-296
     RDKit          3D

 20 21  0  0  0  0  0  0  0  0999 V2000
    0.2881   -2.9111   42.4378 C   0  0  0  0  0  0  0  0  0  0  0  0
    1.3023   -2.0648   42.1981 C   0  0  0  0  0  0  0  0  0  0  0  0
    0.9971   -0.8647   41.5341 C   0  0  0  0  0  0  0  0  0  0  0  0
   -0.9708   -2.7453   41.8195 C   0  0  0  0  0  0  0  0  0  0  0  0
   -1.3087   -1.5883   41.3020 C   0  0  0  0  0  0  0  0  0  0  0  0
   -0.2967   -0.6433   41.1396 N   0  0  0  0  0  0  0  0  0  0  0  0
    1.7953    0.1767   41.5627 N   0  0  0  0  0  0  0  0  0  0  0  0
    0.5943   -4.2167   42.9774 N   0  0  0  0  0  0  0  0  0  0  0  0
    1.3737   -4.3615   44.0776 C   0  0  0  0  0  0  0  0  0  0  0  0
    1.5282   -5.6050   44.7134 C   0  0  0  0  0  0  0  0  0  0  0  0
   -2.5137   -1.2807   40.8752 N   0  0  0  0  0  0  0  0  0  0  0  0
    0.4036   -6.1998   45.2152 C   0  0  0  0  0  0  0  0  0  0  0  0
    0.4353   -7.5058   45.7141 C   0  0  0  0  0  0  0  0  0  0  0  0
    1.7122   -8.0717   45.8458 C   0  0  0  0  0  0  0  0  0  0  0  0
    2.8602   -7.4529   45.4274 C   0  0  0  0  0  0  0  0  0  0  0  0
    2.7448   -6.1799   44.8232 C   0  0  0  0  0  0  0  0  0  0  0  0
   -0.7039   -8.2155   46.2653 C   0  0  0  0  0  0  0  0  0  0  0  0
   -1.6455   -8.3201   45.3540 F   0  0  0  0  0  0  0  0  0  0  0  0
   -1.2348   -7.4051   47.2835 F   0  0  0  0  0  0  0  0  0  0  0  0
   -0.4953   -9.3717   46.7872 F   0  0  0  0  0  0  0  0  0  0  0  0
  3  7  1  0
  1  8  1  0
  8  9  1  0
  5 11  1  0
 13 17  1  0
 17 18  1  0
 17 19  1  0
 17 20  1  0
  9 10  1  0
  1  2  2  0
  2  3  1  0
  3  6  2  0
  6  5  1  0
  5  4  2  0
  4  1  1  0
 10 12  2  0
 12 13  1  0
 13 14  2  0
 14 15  1  0
 15 16  2  0
 16 10  1  0
M  END
$$$$
O14757_PocketFlow_idx-in-all-generaetd-297
     RDKit          3D

  7  7  0  0  0  0  0  0  0  0999 V2000
   -0.6395   -2.0713   41.4947 C   0  0  0  0  0  0  0  0  0  0  0  0
    0.6719   -2.2449   41.7518 C   0  0  0  0  0  0  0  0  0  0  0  0
    1.5951   -1.1948   41.6106 C   0  0  0  0  0  0  0  0  0  0  0  0
    1.1176    0.0935   41.3870 C   0  0  0  0  0  0  0  0  0  0  0  0
   -1.0854   -0.7301   41.2910 C   0  0  0  0  0  0  0  0  0  0  0  0
   -0.1881    0.2440   41.2399 N   0  0  0  0  0  0  0  0  0  0  0  0
   -2.3814   -0.4602   41.1686 N   0  0  0  0  0  0  0  0  0  0  0  0
  5  7  1  0
  1  2  2  0
  2  3  1  0
  3  4  2  0
  4  6  1  0
  6  5  2  0
  5  1  1  0
M  END
$$$$
O14757_PocketFlow_idx-in-all-generaetd-298
     RDKit          3D

 17 18  0  0  0  0  0  0  0  0999 V2000
    0.2881   -2.9111   42.4378 C   0  0  0  0  0  0  0  0  0  0  0  0
   -0.0650   -2.5021   41.5798 C   0  0  0  0  0  0  0  0  0  0  0  0
    1.5584   -2.5265   43.0885 C   0  0  0  0  0  0  0  0  0  0  0  0
    2.2571   -1.5118   42.4661 C   0  0  0  0  0  0  0  0  0  0  0  0
    1.6539   -0.8478   41.4018 C   0  0  0  0  0  0  0  0  0  0  0  0
    0.5161   -1.3208   40.9011 N   0  0  0  0  0  0  0  0  0  0  0  0
    3.5532   -1.1079   43.0463 C   0  0  0  0  0  0  0  0  0  0  0  0
    4.0273   -1.6419   44.2024 C   0  0  0  0  0  0  0  0  0  0  0  0
    5.2749   -1.2915   44.7285 C   0  0  0  0  0  0  0  0  0  0  0  0
    5.7257   -2.0706   45.8868 C   0  0  0  0  0  0  0  0  0  0  0  0
    7.0310   -2.0356   46.2972 C   0  0  0  0  0  0  0  0  0  0  0  0
    7.5817   -3.0724   47.0981 C   0  0  0  0  0  0  0  0  0  0  0  0
    6.7128   -3.9952   47.6698 C   0  0  0  0  0  0  0  0  0  0  0  0
    5.3428   -3.9671   47.3405 C   0  0  0  0  0  0  0  0  0  0  0  0
    4.8542   -3.0875   46.4290 C   0  0  0  0  0  0  0  0  0  0  0  0
   -1.2495   -2.8021   40.9394 N   0  0  0  0  0  0  0  0  0  0  0  0
    4.2978   -0.0373   42.4299 C   0  0  0  0  0  0  0  0  0  0  0  0
  4  7  1  0
  7  8  2  3
  8  9  1  0
  9 10  1  0
  2 16  1  0
  7 17  1  0
  1  2  2  0
  2  6  1  0
  6  5  2  0
  5  4  1  0
  4  3  2  0
  3  1  1  0
 10 11  2  0
 11 12  1  0
 12 13  2  0
 13 14  1  0
 14 15  2  0
 15 10  1  0
M  END
$$$$
O14757_PocketFlow_idx-in-all-generaetd-299
     RDKit          3D

  8  7  0  0  0  0  0  0  0  0999 V2000
   -0.6395   -2.0713   41.4947 C   0  0  0  0  0  0  0  0  0  0  0  0
    0.6719   -2.2449   41.7518 C   0  0  0  0  0  0  0  0  0  0  0  0
    1.5951   -1.1948   41.6106 C   0  0  0  0  0  0  0  0  0  0  0  0
    2.8936   -1.2860   42.2441 C   0  0  0  0  0  0  0  0  0  0  0  0
    3.2021   -2.2591   43.1862 C   0  0  0  0  0  0  0  0  0  0  0  0
    4.4778   -2.3024   43.8362 C   0  0  0  0  0  0  0  0  0  0  0  0
    4.7426   -3.3366   44.7696 C   0  0  0  0  0  0  0  0  0  0  0  0
    3.7781   -4.3783   44.8929 C   0  0  0  0  0  0  0  0  0  0  0  0
  1  2  1  0
  2  3  1  0
  3  4  1  0
  4  5  2  3
  5  6  1  0
  6  7  2  3
  7  8  1  0
M  END
$$$$
O14757_PocketFlow_idx-in-all-generaetd-300
     RDKit          3D

 27 29  0  0  0  0  0  0  0  0999 V2000
    0.2881   -2.9111   42.4378 C   0  0  0  0  0  0  0  0  0  0  0  0
   -0.0650   -2.5021   41.5798 C   0  0  2  0  0  0  0  0  0  0  0  0
    1.5584   -2.5265   43.0885 C   0  0  0  0  0  0  0  0  0  0  0  0
    2.2571   -1.5118   42.4661 C   0  0  0  0  0  0  0  0  0  0  0  0
    1.6539   -0.8478   41.4018 C   0  0  0  0  0  0  0  0  0  0  0  0
    0.5161   -1.3208   40.9011 N   0  0  0  0  0  0  0  0  0  0  0  0
    3.5532   -1.1079   43.0463 C   0  0  0  0  0  0  0  0  0  0  0  0
    4.0273   -1.6419   44.2024 C   0  0  0  0  0  0  0  0  0  0  0  0
    5.2749   -1.2915   44.7284 C   0  0  0  0  0  0  0  0  0  0  0  0
    5.7257   -2.0706   45.8868 C   0  0  0  0  0  0  0  0  0  0  0  0
    4.9396   -3.1317   46.4252 C   0  0  0  0  0  0  0  0  0  0  0  0
    3.7192   -3.4164   45.7795 C   0  0  0  0  0  0  0  0  0  0  0  0
    3.3331   -2.7819   44.7001 C   0  0  0  0  0  0  0  0  0  0  0  0
    2.1243   -3.2617   44.1841 C   0  0  0  0  0  0  0  0  0  0  0  0
   -1.2686   -2.8072   40.9884 N   0  0  0  0  0  0  0  0  0  0  0  0
    2.1851    0.2033   40.9194 O   0  0  0  0  0  0  0  0  0  0  0  0
    5.4518   -3.9153   47.5828 C   0  0  1  0  0  0  0  0  0  0  0  0
    6.2327   -3.3737   48.4868 N   0  0  0  0  0  0  0  0  0  0  0  0
    6.6513   -4.2697   49.5207 C   0  0  0  0  0  0  0  0  0  0  0  0
    4.7621   -4.9242   47.8742 F   0  0  0  0  0  0  0  0  0  0  0  0
    6.2024   -0.5873   44.2118 N   0  0  0  0  0  0  0  0  0  0  0  0
    1.4387   -4.1809   44.7002 F   0  0  0  0  0  0  0  0  0  0  0  0
    7.8922   -3.8443   50.1597 C   0  0  1  0  0  0  0  0  0  0  0  0
    9.0347   -4.5957   50.0159 C   0  0  0  0  0  0  0  0  0  0  0  0
   10.0934   -4.1642   50.6168 C   0  0  0  0  0  0  0  0  0  0  0  0
    7.9385   -2.7224   50.7649 F   0  0  0  0  0  0  0  0  0  0  0  0
   10.0201   -2.8853   51.3269 C   0  0  0  0  0  0  0  0  0  0  0  0
  1  3  1  0
  4  5  1  0
  2  6  1  0
  5  6  1  0
  2 15  1  1
  5 16  2  0
 11 17  1  0
 17 18  1  0
 18 19  2  3
 17 20  1  1
  9 21  1  0
 14 22  1  0
 19 23  1  0
 23 24  1  0
 24 25  2  3
 23 26  1  6
 25 27  1  0
  1  2  1  0
  3  4  2  0
  4  7  1  0
  7  8  2  0
 13 14  2  0
 14  3  1  0
  8  9  1  0
  9 10  2  0
 10 11  1  0
 11 12  2  0
 12 13  1  0
 13  8  1  0
M  END
$$$$
O14757_PocketFlow_idx-in-all-generaetd-301
     RDKit          3D

 16 17  0  0  0  0  0  0  0  0999 V2000
    0.2881   -2.9111   42.4378 C   0  0  0  0  0  0  0  0  0  0  0  0
    1.1784   -3.4293   42.9321 C   0  0  0  0  0  0  0  0  0  0  0  0
    2.4507   -2.7243   42.9621 C   0  0  0  0  0  0  0  0  0  0  0  0
    3.6020   -3.2282   43.7398 C   0  0  0  0  0  0  0  0  0  0  0  0
    4.7688   -2.4047   43.9090 C   0  0  2  0  0  0  0  0  0  0  0  0
    5.7650   -2.7027   44.9133 C   0  0  0  0  0  0  0  0  0  0  0  0
    0.4356   -1.7623   41.5944 C   0  0  0  0  0  0  0  0  0  0  0  0
    1.5653   -1.0164   41.6357 C   0  0  0  0  0  0  0  0  0  0  0  0
    2.6127   -1.4812   42.3891 C   0  0  0  0  0  0  0  0  0  0  0  0
    6.8117   -1.8091   45.1837 C   0  0  0  0  0  0  0  0  0  0  0  0
    7.8137   -2.3012   46.0883 C   0  0  0  0  0  0  0  0  0  0  0  0
    7.7518   -3.5223   46.7605 C   0  0  0  0  0  0  0  0  0  0  0  0
    6.5053   -4.1918   46.6105 C   0  0  0  0  0  0  0  0  0  0  0  0
    5.6002   -3.8594   45.6487 C   0  0  0  0  0  0  0  0  0  0  0  0
    4.9134   -1.1927   43.1243 C   0  0  0  0  0  0  0  0  0  0  0  0
    5.9027   -0.2367   43.2783 C   0  0  0  0  0  0  0  0  0  0  0  0
  3  4  1  0
  5  4  1  1
  5  6  1  0
  5 15  1  0
 15 16  2  0
  1  2  2  0
  2  3  1  0
  3  9  2  0
  9  8  1  0
  8  7  2  0
  7  1  1  0
  6 10  2  0
 10 11  1  0
 11 12  2  0
 12 13  1  0
 13 14  2  0
 14  6  1  0
M  END
$$$$
O14757_PocketFlow_idx-in-all-generaetd-302
     RDKit          3D

 25 27  0  0  0  0  0  0  0  0999 V2000
   -0.6395   -2.0713   41.4947 C   0  0  0  0  0  0  0  0  0  0  0  0
    0.1859   -1.1027   41.5970 C   0  0  0  0  0  0  0  0  0  0  0  0
    1.5836   -1.3270   41.4669 C   0  0  0  0  0  0  0  0  0  0  0  0
   -0.1523   -3.2959   41.2401 C   0  0  0  0  0  0  0  0  0  0  0  0
    2.3331   -1.3498   42.3600 C   0  0  0  0  0  0  0  0  0  0  0  0
    2.7346   -2.4871   43.0720 C   0  0  0  0  0  0  0  0  0  0  0  0
    3.8335   -2.4807   44.0586 C   0  0  0  0  0  0  0  0  0  0  0  0
    4.4369   -1.2227   44.2016 C   0  0  0  0  0  0  0  0  0  0  0  0
    5.5387   -1.1353   45.1677 C   0  0  0  0  0  0  0  0  0  0  0  0
    3.3709   -0.2486   42.6028 C   0  0  0  0  0  0  0  0  0  0  0  0
    4.3546   -0.1662   43.4150 C   0  0  0  0  0  0  0  0  0  0  0  0
    5.7565   -2.3222   46.0713 C   0  0  0  0  0  0  0  0  0  0  0  0
    4.8668   -3.4473   45.9913 C   0  0  0  0  0  0  0  0  0  0  0  0
    3.9590   -3.5181   44.9808 C   0  0  0  0  0  0  0  0  0  0  0  0
    3.1713   -4.7243   44.8645 C   0  0  0  0  0  0  0  0  0  0  0  0
    3.7829   -5.8565   44.6150 C   0  0  0  0  0  0  0  0  0  0  0  0
    3.0386   -7.0921   44.5809 C   0  0  0  0  0  0  0  0  0  0  0  0
    1.6229   -7.0084   44.8882 C   0  0  0  0  0  0  0  0  0  0  0  0
    1.0029   -5.8004   45.0753 C   0  0  0  0  0  0  0  0  0  0  0  0
    1.7821   -4.6403   45.1586 C   0  0  0  0  0  0  0  0  0  0  0  0
   -0.8776   -4.4545   41.6152 N   0  0  0  0  0  0  0  0  0  0  0  0
    5.1711   -4.4078   46.8155 F   0  0  0  0  0  0  0  0  0  0  0  0
    1.7965   -1.8479   40.2228 O   0  0  0  0  0  0  0  0  0  0  0  0
   -1.9678   -1.8888   41.6215 O   0  0  0  0  0  0  0  0  0  0  0  0
   -0.6276   -5.6432   45.1323 Cl  0  0  0  0  0  0  0  0  0  0  0  0
  1  2  1  0
  2  3  2  3
  1  4  1  0
  3  5  1  0
 14 15  1  0
  4 21  1  0
 13 22  1  0
  3 23  1  0
  1 24  2  0
 19 25  1  0
  8  9  2  0
  9 12  1  0
 12 13  2  0
 13 14  1  0
 14  7  2  0
  5  6  2  0
  6  7  1  0
  7  8  1  0
  8 11  1  0
 11 10  2  0
 10  5  1  0
 15 16  2  0
 16 17  1  0
 17 18  2  0
 18 19  1  0
 19 20  2  0
 20 15  1  0
M  END
$$$$
O14757_PocketFlow_idx-in-all-generaetd-303
     RDKit          3D

 19 22  0  0  0  0  0  0  0  0999 V2000
    0.2881   -2.9111   42.4378 C   0  0  0  0  0  0  0  0  0  0  0  0
    1.3023   -2.0648   42.1981 C   0  0  0  0  0  0  0  0  0  0  0  0
    2.5200   -2.2700   42.7140 C   0  0  0  0  0  0  0  0  0  0  0  0
    2.7379   -3.3419   43.6435 C   0  0  0  0  0  0  0  0  0  0  0  0
    4.0404   -3.5283   44.2465 C   0  0  0  0  0  0  0  0  0  0  0  0
    0.5609   -4.0317   43.2613 C   0  0  0  0  0  0  0  0  0  0  0  0
    1.7246   -4.1165   43.9541 C   0  0  0  0  0  0  0  0  0  0  0  0
    4.9765   -2.4647   44.4616 C   0  0  0  0  0  0  0  0  0  0  0  0
    4.8796   -1.2389   43.9719 C   0  0  0  0  0  0  0  0  0  0  0  0
    4.0932   -0.7609   42.9306 C   0  0  0  0  0  0  0  0  0  0  0  0
    2.9188   -1.1480   42.5740 C   0  0  0  0  0  0  0  0  0  0  0  0
    6.1371   -2.7986   45.3628 C   0  0  0  0  0  0  0  0  0  0  0  0
    7.2941   -2.0485   45.3757 C   0  0  0  0  0  0  0  0  0  0  0  0
    8.3720   -2.3912   46.2559 C   0  0  0  0  0  0  0  0  0  0  0  0
    8.3450   -3.5654   47.0190 C   0  0  0  0  0  0  0  0  0  0  0  0
    7.0563   -4.2144   47.0686 C   0  0  0  0  0  0  0  0  0  0  0  0
    6.0221   -3.8531   46.2713 C   0  0  0  0  0  0  0  0  0  0  0  0
    2.0758   -0.4628   41.7094 N   0  0  0  0  0  0  0  0  0  0  0  0
    0.9083   -1.3408   41.0104 N   0  0  0  0  0  0  0  0  0  0  0  0
  4  5  1  0
  5  8  1  0
  8  9  2  0
  9 10  1  0
  3 11  1  0
 10 11  2  0
  8 12  1  0
 11 18  1  0
  2 19  1  0
 18 19  2  0
 12 13  2  0
 13 14  1  0
 14 15  2  0
 15 16  1  0
 16 17  2  0
 17 12  1  0
  1  2  2  0
  2  3  1  0
  3  4  2  0
  4  7  1  0
  7  6  2  0
  6  1  1  0
M  END
$$$$
O14757_PocketFlow_idx-in-all-generaetd-304
     RDKit          3D

 17 17  0  0  0  0  0  0  0  0999 V2000
   -0.6395   -2.0713   41.4947 C   0  0  0  0  0  0  0  0  0  0  0  0
    0.1859   -1.1027   41.5970 C   0  0  0  0  0  0  0  0  0  0  0  0
    1.5836   -1.3270   41.4670 C   0  0  0  0  0  0  0  0  0  0  0  0
   -2.0616   -1.8375   41.5032 C   0  0  0  0  0  0  0  0  0  0  0  0
    2.5703   -0.3987   41.8488 C   0  0  0  0  0  0  0  0  0  0  0  0
    3.8557   -0.7227   42.2740 C   0  0  0  0  0  0  0  0  0  0  0  0
    4.7671    0.2474   42.7900 C   0  0  0  0  0  0  0  0  0  0  0  0
   -2.7609   -2.5585   40.4586 C   0  0  0  0  0  0  0  0  0  0  0  0
    5.8374   -0.3240   43.4960 N   0  0  0  0  0  0  0  0  0  0  0  0
    5.6791   -1.5784   44.0448 C   0  0  0  0  0  0  0  0  0  0  0  0
    4.8597   -1.8939   44.8782 C   0  0  0  0  0  0  0  0  0  0  0  0
    4.7097   -3.2277   45.4062 C   0  0  0  0  0  0  0  0  0  0  0  0
    4.1013   -4.1253   45.0634 C   0  0  0  0  0  0  0  0  0  0  0  0
    3.9873   -5.3994   45.7042 C   0  0  0  0  0  0  0  0  0  0  0  0
    4.6865   -5.5477   46.8635 C   0  0  0  0  0  0  0  0  0  0  0  0
    5.3930   -4.4906   47.4496 C   0  0  0  0  0  0  0  0  0  0  0  0
    5.4386   -3.2917   46.7969 C   0  0  0  0  0  0  0  0  0  0  0  0
  1  2  1  0
  2  3  2  3
  1  4  1  0
  3  5  1  0
  5  6  1  0
  6  7  1  0
  4  8  1  0
  7  9  1  0
  9 10  1  0
 10 11  2  3
 11 12  1  0
 12 13  2  0
 13 14  1  0
 14 15  2  0
 15 16  1  0
 16 17  2  0
 17 12  1  0
M  END
$$$$
O14757_PocketFlow_idx-in-all-generaetd-305
     RDKit          3D

 28 31  0  0  0  0  0  0  0  0999 V2000
   -0.6395   -2.0713   41.4947 C   0  0  0  0  0  0  0  0  0  0  0  0
   -0.2671   -3.2464   41.6546 C   0  0  0  0  0  0  0  0  0  0  0  0
    0.2407   -0.9706   41.5952 C   0  0  0  0  0  0  0  0  0  0  0  0
    1.6195   -1.2958   41.8767 C   0  0  0  0  0  0  0  0  0  0  0  0
    1.9162   -2.6816   42.2016 C   0  0  0  0  0  0  0  0  0  0  0  0
    0.9422   -3.6324   42.1156 C   0  0  0  0  0  0  0  0  0  0  0  0
    2.6088   -0.2775   42.1300 C   0  0  0  0  0  0  0  0  0  0  0  0
    3.9059   -0.5876   42.5995 C   0  0  0  0  0  0  0  0  0  0  0  0
    4.9047    0.3979   42.7294 C   0  0  0  0  0  0  0  0  0  0  0  0
   -2.0638   -1.7598   41.0547 C   0  0  0  0  0  0  0  0  0  0  0  0
   -2.6842   -0.6155   41.3277 N   0  0  0  0  0  0  0  0  0  0  0  0
   -2.7635   -2.6358   40.5157 O   0  0  0  0  0  0  0  0  0  0  0  0
    4.2049   -1.8836   43.0862 C   0  0  0  0  0  0  0  0  0  0  0  0
    5.4664   -1.7422   43.8733 C   0  0  0  0  0  0  0  0  0  0  0  0
    5.9443   -0.3892   43.6182 C   0  0  0  0  0  0  0  0  0  0  0  0
    6.1513   -2.6657   44.6959 C   0  0  0  0  0  0  0  0  0  0  0  0
    7.0949   -2.2759   45.6167 C   0  0  0  0  0  0  0  0  0  0  0  0
    7.7216   -3.2466   46.5049 C   0  0  0  0  0  0  0  0  0  0  0  0
    6.9615   -4.2106   47.0251 C   0  0  0  0  0  0  0  0  0  0  0  0
    5.5891   -4.3265   46.5034 C   0  0  0  0  0  0  0  0  0  0  0  0
    5.1654   -3.6416   45.3860 C   0  0  0  0  0  0  0  0  0  0  0  0
    7.3941   -4.9722   48.1700 C   0  0  0  0  0  0  0  0  0  0  0  0
    7.8163   -4.3205   49.1892 N   0  0  0  0  0  0  0  0  0  0  0  0
    7.0458   -3.5176   49.8662 C   0  0  0  0  0  0  0  0  0  0  0  0
    7.7248   -2.7794   51.0156 C   0  0  0  0  0  0  0  0  0  0  0  0
    9.2042   -4.3188   49.5299 C   0  0  0  0  0  0  0  0  0  0  0  0
    9.6291   -3.7636   50.2485 C   0  0  0  0  0  0  0  0  0  0  0  0
    8.9981   -2.8541   51.2400 C   0  0  0  0  0  0  0  0  0  0  0  0
  4  7  1  0
  7  8  2  3
  8  9  1  0
  1 10  1  0
 10 11  1  0
 10 12  2  0
  8 13  1  0
 13 14  2  0
  9 15  1  0
 14 15  1  0
 14 16  1  0
 19 22  1  0
 22 23  1  0
 23 24  1  0
 23 26  1  0
 25 28  1  0
 27 28  1  0
 24 25  1  0
 27 26  1  0
  1  2  2  0
  2  6  1  0
  6  5  2  0
  5  4  1  0
  4  3  2  0
  3  1  1  0
 16 17  2  0
 17 18  1  0
 18 19  2  0
 19 20  1  0
 20 21  2  0
 21 16  1  0
M  END
$$$$
O14757_PocketFlow_idx-in-all-generaetd-306
     RDKit          3D

 31 34  0  0  0  0  0  0  0  0999 V2000
   -0.6395   -2.0713   41.4947 C   0  0  2  0  0  0  0  0  0  0  0  0
    0.1859   -1.1027   41.5970 C   0  0  0  0  0  0  0  0  0  0  0  0
   -2.0077   -1.8651   41.2044 C   0  0  2  0  0  0  0  0  0  0  0  0
    1.5974   -1.2445   41.7640 C   0  0  0  0  0  0  0  0  0  0  0  0
    2.5563   -0.2262   41.8331 C   0  0  0  0  0  0  0  0  0  0  0  0
    3.8717   -0.4554   42.2584 C   0  0  0  0  0  0  0  0  0  0  0  0
    4.1299   -1.6986   42.9429 C   0  0  0  0  0  0  0  0  0  0  0  0
    3.1038   -2.6042   43.1230 C   0  0  0  0  0  0  0  0  0  0  0  0
    1.8553   -2.3256   42.6160 C   0  0  0  0  0  0  0  0  0  0  0  0
    3.2596   -3.7784   43.9659 C   0  0  0  0  0  0  0  0  0  0  0  0
    2.2887   -4.6899   44.3573 C   0  0  0  0  0  0  0  0  0  0  0  0
    0.8876   -4.3456   44.3234 C   0  0  0  0  0  0  0  0  0  0  0  0
    0.7598   -3.1958   43.3055 N   0  0  0  0  0  0  0  0  0  0  0  0
   -3.0255   -2.9699   40.5257 Cl  0  0  0  0  0  0  0  0  0  0  0  0
   -0.5261   -3.0862   42.4884 C   0  0  0  0  0  0  0  0  0  0  0  0
   -2.5663   -0.4821   41.3476 C   0  0  0  0  0  0  0  0  0  0  0  0
    4.6496   -4.0665   44.4873 C   0  0  0  0  0  0  0  0  0  0  0  0
   -3.8051   -0.0781   40.8679 C   0  0  0  0  0  0  0  0  0  0  0  0
   -4.5316   -0.8856   40.3809 O   0  0  0  0  0  0  0  0  0  0  0  0
   -4.2041    1.1020   41.3352 O   0  0  0  0  0  0  0  0  0  0  0  0
    2.4814   -5.9100   45.0480 C   0  0  0  0  0  0  0  0  0  0  0  0
    2.0691   -6.8705   44.9920 N   0  0  0  0  0  0  0  0  0  0  0  0
    3.9578   -5.9585   45.5399 C   0  0  0  0  0  0  0  0  0  0  0  0
    4.8732   -5.0414   45.2998 N   0  0  0  0  0  0  0  0  0  0  0  0
    4.8666    0.3836   42.0594 O   0  0  0  0  0  0  0  0  0  0  0  0
    0.7101   -6.9521   44.6673 C   0  0  0  0  0  0  0  0  0  0  0  0
   -0.2043   -7.6054   45.6580 C   0  0  0  0  0  0  0  0  0  0  0  0
    0.1561   -7.7807   46.9255 C   0  0  0  0  0  0  0  0  0  0  0  0
   -0.7945   -8.3156   47.8683 C   0  0  0  0  0  0  0  0  0  0  0  0
   -2.1510   -8.4883   47.4033 C   0  0  0  0  0  0  0  0  0  0  0  0
   -2.4756   -8.2086   46.0945 C   0  0  0  0  0  0  0  0  0  0  0  0
  1  3  1  0
  2  4  1  0
  8 10  1  0
 11 12  1  0
  9 13  1  0
 12 13  1  0
  3 14  1  6
  1 15  1  1
 13 15  1  0
  3 16  1  0
 16 18  1  0
 18 19  2  0
 18 20  1  0
  6 25  1  0
 22 26  1  0
 26 27  2  3
 27 28  1  0
 28 29  2  3
 29 30  1  0
 30 31  2  0
 22 21  1  0
  2  1  1  0
 10 17  2  0
 17 24  1  0
 24 23  2  0
 23 21  1  0
 21 11  2  0
 11 10  1  0
  4  5  2  0
  5  6  1  0
  6  7  2  0
  7  8  1  0
  8  9  2  0
  9  4  1  0
M  END
$$$$
O14757_PocketFlow_idx-in-all-generaetd-307
     RDKit          3D

 35 35  0  0  0  0  0  0  0  0999 V2000
    0.0138   -2.7927   42.5918 N   0  0  0  0  0  0  0  0  0  0  0  0
    1.1722   -3.1858   42.8673 C   0  0  0  0  0  0  0  0  0  0  0  0
    2.0106   -2.4736   43.6736 C   0  0  0  0  0  0  0  0  0  0  0  0
    3.4318   -2.6659   43.6053 C   0  0  2  0  0  0  0  0  0  0  0  0
    4.0294   -3.7197   44.4062 C   0  0  0  0  0  0  0  0  0  0  0  0
    3.4738   -4.8174   44.7129 C   0  0  0  0  0  0  0  0  0  0  0  0
    2.6999   -4.8014   46.0060 C   0  0  0  0  0  0  0  0  0  0  0  0
   -0.5752   -3.4564   41.4915 C   0  0  0  0  0  0  0  0  0  0  0  0
    4.1612   -1.6206   42.9032 C   0  0  0  0  0  0  0  0  0  0  0  0
    4.3886   -0.3454   43.5927 C   0  0  0  0  0  0  0  0  0  0  0  0
    4.7725    0.6502   42.7391 O   0  0  0  0  0  0  0  0  0  0  0  0
    1.2404   -4.5552   45.6379 C   0  0  0  0  0  0  0  0  0  0  0  0
    0.4080   -5.8667   45.6173 C   0  0  0  0  0  0  0  0  0  0  0  0
    0.9088   -6.8503   46.2983 C   0  0  0  0  0  0  0  0  0  0  0  0
    0.4623   -8.2011   45.7138 C   0  0  0  0  0  0  0  0  0  0  0  0
   -0.7896   -8.0885   45.2353 C   0  0  0  0  0  0  0  0  0  0  0  0
   -1.7229   -8.0702   45.6467 C   0  0  0  0  0  0  0  0  0  0  0  0
   -3.0836   -8.0371   44.9213 C   0  0  0  0  0  0  0  0  0  0  0  0
   -4.2908   -8.3788   45.5394 C   0  0  0  0  0  0  0  0  0  0  0  0
   -5.4179   -8.2072   44.7214 C   0  0  0  0  0  0  0  0  0  0  0  0
   -5.3827   -7.8146   43.3838 C   0  0  0  0  0  0  0  0  0  0  0  0
   -4.0503   -7.6952   42.8178 C   0  0  0  0  0  0  0  0  0  0  0  0
   -2.9430   -7.8093   43.6036 C   0  0  0  0  0  0  0  0  0  0  0  0
   -6.5438   -7.7050   42.5504 C   0  0  0  0  0  0  0  0  0  0  0  0
   -6.5085   -7.3998   41.5394 O   0  0  0  0  0  0  0  0  0  0  0  0
   -7.7129   -8.0962   43.0952 O   0  0  0  0  0  0  0  0  0  0  0  0
   -1.9224   -8.1139   47.1865 C   0  0  0  0  0  0  0  0  0  0  0  0
   -1.8056   -7.0860   47.7709 O   0  0  0  0  0  0  0  0  0  0  0  0
   -2.2982   -9.2379   47.7906 N   0  0  0  0  0  0  0  0  0  0  0  0
   -2.4531   -9.3023   49.3046 C   0  0  0  0  0  0  0  0  0  0  0  0
   -2.5445  -10.5059   47.1441 C   0  0  0  0  0  0  0  0  0  0  0  0
   -1.5976  -11.3392   47.3562 C   0  0  0  0  0  0  0  0  0  0  0  0
   -1.6321  -12.6365   46.6575 C   0  0  0  0  0  0  0  0  0  0  0  0
   -0.6097  -13.5824   46.8704 C   0  0  0  0  0  0  0  0  0  0  0  0
    0.4457  -13.2564   47.8055 C   0  0  0  0  0  0  0  0  0  0  0  0
  1  2  1  0
  2  3  1  0
  4  3  1  1
  4  5  1  0
  5  6  1  0
  6  7  2  3
  1  8  1  0
  4  9  1  0
  9 10  1  0
 10 11  1  0
  7 12  1  0
 12 13  1  0
 13 14  2  3
 14 15  1  0
 15 16  1  0
 16 17  2  3
 17 18  1  0
 21 24  1  0
 24 25  2  0
 24 26  1  0
 17 27  1  0
 27 28  2  0
 27 29  1  0
 29 30  1  0
 29 31  1  0
 31 32  1  0
 32 33  2  3
 33 34  1  0
 34 35  2  0
 18 19  2  0
 19 20  1  0
 20 21  2  0
 21 22  1  0
 22 23  2  0
 23 18  1  0
M  END
$$$$
O14757_PocketFlow_idx-in-all-generaetd-308
     RDKit          3D

 15 16  0  0  0  0  0  0  0  0999 V2000
    0.2881   -2.9111   42.4378 C   0  0  0  0  0  0  0  0  0  0  0  0
    1.1784   -3.4293   42.9321 C   0  0  0  0  0  0  0  0  0  0  0  0
    2.4507   -2.7243   42.9621 C   0  0  0  0  0  0  0  0  0  0  0  0
    2.5762   -1.5430   42.3314 C   0  0  0  0  0  0  0  0  0  0  0  0
    0.2682   -1.7017   41.6882 C   0  0  0  0  0  0  0  0  0  0  0  0
    1.4524   -1.0424   41.6523 C   0  0  0  0  0  0  0  0  0  0  0  0
    3.6353   -3.2132   43.7388 C   0  0  0  0  0  0  0  0  0  0  0  0
    3.7075   -4.5235   44.2913 C   0  0  0  0  0  0  0  0  0  0  0  0
    4.6654   -2.2757   44.0716 C   0  0  0  0  0  0  0  0  0  0  0  0
    5.6163   -2.5978   45.0459 C   0  0  0  0  0  0  0  0  0  0  0  0
    5.6441   -3.9063   45.6353 C   0  0  0  0  0  0  0  0  0  0  0  0
    4.6669   -4.7890   45.3049 C   0  0  0  0  0  0  0  0  0  0  0  0
   -0.8894   -1.2157   41.1293 N   0  0  0  0  0  0  0  0  0  0  0  0
   -2.1555   -1.4845   41.6283 C   0  0  0  0  0  0  0  0  0  0  0  0
   -3.2214   -0.9256   40.7780 C   0  0  0  0  0  0  0  0  0  0  0  0
  3  7  1  0
  5 13  1  0
 13 14  1  0
 14 15  1  0
  1  2  2  0
  2  3  1  0
  3  4  2  0
  4  6  1  0
  6  5  2  0
  5  1  1  0
  7  8  2  0
  8 12  1  0
 12 11  2  0
 11 10  1  0
 10  9  2  0
  9  7  1  0
M  END
$$$$
O14757_PocketFlow_idx-in-all-generaetd-309
     RDKit          3D

  6  6  0  0  0  0  0  0  0  0999 V2000
    0.2881   -2.9111   42.4378 C   0  0  0  0  0  0  0  0  0  0  0  0
    1.1784   -3.4293   42.9321 C   0  0  0  0  0  0  0  0  0  0  0  0
    2.4696   -2.7231   42.8997 C   0  0  0  0  0  0  0  0  0  0  0  0
    2.5380   -1.5398   42.2487 C   0  0  0  0  0  0  0  0  0  0  0  0
    0.2254   -1.7181   41.6878 C   0  0  0  0  0  0  0  0  0  0  0  0
    1.4043   -1.0577   41.5785 C   0  0  0  0  0  0  0  0  0  0  0  0
  1  2  2  0
  2  3  1  0
  3  4  2  0
  4  6  1  0
  6  5  2  0
  5  1  1  0
M  END
$$$$
O14757_PocketFlow_idx-in-all-generaetd-310
     RDKit          3D

 16 18  0  0  0  0  0  0  0  0999 V2000
   -0.6395   -2.0713   41.4947 C   0  0  0  0  0  0  0  0  0  0  0  0
   -0.2671   -3.2464   41.6546 C   0  0  0  0  0  0  0  0  0  0  0  0
    0.2407   -0.9706   41.5952 C   0  0  0  0  0  0  0  0  0  0  0  0
    1.6195   -1.2958   41.8767 C   0  0  1  0  0  0  0  0  0  0  0  0
    2.6583   -0.3517   42.0703 C   0  0  0  0  0  0  0  0  0  0  0  0
    3.9275   -0.7702   42.5387 C   0  0  0  0  0  0  0  0  0  0  0  0
    3.9444   -2.1081   43.0865 C   0  0  0  0  0  0  0  0  0  0  0  0
    2.8133   -2.9027   43.1780 C   0  0  0  0  0  0  0  0  0  0  0  0
    1.6416   -2.4473   42.6184 C   0  0  2  0  0  0  0  0  0  0  0  0
    0.7194   -3.4978   42.3799 C   0  0  1  0  0  0  0  0  0  0  0  0
    4.9874   -0.0918   42.5363 F   0  0  0  0  0  0  0  0  0  0  0  0
   -2.0391   -1.6520   41.0179 C   0  0  0  0  0  0  0  0  0  0  0  0
   -3.0186   -1.9867   40.7143 Cl  0  0  0  0  0  0  0  0  0  0  0  0
    2.8947   -3.9925   44.1978 C   0  0  0  0  0  0  0  0  0  0  0  0
    1.9265   -4.7768   44.5755 C   0  0  0  0  0  0  0  0  0  0  0  0
    0.8225   -4.3471   43.6633 C   0  0  0  0  0  0  0  0  0  0  0  0
  1  2  1  0
  1  3  2  0
  4  3  1  1
  4  5  1  0
  5  6  2  0
  6  7  1  0
  7  8  2  0
  4  9  1  0
  9  8  1  6
 10  2  1  1
  9 10  1  0
  6 11  1  0
  1 12  1  0
 12 13  1  0
  8 14  1  0
 14 15  2  0
 10 16  1  0
 15 16  1  0
M  END
$$$$
O14757_PocketFlow_idx-in-all-generaetd-311
     RDKit          3D

 35 38  0  0  0  0  0  0  0  0999 V2000
   -0.8794   -1.9236   41.9357 O   0  0  0  0  0  0  0  0  0  0  0  0
    0.3070   -1.6014   41.6735 C   0  0  1  0  0  0  0  0  0  0  0  0
    0.8076   -0.3104   41.6588 C   0  0  0  0  0  0  0  0  0  0  0  0
    2.2588   -0.1455   41.9671 C   0  0  0  0  0  0  0  0  0  0  0  0
    3.0000   -1.2162   42.5431 C   0  0  0  0  0  0  0  0  0  0  0  0
    4.3453   -1.0962   42.9611 C   0  0  0  0  0  0  0  0  0  0  0  0
    4.8209   -0.6288   43.7985 C   0  0  0  0  0  0  0  0  0  0  0  0
    2.3678   -2.4823   42.6663 C   0  0  0  0  0  0  0  0  0  0  0  0
    0.9688   -2.6012   42.4826 C   0  0  2  0  0  0  0  0  0  0  0  0
    6.2767   -0.7722   44.1914 C   0  0  0  0  0  0  0  0  0  0  0  0
    0.4578   -3.8344   42.6481 N   0  0  0  0  0  0  0  0  0  0  0  0
    0.6764   -5.0557   42.8703 C   0  0  0  0  0  0  0  0  0  0  0  0
   -0.3422   -5.9784   43.1857 C   0  0  0  0  0  0  0  0  0  0  0  0
    6.7260   -1.1502   45.4391 C   0  0  0  0  0  0  0  0  0  0  0  0
    8.0049   -1.8600   45.4760 C   0  0  0  0  0  0  0  0  0  0  0  0
    8.2283   -2.7366   46.4891 C   0  0  0  0  0  0  0  0  0  0  0  0
    7.2129   -3.5980   46.9840 C   0  0  0  0  0  0  0  0  0  0  0  0
    5.8547   -3.2221   46.6797 C   0  0  0  0  0  0  0  0  0  0  0  0
    5.6782   -2.0961   45.8356 C   0  0  0  0  0  0  0  0  0  0  0  0
    7.4197   -4.6738   47.9113 C   0  0  0  0  0  0  0  0  0  0  0  0
    8.5344   -4.9468   48.4595 C   0  0  0  0  0  0  0  0  0  0  0  0
    6.1987   -5.4009   48.2775 C   0  0  0  0  0  0  0  0  0  0  0  0
    6.3110   -6.4960   49.1730 C   0  0  0  0  0  0  0  0  0  0  0  0
    8.6476   -6.0507   49.4359 C   0  0  0  0  0  0  0  0  0  0  0  0
    7.5232   -6.7451   49.8122 C   0  0  0  0  0  0  0  0  0  0  0  0
    5.1997   -7.1453   49.5623 O   0  0  0  0  0  0  0  0  0  0  0  0
    5.1160   -8.4238   49.0833 C   0  0  0  0  0  0  0  0  0  0  0  0
    5.3709   -9.4263   50.0069 C   0  0  0  0  0  0  0  0  0  0  0  0
    5.3799  -10.6736   49.5624 C   0  0  0  0  0  0  0  0  0  0  0  0
    3.8269   -8.7217   48.4449 C   0  0  0  0  0  0  0  0  0  0  0  0
    3.8646  -10.0167   47.7182 C   0  0  0  0  0  0  0  0  0  0  0  0
    4.1915  -11.1139   48.6131 C   0  0  0  0  0  0  0  0  0  0  0  0
    3.5134  -10.2013   46.4715 O   0  0  0  0  0  0  0  0  0  0  0  0
    6.5799   -9.1202   50.7942 O   0  0  0  0  0  0  0  0  0  0  0  0
   -0.1915   -6.8065   44.2756 O   0  0  0  0  0  0  0  0  0  0  0  0
  2  1  1  1
  2  3  1  0
  3  4  1  0
  4  5  1  0
  5  6  2  3
  6  7  1  0
  5  8  1  0
  2  9  1  0
  8  9  1  0
  7 10  2  3
  9 11  1  6
 11 12  1  0
 12 13  2  3
 10 14  1  0
 17 20  1  0
 23 26  1  0
 26 27  1  0
 31 33  1  0
 28 34  1  0
 13 35  1  0
 14 15  2  0
 15 16  1  0
 16 17  2  0
 17 18  1  0
 18 19  2  0
 19 14  1  0
 20 21  2  0
 21 24  1  0
 24 25  2  0
 25 23  1  0
 23 22  2  0
 22 20  1  0
 27 28  2  0
 28 29  1  0
 29 32  2  0
 32 31  1  0
 31 30  2  0
 30 27  1  0
M  END
$$$$
O14757_PocketFlow_idx-in-all-generaetd-312
     RDKit          3D

 35 37  0  0  0  0  0  0  0  0999 V2000
    0.2881   -2.9111   42.4378 C   0  0  0  0  0  0  0  0  0  0  0  0
    1.3023   -2.0648   42.1981 C   0  0  0  0  0  0  0  0  0  0  0  0
    1.4513   -1.0038   42.6403 C   0  0  0  0  0  0  0  0  0  0  0  0
    2.7464   -0.2737   42.5120 C   0  0  0  0  0  0  0  0  0  0  0  0
    3.9315   -1.0592   42.9535 C   0  0  1  0  0  0  0  0  0  0  0  0
    5.0837   -0.3900   43.3148 C   0  0  0  0  0  0  0  0  0  0  0  0
   -0.4618   -3.4023   41.5857 C   0  0  0  0  0  0  0  0  0  0  0  0
    3.7247   -2.3792   43.3040 C   0  0  0  0  0  0  0  0  0  0  0  0
    2.9042   -2.8742   44.0200 C   0  0  0  0  0  0  0  0  0  0  0  0
    3.2966   -3.9859   44.8926 C   0  0  2  0  0  0  0  0  0  0  0  0
    2.4366   -5.0943   45.1778 C   0  0  0  0  0  0  0  0  0  0  0  0
    1.1644   -4.8981   45.4913 C   0  0  0  0  0  0  0  0  0  0  0  0
    0.2367   -5.9512   45.6737 C   0  0  0  0  0  0  0  0  0  0  0  0
   -0.2547   -6.6483   44.6196 C   0  0  0  0  0  0  0  0  0  0  0  0
   -1.3492   -7.3406   44.8939 C   0  0  0  0  0  0  0  0  0  0  0  0
   -1.6897   -7.7662   46.1419 C   0  0  0  0  0  0  0  0  0  0  0  0
   -1.1928   -7.0471   47.2729 C   0  0  0  0  0  0  0  0  0  0  0  0
   -0.2596   -6.1058   47.0195 C   0  0  0  0  0  0  0  0  0  0  0  0
    3.0057   -6.3907   45.0939 C   0  0  0  0  0  0  0  0  0  0  0  0
   -2.8182   -8.7433   46.3424 C   0  0  0  0  0  0  0  0  0  0  0  0
   -2.7942   -9.5535   47.2103 C   0  0  0  0  0  0  0  0  0  0  0  0
   -4.0337   -8.4926   45.5709 C   0  0  0  0  0  0  0  0  0  0  0  0
   -5.0675   -9.3561   45.7133 C   0  0  0  0  0  0  0  0  0  0  0  0
   -3.8298  -10.4977   47.4520 C   0  0  0  0  0  0  0  0  0  0  0  0
   -4.9896  -10.3377   46.7206 C   0  0  0  0  0  0  0  0  0  0  0  0
    4.5644   -3.8810   45.6016 C   0  0  0  0  0  0  0  0  0  0  0  0
    4.4880   -4.0044   47.0485 C   0  0  0  0  0  0  0  0  0  0  0  0
    5.7554   -4.2761   47.7479 C   0  0  0  0  0  0  0  0  0  0  0  0
    6.9704   -3.6550   47.3976 C   0  0  0  0  0  0  0  0  0  0  0  0
    8.1607   -4.0358   47.9787 C   0  0  0  0  0  0  0  0  0  0  0  0
    8.1111   -4.7265   49.1877 C   0  0  0  0  0  0  0  0  0  0  0  0
    6.8742   -5.2190   49.6233 C   0  0  0  0  0  0  0  0  0  0  0  0
    5.7262   -5.0132   48.9494 C   0  0  0  0  0  0  0  0  0  0  0  0
    9.4072   -3.3811   47.5096 C   0  0  0  0  0  0  0  0  0  0  0  0
    9.4367   -2.1856   46.9744 C   0  0  0  0  0  0  0  0  0  0  0  0
  1  2  1  0
  2  3  1  0
  3  4  1  0
  4  5  1  0
  5  6  1  1
  1  7  1  0
  5  8  1  0
  8  9  2  3
  9 10  1  0
 10 11  1  1
 11 12  1  0
 11 19  1  0
 16 20  1  0
 10 26  1  0
 26 27  2  3
 27 28  1  0
 30 34  1  0
 34 35  2  0
 12 13  1  0
 28 29  2  0
 29 30  1  0
 30 31  2  0
 31 32  1  0
 32 33  2  0
 33 28  1  0
 20 21  2  0
 21 24  1  0
 24 25  2  0
 25 23  1  0
 23 22  2  0
 22 20  1  0
 13 14  2  0
 14 15  1  0
 15 16  2  0
 16 17  1  0
 17 18  2  0
 18 13  1  0
M  END
$$$$
O14757_PocketFlow_idx-in-all-generaetd-313
     RDKit          3D

 35 36  0  0  0  0  0  0  0  0999 V2000
   -0.6395   -2.0713   41.4947 C   0  0  0  0  0  0  0  0  0  0  0  0
   -0.2671   -3.2464   41.6546 C   0  0  0  0  0  0  0  0  0  0  0  0
    0.2277   -0.9875   41.6495 C   0  0  0  0  0  0  0  0  0  0  0  0
    1.6284   -1.2752   41.8841 C   0  0  0  0  0  0  0  0  0  0  0  0
    1.8971   -2.6873   42.1685 C   0  0  0  0  0  0  0  0  0  0  0  0
    0.9380   -3.6379   42.0922 C   0  0  0  0  0  0  0  0  0  0  0  0
    2.5827   -0.2859   42.1122 C   0  0  0  0  0  0  0  0  0  0  0  0
    3.8936   -0.5691   42.6035 C   0  0  0  0  0  0  0  0  0  0  0  0
    4.3759   -0.4123   43.6174 C   0  0  0  0  0  0  0  0  0  0  0  0
    5.7307   -0.8812   44.0836 C   0  0  0  0  0  0  0  0  0  0  0  0
   -2.0630   -1.7283   41.1068 C   0  0  0  0  0  0  0  0  0  0  0  0
   -2.8299   -2.6602   40.5652 N   0  0  0  0  0  0  0  0  0  0  0  0
   -2.5446   -0.5447   41.2803 O   0  0  0  0  0  0  0  0  0  0  0  0
    5.8480   -1.8891   45.0842 C   0  0  0  0  0  0  0  0  0  0  0  0
    4.9634   -2.9177   45.2937 C   0  0  0  0  0  0  0  0  0  0  0  0
    4.1307   -3.4411   44.4095 C   0  0  0  0  0  0  0  0  0  0  0  0
    3.3699   -4.5920   44.7159 C   0  0  0  0  0  0  0  0  0  0  0  0
    2.2711   -5.0863   44.1927 C   0  0  0  0  0  0  0  0  0  0  0  0
    1.5876   -6.1915   44.7801 C   0  0  0  0  0  0  0  0  0  0  0  0
    0.2230   -6.4179   44.5882 C   0  0  0  0  0  0  0  0  0  0  0  0
    5.1125   -3.5749   46.5985 C   0  0  0  0  0  0  0  0  0  0  0  0
    6.1275   -3.1892   47.4990 C   0  0  0  0  0  0  0  0  0  0  0  0
   -0.3693   -7.3248   45.3900 C   0  0  2  0  0  0  0  0  0  0  0  0
   -1.8463   -7.5088   45.4010 C   0  0  0  0  0  0  0  0  0  0  0  0
   -2.3056   -8.1354   44.1828 C   0  0  0  0  0  0  0  0  0  0  0  0
   -3.7178   -8.4546   44.1210 C   0  0  0  0  0  0  0  0  0  0  0  0
   -4.3823   -8.0740   43.1900 C   0  0  0  0  0  0  0  0  0  0  0  0
   -5.8104   -8.3210   43.0897 C   0  0  0  0  0  0  0  0  0  0  0  0
   -4.2180   -9.3415   45.1083 C   0  0  0  0  0  0  0  0  0  0  0  0
   -5.6000   -9.6024   45.0968 C   0  0  0  0  0  0  0  0  0  0  0  0
   -6.3995   -9.0622   44.1003 C   0  0  0  0  0  0  0  0  0  0  0  0
    0.4195   -8.0392   46.3929 C   0  0  1  0  0  0  0  0  0  0  0  0
   -0.2623   -8.2510   47.4635 F   0  0  0  0  0  0  0  0  0  0  0  0
    1.1948   -9.1917   45.8494 C   0  0  0  0  0  0  0  0  0  0  0  0
    6.3202   -4.1879   48.5395 C   0  0  0  0  0  0  0  0  0  0  0  0
  4  7  1  0
  7  8  1  0
  8  9  2  3
  9 10  1  0
  1 11  1  0
 11 12  2  3
 11 13  1  0
 10 14  1  0
 14 15  1  0
 15 16  2  3
 16 17  1  0
 17 18  2  3
 18 19  1  0
 19 20  2  3
 15 21  1  0
 21 22  1  0
 20 23  1  0
 23 24  1  1
 24 25  1  0
 25 26  1  0
 23 32  1  0
 32 33  1  0
 32 34  1  6
 22 35  2  0
 26 27  2  0
 27 28  1  0
 28 31  2  0
 31 30  1  0
 30 29  2  0
 29 26  1  0
  1  2  2  0
  2  6  1  0
  6  5  2  0
  5  4  1  0
  4  3  2  0
  3  1  1  0
M  END
$$$$
O14757_PocketFlow_idx-in-all-generaetd-314
     RDKit          3D

 19 21  0  0  0  0  0  0  0  0999 V2000
   -0.8794   -1.9236   41.9357 O   0  0  0  0  0  0  0  0  0  0  0  0
    0.3070   -1.6014   41.6735 C   0  0  0  0  0  0  0  0  0  0  0  0
    0.8161   -0.2851   41.6101 C   0  0  0  0  0  0  0  0  0  0  0  0
    2.1998   -0.0967   42.0239 C   0  0  0  0  0  0  0  0  0  0  0  0
    3.0418   -1.1900   42.4099 C   0  0  0  0  0  0  0  0  0  0  0  0
    4.3863   -1.0131   42.8122 C   0  0  0  0  0  0  0  0  0  0  0  0
    5.0576   -2.0566   43.3995 C   0  0  0  0  0  0  0  0  0  0  0  0
    4.2938   -3.1870   43.7322 C   0  0  0  0  0  0  0  0  0  0  0  0
    2.9617   -3.3322   43.5102 C   0  0  0  0  0  0  0  0  0  0  0  0
    2.3124   -2.2705   42.9214 C   0  0  0  0  0  0  0  0  0  0  0  0
    0.9984   -2.6831   40.9839 C   0  0  0  0  0  0  0  0  0  0  0  0
    1.2128   -2.8824   42.1902 C   0  0  2  0  0  0  0  0  0  0  0  0
    0.4842   -3.8394   42.9060 C   0  0  0  0  0  0  0  0  0  0  0  0
    1.6475   -3.7539   42.4679 F   0  0  0  0  0  0  0  0  0  0  0  0
    0.1989   -3.6860   44.1703 O   0  0  0  0  0  0  0  0  0  0  0  0
   -0.1307   -4.8023   42.3702 O   0  0  0  0  0  0  0  0  0  0  0  0
    2.6921   -4.1580   44.7586 O   0  0  0  0  0  0  0  0  0  0  0  0
    3.6188   -4.8238   45.3047 C   0  0  0  0  0  0  0  0  0  0  0  0
    4.7966   -4.0822   44.9022 C   0  0  0  0  0  0  0  0  0  0  0  0
  1  2  2  0
  2  3  1  0
  3  4  1  0
  4  5  1  0
  2 11  1  0
 10 12  1  0
 11 12  1  0
 12 13  1  0
 12 14  1  1
 13 15  1  0
 13 16  1  0
  9 17  1  0
 17 18  1  0
  8 19  1  0
 18 19  2  0
  5  6  2  0
  6  7  1  0
  7  8  2  0
  8  9  1  0
  9 10  2  0
 10  5  1  0
M  END
$$$$
O14757_PocketFlow_idx-in-all-generaetd-315
     RDKit          3D

 11 11  0  0  0  0  0  0  0  0999 V2000
   -0.6395   -2.0713   41.4947 C   0  0  0  0  0  0  0  0  0  0  0  0
    0.1859   -1.1027   41.5970 C   0  0  0  0  0  0  0  0  0  0  0  0
    1.5858   -1.4431   41.9548 C   0  0  0  0  0  0  0  0  0  0  0  0
    1.6955   -2.6772   42.6484 C   0  0  0  0  0  0  0  0  0  0  0  0
    0.6232   -3.6308   42.6496 C   0  0  0  0  0  0  0  0  0  0  0  0
   -0.5946   -3.1864   42.1233 C   0  0  0  0  0  0  0  0  0  0  0  0
    2.8117   -2.9280   43.4995 C   0  0  0  0  0  0  0  0  0  0  0  0
    3.1311   -4.0113   44.2456 C   0  0  0  0  0  0  0  0  0  0  0  0
    2.2883   -5.0045   44.6600 C   0  0  0  0  0  0  0  0  0  0  0  0
    0.9709   -4.8137   45.0280 C   0  0  0  0  0  0  0  0  0  0  0  0
    0.2417   -5.6936   45.9034 C   0  0  0  0  0  0  0  0  0  0  0  0
  1  2  1  0
  2  3  1  0
  3  4  1  0
  4  5  1  0
  1  6  1  0
  5  6  1  0
  4  7  1  0
  7  8  2  3
  8  9  1  0
  9 10  1  0
 10 11  2  0
M  END
$$$$
O14757_PocketFlow_idx-in-all-generaetd-316
     RDKit          3D

 18 18  0  0  0  0  0  0  0  0999 V2000
    0.2881   -2.9111   42.4378 C   0  0  0  0  0  0  0  0  0  0  0  0
   -0.0650   -2.5021   41.5798 C   0  0  0  0  0  0  0  0  0  0  0  0
    1.5111   -2.4518   43.1047 C   0  0  0  0  0  0  0  0  0  0  0  0
    2.2161   -3.1002   44.2235 C   0  0  0  0  0  0  0  0  0  0  0  0
    1.4768   -4.2220   44.7826 C   0  0  0  0  0  0  0  0  0  0  0  0
    0.3667   -4.7301   44.0804 C   0  0  0  0  0  0  0  0  0  0  0  0
   -0.1331   -4.1976   42.9843 C   0  0  0  0  0  0  0  0  0  0  0  0
    0.7414   -1.7314   40.9642 F   0  0  0  0  0  0  0  0  0  0  0  0
   -0.4492   -3.4355   40.6332 F   0  0  0  0  0  0  0  0  0  0  0  0
   -1.2389   -1.7510   41.8424 F   0  0  0  0  0  0  0  0  0  0  0  0
    2.0858   -4.8047   45.9408 C   0  0  0  0  0  0  0  0  0  0  0  0
    2.5916   -4.4419   46.8006 F   0  0  0  0  0  0  0  0  0  0  0  0
    1.6890   -6.1272   45.9701 F   0  0  0  0  0  0  0  0  0  0  0  0
    3.2372   -2.6346   44.8065 O   0  0  0  0  0  0  0  0  0  0  0  0
    4.2443   -2.0183   43.9684 C   0  0  0  0  0  0  0  0  0  0  0  0
    5.4279   -1.8146   44.7900 C   0  0  0  0  0  0  0  0  0  0  0  0
    6.5613   -1.1802   44.3307 C   0  0  0  0  0  0  0  0  0  0  0  0
    5.4973   -2.4386   46.1219 C   0  0  0  0  0  0  0  0  0  0  0  0
  1  2  1  0
  2  8  1  0
  2  9  1  0
  2 10  1  0
  5 11  1  0
 11 12  1  0
 11 13  1  0
  4 14  1  0
 14 15  1  0
 15 16  1  0
 16 17  2  0
 16 18  1  0
  1  3  2  0
  3  4  1  0
  4  5  2  0
  5  6  1  0
  6  7  2  0
  7  1  1  0
M  END
$$$$
O14757_PocketFlow_idx-in-all-generaetd-317
     RDKit          3D

 29 31  0  0  0  0  0  0  0  0999 V2000
    0.2881   -2.9111   42.4378 C   0  0  0  0  0  0  0  0  0  0  0  0
    1.1784   -3.4293   42.9321 C   0  0  0  0  0  0  0  0  0  0  0  0
    2.4507   -2.7243   42.9621 C   0  0  0  0  0  0  0  0  0  0  0  0
    2.5762   -1.5430   42.3314 C   0  0  0  0  0  0  0  0  0  0  0  0
    0.2682   -1.7017   41.6882 C   0  0  0  0  0  0  0  0  0  0  0  0
    1.4524   -1.0424   41.6523 C   0  0  0  0  0  0  0  0  0  0  0  0
    3.6353   -3.2132   43.7388 C   0  0  0  0  0  0  0  0  0  0  0  0
    3.7075   -4.5235   44.2913 C   0  0  0  0  0  0  0  0  0  0  0  0
    4.6647   -2.2687   44.0432 C   0  0  0  0  0  0  0  0  0  0  0  0
    5.6739   -2.6506   44.9596 C   0  0  0  0  0  0  0  0  0  0  0  0
    5.6919   -3.9316   45.5427 C   0  0  0  0  0  0  0  0  0  0  0  0
    4.7121   -4.8089   45.2304 C   0  0  0  0  0  0  0  0  0  0  0  0
   -0.8421   -1.2286   41.1129 F   0  0  0  0  0  0  0  0  0  0  0  0
    6.8031   -1.6731   45.2535 C   0  0  0  0  0  0  0  0  0  0  0  0
    6.8237   -0.5691   44.6629 O   0  0  0  0  0  0  0  0  0  0  0  0
    7.9310   -2.1276   45.9191 O   0  0  0  0  0  0  0  0  0  0  0  0
    8.8636   -1.2601   46.2740 C   0  0  0  0  0  0  0  0  0  0  0  0
   10.0604   -1.8343   47.0698 C   0  0  2  0  0  0  0  0  0  0  0  0
    9.6855   -2.3148   48.2593 C   0  0  0  0  0  0  0  0  0  0  0  0
    8.7767   -2.7619   48.7328 C   0  0  0  0  0  0  0  0  0  0  0  0
    8.5607   -3.2263   50.1238 C   0  0  0  0  0  0  0  0  0  0  0  0
    7.3535   -3.7624   50.6520 C   0  0  0  0  0  0  0  0  0  0  0  0
    6.3416   -4.0078   49.6992 C   0  0  0  0  0  0  0  0  0  0  0  0
    6.5246   -3.7536   48.3432 C   0  0  0  0  0  0  0  0  0  0  0  0
    7.7311   -3.1365   47.9261 C   0  0  0  0  0  0  0  0  0  0  0  0
    8.1478   -3.7497   46.8603 C   0  0  1  0  0  0  0  0  0  0  0  0
    9.4681   -4.0617   46.5469 C   0  0  0  0  0  0  0  0  0  0  0  0
    7.6517   -4.7980   46.4480 O   0  0  0  0  0  0  0  0  0  0  0  0
   11.0361   -0.6951   46.9615 O   0  0  0  0  0  0  0  0  0  0  0  0
  3  7  1  0
  5 13  1  0
 10 14  1  0
 14 15  2  0
 14 16  1  0
 16 17  1  0
 17 18  1  0
 18 19  1  0
 25 26  1  0
 26 27  1  1
 26 28  1  0
 18 29  1  1
 19 20  1  0
  1  2  2  0
  2  3  1  0
  3  4  2  0
  4  6  1  0
  6  5  2  0
  5  1  1  0
  7  8  2  0
  8 12  1  0
 12 11  2  0
 11 10  1  0
 10  9  2  0
  9  7  1  0
 20 21  2  0
 21 22  1  0
 22 23  2  0
 23 24  1  0
 24 25  2  0
 25 20  1  0
M  END
$$$$
O14757_PocketFlow_idx-in-all-generaetd-318
     RDKit          3D

 20 20  0  0  0  0  0  0  0  0999 V2000
   -0.6395   -2.0713   41.4947 C   0  0  0  0  0  0  0  0  0  0  0  0
    0.1859   -1.1027   41.5970 C   0  0  0  0  0  0  0  0  0  0  0  0
    1.5836   -1.3270   41.4669 C   0  0  0  0  0  0  0  0  0  0  0  0
   -0.2462   -3.3905   41.2409 C   0  0  0  0  0  0  0  0  0  0  0  0
    2.0075   -2.6977   41.3341 C   0  0  0  0  0  0  0  0  0  0  0  0
    1.0655   -3.6470   41.1373 C   0  0  0  0  0  0  0  0  0  0  0  0
    2.5627   -0.2735   41.7330 C   0  0  0  0  0  0  0  0  0  0  0  0
    2.3913    0.8355   41.3134 F   0  0  0  0  0  0  0  0  0  0  0  0
    3.8536   -0.7092   41.3255 F   0  0  0  0  0  0  0  0  0  0  0  0
    2.8229   -0.1680   43.1176 F   0  0  0  0  0  0  0  0  0  0  0  0
   -1.9961   -1.7708   41.5923 O   0  0  0  0  0  0  0  0  0  0  0  0
   -2.8346   -1.9475   40.5379 C   0  0  2  0  0  0  0  0  0  0  0  0
   -3.9065   -1.0238   40.5006 C   0  0  0  0  0  0  0  0  0  0  0  0
   -3.7904    0.0023   41.2445 O   0  0  0  0  0  0  0  0  0  0  0  0
   -4.8858   -1.1852   39.7557 O   0  0  0  0  0  0  0  0  0  0  0  0
   -3.0889    1.2660   40.7471 C   0  0  0  0  0  0  0  0  0  0  0  0
   -3.0502   -3.1893   40.1728 O   0  0  0  0  0  0  0  0  0  0  0  0
   -4.2664    2.2120   40.5238 C   0  0  0  0  0  0  0  0  0  0  0  0
   -4.5398    2.4687   39.3492 O   0  0  0  0  0  0  0  0  0  0  0  0
   -4.7262    2.7907   41.5095 O   0  0  0  0  0  0  0  0  0  0  0  0
  3  7  1  0
  7  8  1  0
  7  9  1  0
  7 10  1  0
  1 11  1  0
 11 12  1  0
 12 13  1  0
 13 14  1  0
 13 15  2  0
 14 16  1  0
 12 17  1  1
 16 18  1  0
 18 19  2  0
 18 20  1  0
  1  2  2  0
  2  3  1  0
  3  5  2  0
  5  6  1  0
  6  4  2  0
  4  1  1  0
M  END
$$$$
O14757_PocketFlow_idx-in-all-generaetd-319
     RDKit          3D

 13 13  0  0  0  0  0  0  0  0999 V2000
   -0.6395   -2.0713   41.4947 C   0  0  0  0  0  0  0  0  0  0  0  0
    0.6719   -2.2449   41.7518 C   0  0  0  0  0  0  0  0  0  0  0  0
    1.5951   -1.1948   41.6106 C   0  0  0  0  0  0  0  0  0  0  0  0
    2.8936   -1.2860   42.2441 C   0  0  0  0  0  0  0  0  0  0  0  0
    3.7940   -0.2219   42.2897 C   0  0  0  0  0  0  0  0  0  0  0  0
   -1.5413   -3.1234   41.4338 C   0  0  0  0  0  0  0  0  0  0  0  0
    5.0120   -0.3694   42.9827 C   0  0  0  0  0  0  0  0  0  0  0  0
    5.3025   -1.4947   43.7553 C   0  0  0  0  0  0  0  0  0  0  0  0
    4.3310   -2.5622   43.7178 C   0  0  0  0  0  0  0  0  0  0  0  0
    3.1286   -2.4010   43.0159 C   0  0  0  0  0  0  0  0  0  0  0  0
   -0.9010   -4.3604   41.4446 N   0  0  0  0  0  0  0  0  0  0  0  0
    4.7450   -3.7424   44.5187 C   0  0  0  0  0  0  0  0  0  0  0  0
    4.9965   -3.6530   45.8583 C   0  0  0  0  0  0  0  0  0  0  0  0
  1  2  1  0
  2  3  1  0
  3  4  1  0
  1  6  2  3
  6 11  1  0
  9 12  1  0
 12 13  2  0
  4  5  2  0
  5  7  1  0
  7  8  2  0
  8  9  1  0
  9 10  2  0
 10  4  1  0
M  END
$$$$
O14757_PocketFlow_idx-in-all-generaetd-320
     RDKit          3D

 12 13  0  0  0  0  0  0  0  0999 V2000
    0.2881   -2.9111   42.4378 C   0  0  0  0  0  0  0  0  0  0  0  0
   -0.0650   -2.5021   41.5798 C   0  0  0  0  0  0  0  0  0  0  0  0
    1.5584   -2.5265   43.0885 C   0  0  0  0  0  0  0  0  0  0  0  0
    2.2571   -1.5118   42.4661 C   0  0  0  0  0  0  0  0  0  0  0  0
    1.6355   -0.8966   41.3660 C   0  0  0  0  0  0  0  0  0  0  0  0
    0.4994   -1.3542   40.8962 N   0  0  0  0  0  0  0  0  0  0  0  0
    3.5172   -1.0550   42.9902 C   0  0  2  0  0  0  0  0  0  0  0  0
    4.0740    0.1898   42.7475 C   0  0  0  0  0  0  0  0  0  0  0  0
    4.5307   -2.0368   43.5159 C   0  0  0  0  0  0  0  0  0  0  0  0
    4.2556   -3.2464   43.9421 C   0  0  0  0  0  0  0  0  0  0  0  0
    3.1081   -3.8753   44.2252 C   0  0  0  0  0  0  0  0  0  0  0  0
    1.9160   -3.6653   43.6394 C   0  0  0  0  0  0  0  0  0  0  0  0
  4  7  1  0
  7  8  1  6
  7  9  1  0
  9 10  2  0
 10 11  1  0
  3 12  1  0
 11 12  2  0
  1  2  2  0
  2  6  1  0
  6  5  2  0
  5  4  1  0
  4  3  2  0
  3  1  1  0
M  END
$$$$
O14757_PocketFlow_idx-in-all-generaetd-321
     RDKit          3D

 35 37  0  0  0  0  0  0  0  0999 V2000
   -0.6395   -2.0713   41.4947 C   0  0  2  0  0  0  0  0  0  0  0  0
    0.1859   -1.1027   41.5970 C   0  0  0  0  0  0  0  0  0  0  0  0
    1.5836   -1.3270   41.4670 C   0  0  0  0  0  0  0  0  0  0  0  0
   -2.0616   -1.8375   41.5032 C   0  0  0  0  0  0  0  0  0  0  0  0
    2.5703   -0.3987   41.8488 C   0  0  0  0  0  0  0  0  0  0  0  0
    3.8557   -0.7227   42.2740 C   0  0  0  0  0  0  0  0  0  0  0  0
    4.0936   -0.7891   43.6657 C   0  0  0  0  0  0  0  0  0  0  0  0
    5.4364   -1.1204   44.0797 C   0  0  0  0  0  0  0  0  0  0  0  0
   -2.4536   -0.5104   41.2530 C   0  0  0  0  0  0  0  0  0  0  0  0
   -3.8420   -0.2436   41.1947 C   0  0  0  0  0  0  0  0  0  0  0  0
   -0.0960   -3.4272   41.5609 C   0  0  0  0  0  0  0  0  0  0  0  0
    5.6841   -2.0866   44.9950 C   0  0  2  0  0  0  0  0  0  0  0  0
    6.9518   -2.2003   45.6872 C   0  0  0  0  0  0  0  0  0  0  0  0
    7.9411   -1.1896   45.3801 C   0  0  0  0  0  0  0  0  0  0  0  0
    7.2501   -3.3377   46.5137 C   0  0  0  0  0  0  0  0  0  0  0  0
    7.5172   -3.1886   47.5530 C   0  0  0  0  0  0  0  0  0  0  0  0
    8.9623   -1.2280   46.4973 C   0  0  0  0  0  0  0  0  0  0  0  0
    8.9088   -2.2065   47.5023 C   0  0  0  0  0  0  0  0  0  0  0  0
    4.6882   -3.0799   45.1189 C   0  0  0  0  0  0  0  0  0  0  0  0
    4.2752   -3.6306   46.2753 C   0  0  0  0  0  0  0  0  0  0  0  0
    3.1967   -4.5757   46.3940 C   0  0  0  0  0  0  0  0  0  0  0  0
    2.3882   -4.6583   45.2497 C   0  0  0  0  0  0  0  0  0  0  0  0
    2.6215   -3.9037   44.0850 C   0  0  0  0  0  0  0  0  0  0  0  0
    3.7669   -3.1636   44.0401 C   0  0  0  0  0  0  0  0  0  0  0  0
    1.2053   -5.4929   45.3209 C   0  0  0  0  0  0  0  0  0  0  0  0
    0.3125   -5.2665   46.2214 C   0  0  0  0  0  0  0  0  0  0  0  0
   -0.9082   -6.0758   46.3479 C   0  0  0  0  0  0  0  0  0  0  0  0
   -1.0710   -7.1437   45.4572 C   0  0  0  0  0  0  0  0  0  0  0  0
   -0.1145   -7.2720   44.3817 C   0  0  0  0  0  0  0  0  0  0  0  0
    0.9724   -6.4954   44.3744 C   0  0  0  0  0  0  0  0  0  0  0  0
   -2.2715   -7.9603   45.4809 C   0  0  0  0  0  0  0  0  0  0  0  0
   -3.3199   -7.7500   44.5862 Br  0  0  0  0  0  0  0  0  0  0  0  0
   -2.1846   -9.0154   46.5525 C   0  0  0  0  0  0  0  0  0  0  0  0
   -3.0858   -8.8052   47.5365 C   0  0  0  0  0  0  0  0  0  0  0  0
   -3.5234   -7.7649   47.8897 C   0  0  0  0  0  0  0  0  0  0  0  0
  1  2  1  0
  2  3  2  3
  1  4  1  0
  3  5  1  0
  5  6  1  0
  6  7  1  0
  7  8  2  3
  4  9  2  3
  9 10  1  0
  1 11  1  1
  8 12  1  0
 12 19  1  6
 22 25  1  0
 28 31  1  0
 31 32  1  0
 31 33  1  0
 33 34  1  0
 34 35  2  0
 12 13  1  0
 25 26  2  0
 26 27  1  0
 27 28  2  0
 28 29  1  0
 29 30  2  0
 30 25  1  0
 19 20  2  0
 20 21  1  0
 21 22  2  0
 22 23  1  0
 23 24  2  0
 24 19  1  0
 13 14  2  0
 14 17  1  0
 17 18  2  0
 18 16  1  0
 16 15  2  0
 15 13  1  0
M  END
$$$$
O14757_PocketFlow_idx-in-all-generaetd-322
     RDKit          3D

 35 38  0  0  0  0  0  0  0  0999 V2000
   -0.6770   -2.0561   41.5845 Cl  0  0  0  0  0  0  0  0  0  0  0  0
    0.6635   -1.3656   41.8224 C   0  0  0  0  0  0  0  0  0  0  0  0
    1.7619   -1.9073   41.4730 C   0  0  0  0  0  0  0  0  0  0  0  0
    3.0023   -1.2463   41.8779 C   0  0  0  0  0  0  0  0  0  0  0  0
    3.1681    0.0862   42.0082 C   0  0  0  0  0  0  0  0  0  0  0  0
    1.8954    0.7191   42.1430 N   0  0  0  0  0  0  0  0  0  0  0  0
    0.7568    0.1040   41.9801 C   0  0  0  0  0  0  0  0  0  0  0  0
    4.2452    0.6851   42.2940 N   0  0  0  0  0  0  0  0  0  0  0  0
    5.3376   -0.0798   42.7347 C   0  0  0  0  0  0  0  0  0  0  0  0
    5.1918   -1.4298   42.8159 N   0  0  0  0  0  0  0  0  0  0  0  0
    4.1129   -2.0506   42.4190 C   0  0  0  0  0  0  0  0  0  0  0  0
    4.0337   -3.3645   42.7039 N   0  0  0  0  0  0  0  0  0  0  0  0
    4.0293   -3.8547   44.0433 C   0  0  0  0  0  0  0  0  0  0  0  0
    3.6549   -5.1800   44.2864 C   0  0  0  0  0  0  0  0  0  0  0  0
    3.6180   -5.6019   45.6328 C   0  0  0  0  0  0  0  0  0  0  0  0
    4.1635   -4.8140   46.6438 C   0  0  0  0  0  0  0  0  0  0  0  0
    4.6220   -3.5596   46.3960 C   0  0  0  0  0  0  0  0  0  0  0  0
    4.5262   -3.0212   45.1229 C   0  0  0  0  0  0  0  0  0  0  0  0
    3.1765   -7.2172   45.9405 Cl  0  0  0  0  0  0  0  0  0  0  0  0
    5.0454   -2.7558   47.4128 O   0  0  0  0  0  0  0  0  0  0  0  0
    6.4705   -2.8714   47.5954 C   0  0  0  0  0  0  0  0  0  0  0  0
    7.1180   -3.8421   47.3050 C   0  0  0  0  0  0  0  0  0  0  0  0
    8.4578   -3.8415   47.6414 C   0  0  0  0  0  0  0  0  0  0  0  0
    9.2686   -4.9119   47.6964 C   0  0  0  0  0  0  0  0  0  0  0  0
    8.7279   -6.1416   47.7681 C   0  0  0  0  0  0  0  0  0  0  0  0
    7.3303   -6.2574   47.8843 C   0  0  0  0  0  0  0  0  0  0  0  0
    6.5945   -5.2268   47.6982 C   0  0  0  0  0  0  0  0  0  0  0  0
    9.1846   -2.5254   47.3278 C   0  0  0  0  0  0  0  0  0  0  0  0
    9.9815   -1.9600   48.3244 C   0  0  0  0  0  0  0  0  0  0  0  0
    9.0969   -1.7754   46.1214 C   0  0  0  0  0  0  0  0  0  0  0  0
    9.7773   -0.5734   46.1377 N   0  0  0  0  0  0  0  0  0  0  0  0
    9.9445   -2.6167   49.6763 C   0  0  0  0  0  0  0  0  0  0  0  0
    9.7098   -3.5074   50.1505 C   0  0  0  0  0  0  0  0  0  0  0  0
    9.8795   -3.5782   51.6388 C   0  0  0  0  0  0  0  0  0  0  0  0
   10.1821   -2.5338   52.3020 C   0  0  0  0  0  0  0  0  0  0  0  0
  1  2  1  0
 11 12  1  0
 12 13  1  0
 15 19  1  0
 17 20  1  0
 20 21  1  0
 23 28  1  0
 28 29  2  3
 28 30  1  0
 30 31  1  0
 29 32  1  0
 32 33  2  3
 33 34  1  0
 34 35  2  0
 21 22  1  0
  2  3  2  0
  3  4  1  0
  5  6  1  0
  6  7  2  0
  7  2  1  0
 13 14  2  0
 14 15  1  0
 15 16  2  0
 16 17  1  0
 17 18  2  0
 18 13  1  0
 22 23  2  0
 23 24  1  0
 24 25  2  0
 25 26  1  0
 26 27  2  0
 27 22  1  0
  4  5  2  0
  5  8  1  0
  8  9  2  0
  9 10  1  0
 10 11  2  0
 11  4  1  0
M  END
$$$$
O14757_PocketFlow_idx-in-all-generaetd-323
     RDKit          3D

 35 38  0  0  0  0  0  0  0  0999 V2000
    0.2881   -2.9111   42.4378 C   0  0  0  0  0  0  0  0  0  0  0  0
   -0.0650   -2.5020   41.5798 C   0  0  0  0  0  0  0  0  0  0  0  0
    1.5111   -2.4518   43.1047 C   0  0  0  0  0  0  0  0  0  0  0  0
    2.2161   -3.1002   44.2235 C   0  0  0  0  0  0  0  0  0  0  0  0
    3.4509   -2.7433   44.6316 C   0  0  0  0  0  0  0  0  0  0  0  0
    4.1418   -3.4878   45.6526 C   0  0  0  0  0  0  0  0  0  0  0  0
    0.3296   -1.1770   41.0396 C   0  0  0  0  0  0  0  0  0  0  0  0
    1.4445   -0.6074   41.6922 C   0  0  0  0  0  0  0  0  0  0  0  0
    2.0824   -1.2611   42.6841 C   0  0  0  0  0  0  0  0  0  0  0  0
    1.6574   -4.2516   44.8887 C   0  0  0  0  0  0  0  0  0  0  0  0
    2.2412   -4.8453   46.0136 C   0  0  0  0  0  0  0  0  0  0  0  0
    3.5123   -4.4701   46.3405 C   0  0  0  0  0  0  0  0  0  0  0  0
    5.5399   -3.0172   46.0643 C   0  0  0  0  0  0  0  0  0  0  0  0
    6.2744   -3.6192   47.0284 C   0  0  0  0  0  0  0  0  0  0  0  0
    7.6289   -3.3651   47.1533 C   0  0  0  0  0  0  0  0  0  0  0  0
    8.1717   -2.2947   46.3568 C   0  0  0  0  0  0  0  0  0  0  0  0
    7.4181   -1.6931   45.3776 C   0  0  0  0  0  0  0  0  0  0  0  0
    6.0961   -2.0318   45.2022 C   0  0  0  0  0  0  0  0  0  0  0  0
    9.6225   -1.9331   46.5445 C   0  0  0  0  0  0  0  0  0  0  0  0
   10.0608   -1.7733   47.8474 C   0  0  0  0  0  0  0  0  0  0  0  0
    9.3438   -1.6535   48.8970 C   0  0  0  0  0  0  0  0  0  0  0  0
    9.9265   -1.3787   50.1906 C   0  0  0  0  0  0  0  0  0  0  0  0
   11.2850   -1.2738   50.2666 C   0  0  0  0  0  0  0  0  0  0  0  0
   11.5085   -1.8400   47.9325 C   0  0  0  0  0  0  0  0  0  0  0  0
   12.1235   -1.4784   49.1900 C   0  0  0  0  0  0  0  0  0  0  0  0
    0.4112   -4.6168   44.6097 O   0  0  0  0  0  0  0  0  0  0  0  0
    0.1391   -5.9896   45.0017 C   0  0  0  0  0  0  0  0  0  0  0  0
   -0.5211   -6.2042   46.0902 C   0  0  2  0  0  0  0  0  0  0  0  0
   -1.3222   -7.4074   46.2113 C   0  0  1  0  0  0  0  0  0  0  0  0
   -1.9342   -7.6694   44.9288 C   0  0  0  0  0  0  0  0  0  0  0  0
   -2.5749   -7.0542   44.4405 C   0  0  0  0  0  0  0  0  0  0  0  0
   -3.2581   -7.6687   43.0864 C   0  0  0  0  0  0  0  0  0  0  0  0
   -1.3322   -5.0667   46.5293 O   0  0  0  0  0  0  0  0  0  0  0  0
   -1.3051   -2.9188   40.9823 N   0  0  0  0  0  0  0  0  0  0  0  0
   -0.4619   -8.4434   46.8715 N   0  0  0  0  0  0  0  0  0  0  0  0
  3  4  1  0
  6 13  1  0
 16 19  1  0
 19 20  1  0
 10 26  1  0
 26 27  1  0
 27 28  1  0
 28 29  1  0
 29 30  1  0
 30 31  2  3
 31 32  1  0
 28 33  1  6
  2 34  1  0
 29 35  1  6
  4  5  2  0
  5  6  1  0
  6 12  2  0
 12 11  1  0
 11 10  2  0
 10  4  1  0
 13 14  2  0
 14 15  1  0
 15 16  2  0
 16 17  1  0
 17 18  2  0
 18 13  1  0
 20 21  2  0
 21 22  1  0
 22 23  2  0
 23 25  1  0
 25 24  2  0
 24 20  1  0
  1  2  2  0
  2  7  1  0
  7  8  2  0
  8  9  1  0
  9  3  2  0
  3  1  1  0
M  END
$$$$
O14757_PocketFlow_idx-in-all-generaetd-324
     RDKit          3D

 20 22  0  0  0  0  0  0  0  0999 V2000
   -0.6395   -2.0713   41.4947 C   0  0  0  0  0  0  0  0  0  0  0  0
   -0.2671   -3.2464   41.6546 C   0  0  0  0  0  0  0  0  0  0  0  0
    0.2277   -0.9875   41.6495 C   0  0  0  0  0  0  0  0  0  0  0  0
    1.6284   -1.2752   41.8841 C   0  0  0  0  0  0  0  0  0  0  0  0
    2.6421   -0.3335   42.0825 C   0  0  0  0  0  0  0  0  0  0  0  0
    3.8980   -0.6935   42.5215 C   0  0  0  0  0  0  0  0  0  0  0  0
    4.0537   -1.9942   43.1141 C   0  0  0  0  0  0  0  0  0  0  0  0
    2.9046   -2.8528   43.1593 C   0  0  0  0  0  0  0  0  0  0  0  0
    1.6962   -2.4158   42.6618 C   0  0  0  0  0  0  0  0  0  0  0  0
    0.7792   -3.4973   42.3933 C   0  0  0  0  0  0  0  0  0  0  0  0
    4.9935    0.0964   42.5619 N   0  0  0  0  0  0  0  0  0  0  0  0
   -2.0310   -1.6873   40.9985 C   0  0  0  0  0  0  0  0  0  0  0  0
   -3.1479   -1.6997   40.8257 N   0  0  0  0  0  0  0  0  0  0  0  0
    3.0325   -3.9820   44.1333 C   0  0  0  0  0  0  0  0  0  0  0  0
    2.1134   -4.5127   44.8919 C   0  0  0  0  0  0  0  0  0  0  0  0
    2.2784   -5.6393   45.5988 C   0  0  0  0  0  0  0  0  0  0  0  0
    3.6321   -6.1138   45.7372 C   0  0  0  0  0  0  0  0  0  0  0  0
    4.3585   -4.5705   44.3318 C   0  0  0  0  0  0  0  0  0  0  0  0
    4.5754   -5.5821   45.0450 N   0  0  0  0  0  0  0  0  0  0  0  0
    3.8637   -7.2432   46.4549 N   0  0  0  0  0  0  0  0  0  0  0  0
  6 11  1  0
  1 12  1  0
 12 13  3  0
  8 14  1  0
 17 20  1  0
  1  2  2  0
  2 10  1  0
 10  9  2  0
  4  3  2  0
  3  1  1  0
 14 15  2  0
 15 16  1  0
 16 17  2  0
 17 19  1  0
 19 18  2  0
 18 14  1  0
  4  5  1  0
  5  6  2  0
  6  7  1  0
  7  8  2  0
  8  9  1  0
  9  4  1  0
M  END
$$$$
O14757_PocketFlow_idx-in-all-generaetd-325
     RDKit          3D

 27 30  0  0  0  0  0  0  0  0999 V2000
   -0.6395   -2.0713   41.4947 C   0  0  0  0  0  0  0  0  0  0  0  0
   -0.2671   -3.2464   41.6546 C   0  0  0  0  0  0  0  0  0  0  0  0
    0.2407   -0.9706   41.5952 C   0  0  0  0  0  0  0  0  0  0  0  0
    1.6195   -1.2958   41.8767 C   0  0  0  0  0  0  0  0  0  0  0  0
    1.9162   -2.6816   42.2016 C   0  0  0  0  0  0  0  0  0  0  0  0
    3.2242   -2.9142   42.7890 C   0  0  0  0  0  0  0  0  0  0  0  0
    0.9779   -3.6270   42.0792 C   0  0  0  0  0  0  0  0  0  0  0  0
    3.3722   -2.6594   44.2327 C   0  0  0  0  0  0  0  0  0  0  0  0
    4.2579   -2.9578   44.8277 C   0  0  0  0  0  0  0  0  0  0  0  0
    4.3407   -3.7776   45.9311 C   0  0  0  0  0  0  0  0  0  0  0  0
   -2.0511   -1.7373   41.0640 C   0  0  0  0  0  0  0  0  0  0  0  0
    3.2454   -4.5643   46.2701 C   0  0  0  0  0  0  0  0  0  0  0  0
    2.0388   -4.3248   45.5138 C   0  0  0  0  0  0  0  0  0  0  0  0
    0.8035   -4.9240   45.8658 C   0  0  0  0  0  0  0  0  0  0  0  0
    2.0930   -3.1268   44.7401 N   0  0  0  0  0  0  0  0  0  0  0  0
    0.2535   -5.4595   44.9224 O   0  0  0  0  0  0  0  0  0  0  0  0
   -2.6384   -0.5604   41.2743 N   0  0  0  0  0  0  0  0  0  0  0  0
   -2.7988   -2.6293   40.4846 N   0  0  0  0  0  0  0  0  0  0  0  0
   -3.8760   -0.5934   40.7259 C   0  0  0  0  0  0  0  0  0  0  0  0
   -4.0155   -1.8776   40.1909 C   0  0  0  0  0  0  0  0  0  0  0  0
    5.6613   -2.2035   44.4920 C   0  0  0  0  0  0  0  0  0  0  0  0
    6.7049   -2.2048   45.4744 C   0  0  0  0  0  0  0  0  0  0  0  0
    6.6586   -3.2656   46.4784 C   0  0  0  0  0  0  0  0  0  0  0  0
    5.5179   -3.9481   46.8018 C   0  0  0  0  0  0  0  0  0  0  0  0
    7.9228   -3.3343   47.3108 C   0  0  0  0  0  0  0  0  0  0  0  0
    9.0302   -2.6915   47.1000 C   0  0  0  0  0  0  0  0  0  0  0  0
   10.2222   -2.8763   47.7935 C   0  0  0  0  0  0  0  0  0  0  0  0
  5  6  1  0
  6  8  1  0
  1 11  1  0
 13 14  1  0
 14 16  1  0
 11 17  2  0
 11 18  1  0
 17 19  1  0
 18 20  1  0
 19 20  1  0
 23 25  1  0
 25 26  2  3
 26 27  1  0
  1  2  2  0
  2  7  1  0
  7  5  2  0
  5  4  1  0
  4  3  2  0
  3  1  1  0
 10 24  1  0
 24 23  2  0
 23 22  1  0
 22 21  2  0
 21  9  1  0
  8  9  2  0
  9 10  1  0
 10 12  2  0
 12 13  1  0
 13 15  2  0
 15  8  1  0
M  END
$$$$
O14757_PocketFlow_idx-in-all-generaetd-326
     RDKit          3D

  9 10  0  0  0  0  0  0  0  0999 V2000
    0.0138   -2.7927   42.5918 N   0  0  0  0  0  0  0  0  0  0  0  0
    1.1722   -3.1858   42.8673 C   0  0  0  0  0  0  0  0  0  0  0  0
    2.1754   -2.1627   42.4478 C   0  0  0  0  0  0  0  0  0  0  0  0
    3.4749   -2.1289   42.8416 C   0  0  0  0  0  0  0  0  0  0  0  0
    4.2952   -0.9683   42.7038 C   0  0  0  0  0  0  0  0  0  0  0  0
    3.6693    0.1847   42.2801 C   0  0  0  0  0  0  0  0  0  0  0  0
    2.3228    0.2172   41.9412 C   0  0  0  0  0  0  0  0  0  0  0  0
    1.5661   -0.9163   42.1255 C   0  0  0  0  0  0  0  0  0  0  0  0
    0.1817   -1.4877   41.9307 C   0  0  0  0  0  0  0  0  0  0  0  0
  1  2  1  0
  1  9  2  0
  8  9  1  0
  2  3  1  0
  3  4  2  0
  4  5  1  0
  5  6  2  0
  6  7  1  0
  7  8  2  0
  8  3  1  0
M  END
$$$$
O14757_PocketFlow_idx-in-all-generaetd-327
     RDKit          3D

 13 14  0  0  0  0  0  0  0  0999 V2000
   -0.6395   -2.0713   41.4947 C   0  0  1  0  0  0  0  0  0  0  0  0
    0.1859   -1.1027   41.5970 C   0  0  0  0  0  0  0  0  0  0  0  0
    1.5858   -1.4431   41.9548 C   0  0  0  0  0  0  0  0  0  0  0  0
    2.6622   -0.5501   42.0082 C   0  0  0  0  0  0  0  0  0  0  0  0
    3.8608   -0.8421   42.6622 C   0  0  0  0  0  0  0  0  0  0  0  0
    4.8744    0.0633   42.9841 C   0  0  0  0  0  0  0  0  0  0  0  0
   -2.0296   -1.8460   41.2177 C   0  0  0  0  0  0  0  0  0  0  0  0
   -2.8794   -2.6480   40.4055 C   0  0  0  0  0  0  0  0  0  0  0  0
   -0.1491   -3.3831   41.5833 C   0  0  0  0  0  0  0  0  0  0  0  0
    1.1152   -3.7068   42.0804 C   0  0  0  0  0  0  0  0  0  0  0  0
    1.9872   -2.6576   42.2987 C   0  0  0  0  0  0  0  0  0  0  0  0
    3.7698   -1.9741   43.5018 C   0  0  0  0  0  0  0  0  0  0  0  0
    2.9127   -2.9976   43.2476 C   0  0  0  0  0  0  0  0  0  0  0  0
  1  2  1  0
  2  3  1  0
  5  6  1  0
  1  7  1  6
  7  8  2  0
  1  9  1  0
  9 10  1  0
 10 11  1  0
  3  4  2  0
  4  5  1  0
  5 12  2  0
 12 13  1  0
 13 11  2  0
 11  3  1  0
M  END
$$$$
O14757_PocketFlow_idx-in-all-generaetd-328
     RDKit          3D

 23 25  0  0  0  0  0  0  0  0999 V2000
    0.0138   -2.7927   42.5918 N   0  0  0  0  0  0  0  0  0  0  0  0
    1.1722   -3.1858   42.8673 C   0  0  0  0  0  0  0  0  0  0  0  0
    1.4725   -4.0593   43.8477 C   0  0  0  0  0  0  0  0  0  0  0  0
    0.4760   -4.9535   44.3016 C   0  0  0  0  0  0  0  0  0  0  0  0
    0.7826   -5.6857   45.4896 C   0  0  0  0  0  0  0  0  0  0  0  0
   -0.3030   -6.5244   45.9713 C   0  0  0  0  0  0  0  0  0  0  0  0
    2.1599   -2.7917   42.1746 F   0  0  0  0  0  0  0  0  0  0  0  0
   -0.8257   -7.3894   44.9321 C   0  0  0  0  0  0  0  0  0  0  0  0
   -0.2401   -1.7383   41.6543 C   0  0  0  0  0  0  0  0  0  0  0  0
   -1.6835   -1.4430   41.4035 C   0  0  0  0  0  0  0  0  0  0  0  0
   -2.0990   -8.0409   45.3281 C   0  0  0  0  0  0  0  0  0  0  0  0
   -2.4313   -9.2106   45.2984 C   0  0  0  0  0  0  0  0  0  0  0  0
   -3.5751   -9.6423   45.8244 C   0  0  0  0  0  0  0  0  0  0  0  0
   -4.6173   -8.7048   46.1664 C   0  0  0  0  0  0  0  0  0  0  0  0
   -4.3437   -7.3881   45.9182 C   0  0  0  0  0  0  0  0  0  0  0  0
   -3.0706   -6.9705   45.5749 C   0  0  0  0  0  0  0  0  0  0  0  0
    2.7859   -4.0931   44.4835 C   0  0  0  0  0  0  0  0  0  0  0  0
    3.7189   -3.0528   44.3462 C   0  0  0  0  0  0  0  0  0  0  0  0
    4.8890   -3.0512   45.1067 C   0  0  0  0  0  0  0  0  0  0  0  0
    5.0722   -4.0323   46.0783 C   0  0  0  0  0  0  0  0  0  0  0  0
    4.0912   -5.0263   46.3164 C   0  0  0  0  0  0  0  0  0  0  0  0
    2.9716   -5.0432   45.5477 C   0  0  0  0  0  0  0  0  0  0  0  0
    1.9325   -5.6840   46.0357 C   0  0  0  0  0  0  0  0  0  0  0  0
  1  2  1  0
  2  3  1  0
  5  6  1  0
  2  7  1  0
  6  8  1  0
  1  9  1  0
  9 10  1  0
  8 11  1  0
 17 18  2  0
 18 19  1  0
 19 20  2  0
 20 21  1  0
 21 22  2  0
 11 12  2  0
 12 13  1  0
 13 14  2  0
 14 15  1  0
 15 16  2  0
 16 11  1  0
  3  4  2  0
  4  5  1  0
  5 23  2  0
 23 22  1  0
 22 17  1  0
 17  3  1  0
M  END
$$$$
O14757_PocketFlow_idx-in-all-generaetd-329
     RDKit          3D

 30 33  0  0  0  0  0  0  0  0999 V2000
   -0.6395   -2.0713   41.4947 C   0  0  0  0  0  0  0  0  0  0  0  0
    0.6719   -2.2449   41.7518 C   0  0  0  0  0  0  0  0  0  0  0  0
    1.5951   -1.1948   41.6106 C   0  0  0  0  0  0  0  0  0  0  0  0
    2.8936   -1.2860   42.2441 C   0  0  0  0  0  0  0  0  0  0  0  0
    3.7940   -0.2219   42.2897 C   0  0  0  0  0  0  0  0  0  0  0  0
   -1.5784   -3.1018   41.3985 C   0  0  0  0  0  0  0  0  0  0  0  0
    4.9967   -0.3723   43.0615 C   0  0  0  0  0  0  0  0  0  0  0  0
    5.2351   -1.5276   43.8350 C   0  0  0  0  0  0  0  0  0  0  0  0
    4.2615   -2.5805   43.7466 C   0  0  0  0  0  0  0  0  0  0  0  0
    3.0906   -2.4121   43.0221 C   0  0  0  0  0  0  0  0  0  0  0  0
   -2.7424   -2.7907   40.9080 N   0  0  0  0  0  0  0  0  0  0  0  0
    4.5326   -3.8040   44.5006 C   0  0  0  0  0  0  0  0  0  0  0  0
    3.8526   -4.9598   44.3585 C   0  0  0  0  0  0  0  0  0  0  0  0
    3.0733   -5.5044   45.3777 C   0  0  0  0  0  0  0  0  0  0  0  0
    1.7628   -5.4835   45.2706 C   0  0  0  0  0  0  0  0  0  0  0  0
    0.8719   -6.5815   45.3486 C   0  0  0  0  0  0  0  0  0  0  0  0
   -0.5267   -6.3791   45.0681 C   0  0  0  0  0  0  0  0  0  0  0  0
   -1.2445   -7.5786   45.2343 C   0  0  0  0  0  0  0  0  0  0  0  0
   -2.5679   -7.6196   44.6942 C   0  0  0  0  0  0  0  0  0  0  0  0
   -1.1706   -0.8367   41.3596 N   0  0  0  0  0  0  0  0  0  0  0  0
   -2.4434   -0.5091   41.1280 C   0  0  0  0  0  0  0  0  0  0  0  0
   -3.2476   -1.5247   40.8625 C   0  0  0  0  0  0  0  0  0  0  0  0
   -3.4520   -8.5282   45.1546 C   0  0  0  0  0  0  0  0  0  0  0  0
   -4.8142   -8.5911   44.6152 C   0  0  0  0  0  0  0  0  0  0  0  0
   -5.7726   -9.1567   45.3091 C   0  0  0  0  0  0  0  0  0  0  0  0
   -5.4702   -9.8896   46.5482 C   0  0  0  0  0  0  0  0  0  0  0  0
   -4.1980   -9.8038   47.0615 C   0  0  0  0  0  0  0  0  0  0  0  0
   -3.1719   -9.0651   46.3766 C   0  0  0  0  0  0  0  0  0  0  0  0
   -1.9262   -8.9509   47.0194 C   0  0  0  0  0  0  0  0  0  0  0  0
   -0.9425   -8.0668   46.4931 C   0  0  0  0  0  0  0  0  0  0  0  0
  1  2  1  0
  2  3  1  0
  3  4  1  0
  9 12  1  0
 12 13  2  3
 13 14  1  0
 14 15  1  0
 15 16  2  3
 16 17  1  0
 17 18  1  0
  4  5  2  0
  5  7  1  0
  7  8  2  0
  8  9  1  0
  9 10  2  0
 10  4  1  0
 23 24  2  0
 24 25  1  0
 25 26  2  0
 26 27  1  0
 27 28  2  0
  1  6  2  0
  6 11  1  0
 11 22  2  0
 22 21  1  0
 21 20  2  0
 20  1  1  0
 18 19  2  0
 19 23  1  0
 23 28  1  0
 28 29  1  0
 29 30  2  0
 30 18  1  0
M  END
$$$$
O14757_PocketFlow_idx-in-all-generaetd-330
     RDKit          3D

 35 38  0  0  0  0  0  0  0  0999 V2000
   -0.6395   -2.0713   41.4947 C   0  0  0  0  0  0  0  0  0  0  0  0
    0.1859   -1.1027   41.5970 C   0  0  0  0  0  0  0  0  0  0  0  0
    1.5836   -1.3270   41.4670 C   0  0  0  0  0  0  0  0  0  0  0  0
   -0.2462   -3.3905   41.2409 C   0  0  0  0  0  0  0  0  0  0  0  0
    2.5675   -0.3473   41.7943 C   0  0  0  0  0  0  0  0  0  0  0  0
    3.8546   -0.6776   42.2362 C   0  0  0  0  0  0  0  0  0  0  0  0
    3.9971   -0.8191   43.6382 C   0  0  0  0  0  0  0  0  0  0  0  0
    5.3847   -1.1860   44.1125 C   0  0  0  0  0  0  0  0  0  0  0  0
    1.0981   -3.5875   41.1580 N   0  0  0  0  0  0  0  0  0  0  0  0
    1.9682   -2.5835   41.2843 C   0  0  0  0  0  0  0  0  0  0  0  0
    5.5623   -2.2186   44.9676 C   0  0  1  0  0  0  0  0  0  0  0  0
    4.7935   -3.3318   45.1402 C   0  0  0  0  0  0  0  0  0  0  0  0
    4.0856   -3.8815   44.1629 C   0  0  0  0  0  0  0  0  0  0  0  0
    3.2874   -5.0389   44.3421 C   0  0  0  0  0  0  0  0  0  0  0  0
    3.3996   -5.6203   45.6459 C   0  0  0  0  0  0  0  0  0  0  0  0
    4.1467   -5.0963   46.6384 C   0  0  0  0  0  0  0  0  0  0  0  0
    4.8828   -3.9360   46.4691 C   0  0  0  0  0  0  0  0  0  0  0  0
    6.9231   -2.1645   45.7004 C   0  0  0  0  0  0  0  0  0  0  0  0
    7.4777   -3.2666   46.3352 C   0  0  0  0  0  0  0  0  0  0  0  0
    8.7571   -3.1248   46.9451 C   0  0  0  0  0  0  0  0  0  0  0  0
    9.4202   -1.9303   46.8594 C   0  0  0  0  0  0  0  0  0  0  0  0
    8.8331   -0.8187   46.1733 C   0  0  0  0  0  0  0  0  0  0  0  0
    7.6767   -0.9621   45.6321 C   0  0  0  0  0  0  0  0  0  0  0  0
   -2.0545   -1.8820   41.5356 N   0  0  0  0  0  0  0  0  0  0  0  0
   10.7782   -1.7713   47.4829 C   0  0  0  0  0  0  0  0  0  0  0  0
   11.7430   -2.2529   46.8615 C   0  0  0  0  0  0  0  0  0  0  0  0
   12.8788   -1.6180   46.8755 C   0  0  0  0  0  0  0  0  0  0  0  0
   13.2567   -0.6704   47.9196 C   0  0  0  0  0  0  0  0  0  0  0  0
   12.1418   -0.2338   48.7234 C   0  0  0  0  0  0  0  0  0  0  0  0
   10.8212   -0.6682   48.4436 C   0  0  0  0  0  0  0  0  0  0  0  0
    2.6337   -6.8800   45.7614 C   0  0  0  0  0  0  0  0  0  0  0  0
    3.1964   -7.8832   46.1562 O   0  0  0  0  0  0  0  0  0  0  0  0
    1.3686   -6.8877   45.4021 N   0  0  0  0  0  0  0  0  0  0  0  0
    0.6025   -5.7615   44.9701 C   0  0  0  0  0  0  0  0  0  0  0  0
   -0.7538   -6.1434   44.5035 C   0  0  0  0  0  0  0  0  0  0  0  0
  3  5  1  0
  5  6  1  0
  6  7  2  3
  7  8  1  0
 11  8  1  6
 11 12  1  0
 11 18  1  0
  1 24  1  0
 21 25  1  0
 15 31  1  0
 31 32  2  0
 31 33  1  0
 33 34  1  0
 34 35  1  0
 12 13  2  0
 13 14  1  0
 14 15  2  0
 15 16  1  0
 16 17  2  0
 17 12  1  0
 25 26  2  0
 26 27  1  0
 27 28  2  0
 28 29  1  0
 29 30  2  0
 30 25  1  0
 18 19  2  0
 19 20  1  0
 20 21  2  0
 21 22  1  0
 22 23  2  0
 23 18  1  0
  1  2  2  0
  2  3  1  0
  3 10  2  0
 10  9  1  0
  9  4  2  0
  4  1  1  0
M  END
$$$$
O14757_PocketFlow_idx-in-all-generaetd-331
     RDKit          3D

 10  9  0  0  0  0  0  0  0  0999 V2000
   -0.8794   -1.9236   41.9357 O   0  0  0  0  0  0  0  0  0  0  0  0
    0.3182   -2.2442   41.7074 C   0  0  2  0  0  0  0  0  0  0  0  0
    0.6211   -3.6733   41.8069 C   0  0  0  0  0  0  0  0  0  0  0  0
    1.3468   -1.3327   41.4438 C   0  0  0  0  0  0  0  0  0  0  0  0
    1.8589   -0.5813   42.5261 C   0  0  0  0  0  0  0  0  0  0  0  0
    3.3285   -0.5867   42.6410 C   0  0  0  0  0  0  0  0  0  0  0  0
    4.0504   -1.3567   43.3598 C   0  0  0  0  0  0  0  0  0  0  0  0
    5.3900   -0.9980   43.8484 C   0  0  0  0  0  0  0  0  0  0  0  0
    6.0873   -1.8791   44.7165 C   0  0  0  0  0  0  0  0  0  0  0  0
    5.5142   -3.1028   45.1450 C   0  0  0  0  0  0  0  0  0  0  0  0
  1  2  1  0
  2  3  1  1
  2  4  1  0
  4  5  1  0
  5  6  1  0
  6  7  2  3
  7  8  1  0
  8  9  2  3
  9 10  1  0
M  END
$$$$
O14757_PocketFlow_idx-in-all-generaetd-332
     RDKit          3D

 14 15  0  0  0  0  0  0  0  0999 V2000
   -0.6395   -2.0713   41.4947 C   0  0  0  0  0  0  0  0  0  0  0  0
    0.6719   -2.2449   41.7518 C   0  0  0  0  0  0  0  0  0  0  0  0
    1.1287   -3.3339   42.4778 C   0  0  0  0  0  0  0  0  0  0  0  0
    2.2706   -3.1945   43.3374 C   0  0  0  0  0  0  0  0  0  0  0  0
    3.1816   -2.2032   43.1295 C   0  0  0  0  0  0  0  0  0  0  0  0
    2.8414   -1.0655   42.3777 C   0  0  0  0  0  0  0  0  0  0  0  0
    1.5723   -1.1302   41.7042 C   0  0  0  0  0  0  0  0  0  0  0  0
    4.4456   -2.2161   43.8604 C   0  0  0  0  0  0  0  0  0  0  0  0
    5.3445   -1.1488   43.8409 C   0  0  0  0  0  0  0  0  0  0  0  0
    4.8041   -3.3620   44.6365 C   0  0  0  0  0  0  0  0  0  0  0  0
    6.5618   -1.1997   44.6194 C   0  0  0  0  0  0  0  0  0  0  0  0
    6.0154   -3.3439   45.4682 C   0  0  0  0  0  0  0  0  0  0  0  0
    6.8707   -2.2267   45.3877 C   0  0  0  0  0  0  0  0  0  0  0  0
   -1.3262   -3.0882   41.0559 O   0  0  0  0  0  0  0  0  0  0  0  0
  1  2  1  0
  5  8  1  0
  1 14  2  0
  8  9  2  0
  9 11  1  0
 11 13  2  0
 13 12  1  0
 12 10  2  0
 10  8  1  0
  2  3  2  0
  3  4  1  0
  4  5  2  0
  5  6  1  0
  6  7  2  0
  7  2  1  0
M  END
$$$$
O14757_PocketFlow_idx-in-all-generaetd-333
     RDKit          3D

 26 26  0  0  0  0  0  0  0  0999 V2000
   -0.6395   -2.0713   41.4947 C   0  0  0  0  0  0  0  0  0  0  0  0
    0.6719   -2.2449   41.7518 C   0  0  0  0  0  0  0  0  0  0  0  0
    1.5951   -1.1948   41.6106 C   0  0  0  0  0  0  0  0  0  0  0  0
    2.0398   -0.5922   42.2755 C   0  0  0  0  0  0  0  0  0  0  0  0
    3.1162    0.4490   41.9389 C   0  0  0  0  0  0  0  0  0  0  0  0
   -1.1037   -0.8108   41.3272 C   0  0  0  0  0  0  0  0  0  0  0  0
   -2.5164   -0.6188   41.3134 C   0  0  0  0  0  0  0  0  0  0  0  0
   -3.2071   -1.6571   40.8384 N   0  0  0  0  0  0  0  0  0  0  0  0
   -3.0988    0.5982   41.2834 N   0  0  0  0  0  0  0  0  0  0  0  0
    4.0506    0.6457   42.8660 N   0  0  0  0  0  0  0  0  0  0  0  0
    4.2958   -0.3660   43.7999 C   0  0  0  0  0  0  0  0  0  0  0  0
    4.5860   -1.5443   43.5363 C   0  0  0  0  0  0  0  0  0  0  0  0
    5.0649   -2.4382   44.5532 C   0  0  0  0  0  0  0  0  0  0  0  0
    4.8742   -3.8567   44.5489 C   0  0  0  0  0  0  0  0  0  0  0  0
    3.8959   -4.2891   45.2673 C   0  0  0  0  0  0  0  0  0  0  0  0
    2.9431   -5.2939   44.8638 C   0  0  0  0  0  0  0  0  0  0  0  0
    1.5693   -5.2610   45.1986 C   0  0  0  0  0  0  0  0  0  0  0  0
    0.6227   -6.2135   44.7902 C   0  0  0  0  0  0  0  0  0  0  0  0
   -0.5664   -6.3552   45.4592 C   0  0  0  0  0  0  0  0  0  0  0  0
   -1.4701   -7.3804   44.9323 C   0  0  0  0  0  0  0  0  0  0  0  0
   -2.4757   -7.9272   45.7182 C   0  0  0  0  0  0  0  0  0  0  0  0
   -3.4736   -8.6844   45.1361 C   0  0  0  0  0  0  0  0  0  0  0  0
   -4.3742   -9.4218   45.8575 C   0  0  0  0  0  0  0  0  0  0  0  0
   -4.2866   -9.3283   47.2900 C   0  0  0  0  0  0  0  0  0  0  0  0
   -3.2942   -8.5825   47.8872 C   0  0  0  0  0  0  0  0  0  0  0  0
   -2.3566   -7.8565   47.1309 C   0  0  0  0  0  0  0  0  0  0  0  0
  1  2  1  0
  2  3  2  3
  3  4  1  0
  4  5  1  0
  1  6  2  3
  6  7  1  0
  7  8  1  0
  7  9  2  3
  5 10  1  0
 10 11  2  3
 11 12  1  0
 12 13  1  0
 13 14  2  3
 14 15  1  0
 15 16  1  0
 16 17  2  3
 17 18  1  0
 18 19  2  3
 19 20  1  0
 20 21  1  0
 21 22  2  0
 22 23  1  0
 23 24  2  0
 24 25  1  0
 25 26  2  0
 26 21  1  0
M  END
$$$$
O14757_PocketFlow_idx-in-all-generaetd-334
     RDKit          3D

 35 39  0  0  0  0  0  0  0  0999 V2000
   -0.6395   -2.0713   41.4947 C   0  0  0  0  0  0  0  0  0  0  0  0
    0.1859   -1.1027   41.5970 C   0  0  0  0  0  0  0  0  0  0  0  0
   -0.2410   -3.3795   41.5297 C   0  0  0  0  0  0  0  0  0  0  0  0
    1.6125   -1.3642   41.8466 C   0  0  0  0  0  0  0  0  0  0  0  0
    2.5720   -0.3568   42.0335 C   0  0  0  0  0  0  0  0  0  0  0  0
    3.8647   -0.6704   42.4196 C   0  0  0  0  0  0  0  0  0  0  0  0
    4.8224    0.2982   42.7827 C   0  0  0  0  0  0  0  0  0  0  0  0
    1.0714   -3.7341   41.8674 C   0  0  0  0  0  0  0  0  0  0  0  0
    1.9515   -2.6785   42.0173 C   0  0  0  0  0  0  0  0  0  0  0  0
   -1.9812   -1.8466   41.1860 O   0  0  0  0  0  0  0  0  0  0  0  0
    5.9881   -0.2851   43.4365 C   0  0  0  0  0  0  0  0  0  0  0  0
    5.7896   -1.3585   44.3321 C   0  0  0  0  0  0  0  0  0  0  0  0
    4.7434   -2.2633   44.0973 C   0  0  0  0  0  0  0  0  0  0  0  0
    3.7011   -1.8547   43.2429 C   0  0  0  0  0  0  0  0  0  0  0  0
    3.0139   -2.8543   42.7787 N   0  0  0  0  0  0  0  0  0  0  0  0
    6.9900   -1.6986   45.1819 C   0  0  0  0  0  0  0  0  0  0  0  0
    6.9780   -2.9028   45.9797 C   0  0  0  0  0  0  0  0  0  0  0  0
    8.1186   -3.2220   46.7396 C   0  0  0  0  0  0  0  0  0  0  0  0
    9.1559   -2.2854   46.7891 C   0  0  0  0  0  0  0  0  0  0  0  0
    8.0590   -0.9575   45.3909 N   0  0  0  0  0  0  0  0  0  0  0  0
    9.0812   -1.1112   46.0995 C   0  0  0  0  0  0  0  0  0  0  0  0
   10.3322   -2.5613   47.6899 C   0  0  0  0  0  0  0  0  0  0  0  0
   10.8895   -3.4072   47.7777 O   0  0  0  0  0  0  0  0  0  0  0  0
   10.3465   -1.5248   48.7067 O   0  0  0  0  0  0  0  0  0  0  0  0
   10.6065   -1.9071   50.0254 C   0  0  0  0  0  0  0  0  0  0  0  0
    9.5991   -1.5534   50.8844 C   0  0  0  0  0  0  0  0  0  0  0  0
    9.2564   -2.4005   51.8564 C   0  0  0  0  0  0  0  0  0  0  0  0
   10.1188   -3.4467   52.1970 C   0  0  0  0  0  0  0  0  0  0  0  0
   11.1676   -3.7234   51.3607 C   0  0  0  0  0  0  0  0  0  0  0  0
   11.4090   -2.9685   50.2458 C   0  0  0  0  0  0  0  0  0  0  0  0
   -2.5698   -1.3030   40.3310 C   0  0  0  0  0  0  0  0  0  0  0  0
   -3.8760   -2.0560   40.0791 C   0  0  0  0  0  0  0  0  0  0  0  0
    7.9109   -1.9035   52.8628 Cl  0  0  0  0  0  0  0  0  0  0  0  0
   -4.6207   -1.4391   39.2267 O   0  0  0  0  0  0  0  0  0  0  0  0
   -4.0141   -3.2111   40.4069 O   0  0  0  0  0  0  0  0  0  0  0  0
  4  5  1  0
  5  6  1  0
  1 10  1  0
  9 15  1  0
 14 15  1  0
 12 16  1  0
 19 22  1  0
 22 23  2  0
 22 24  1  0
 24 25  1  0
 10 31  1  0
 31 32  1  0
 27 33  1  0
 32 34  1  0
 32 35  2  0
 25 26  2  0
 26 27  1  0
 27 28  2  0
 28 29  1  0
 29 30  2  0
 30 25  1  0
  1  2  2  0
  2  4  1  0
  4  9  2  0
  9  8  1  0
  8  3  2  0
  3  1  1  0
  6  7  2  0
  7 11  1  0
 11 12  2  0
 12 13  1  0
 13 14  2  0
 14  6  1  0
 16 17  2  0
 17 18  1  0
 18 19  2  0
 19 21  1  0
 21 20  2  0
 20 16  1  0
M  END
$$$$
O14757_PocketFlow_idx-in-all-generaetd-335
     RDKit          3D

 34 35  0  0  0  0  0  0  0  0999 V2000
   -0.8794   -1.9236   41.9357 O   0  0  0  0  0  0  0  0  0  0  0  0
    0.3070   -1.6014   41.6735 C   0  0  0  0  0  0  0  0  0  0  0  0
    1.3011   -2.6668   41.5732 C   0  0  0  0  0  0  0  0  0  0  0  0
    0.8254   -0.3639   41.5399 N   0  0  0  0  0  0  0  0  0  0  0  0
    0.7538   -3.7787   41.2407 F   0  0  0  0  0  0  0  0  0  0  0  0
    1.9607   -2.8648   42.7762 F   0  0  0  0  0  0  0  0  0  0  0  0
    2.1888   -2.3468   40.7040 F   0  0  0  0  0  0  0  0  0  0  0  0
    2.0906    0.0688   41.6510 C   0  0  0  0  0  0  0  0  0  0  0  0
    3.0743   -0.7562   41.8913 N   0  0  0  0  0  0  0  0  0  0  0  0
    4.1877   -0.0406   42.5796 C   0  0  0  0  0  0  0  0  0  0  0  0
    5.2955   -0.8737   42.8889 C   0  0  0  0  0  0  0  0  0  0  0  0
    5.2548   -1.5243   44.2257 C   0  0  0  0  0  0  0  0  0  0  0  0
    6.3376   -2.0453   44.7993 C   0  0  0  0  0  0  0  0  0  0  0  0
    6.2163   -2.8020   45.9645 C   0  0  0  0  0  0  0  0  0  0  0  0
    4.9977   -3.0793   46.4869 C   0  0  0  0  0  0  0  0  0  0  0  0
    3.8564   -2.5676   45.8121 C   0  0  0  0  0  0  0  0  0  0  0  0
    4.0044   -1.8493   44.7318 C   0  0  0  0  0  0  0  0  0  0  0  0
    7.4612   -3.3526   46.6803 C   0  0  2  0  0  0  0  0  0  0  0  0
    7.3519   -3.9704   47.8573 Br  0  0  0  0  0  0  0  0  0  0  0  0
    8.7445   -2.9828   46.0333 C   0  0  0  0  0  0  0  0  0  0  0  0
    9.3749   -1.7952   46.5437 C   0  0  0  0  0  0  0  0  0  0  0  0
    9.2726   -1.3047   47.5538 C   0  0  0  0  0  0  0  0  0  0  0  0
   10.0650   -1.7025   48.7438 C   0  0  0  0  0  0  0  0  0  0  0  0
    9.9174   -1.1013   50.0552 C   0  0  0  0  0  0  0  0  0  0  0  0
   10.5574   -1.5027   51.1772 C   0  0  0  0  0  0  0  0  0  0  0  0
   11.1323   -2.6064   48.7135 C   0  0  0  0  0  0  0  0  0  0  0  0
   11.8367   -3.0030   49.8580 C   0  0  0  0  0  0  0  0  0  0  0  0
   11.5711   -2.4188   51.1031 C   0  0  0  0  0  0  0  0  0  0  0  0
    4.2675    1.2376   42.5226 O   0  0  0  0  0  0  0  0  0  0  0  0
   10.2707   -0.6512   52.3426 C   0  0  0  0  0  0  0  0  0  0  0  0
   10.5688    0.4629   52.4909 O   0  0  0  0  0  0  0  0  0  0  0  0
   10.0290   -1.3772   53.4081 F   0  0  0  0  0  0  0  0  0  0  0  0
   10.3867   -1.2150   45.5359 C   0  0  0  0  0  0  0  0  0  0  0  0
   10.8194   -0.1265   45.9540 O   0  0  0  0  0  0  0  0  0  0  0  0
  1  2  2  0
  2  3  1  0
  2  4  1  0
  3  5  1  0
  3  6  1  0
  3  7  1  0
  4  8  1  0
  8  9  2  3
  9 10  1  0
 10 11  1  0
 11 12  1  0
 14 18  1  0
 18 19  1  1
 18 20  1  0
 20 21  1  0
 21 22  2  3
 22 23  1  0
 10 29  2  0
 25 30  1  0
 30 31  2  0
 30 32  1  0
 21 33  1  0
 33 34  1  0
 12 13  2  0
 13 14  1  0
 14 15  2  0
 15 16  1  0
 16 17  2  0
 17 12  1  0
 23 24  2  0
 24 25  1  0
 25 28  2  0
 28 27  1  0
 27 26  2  0
 26 23  1  0
M  END
$$$$
O14757_PocketFlow_idx-in-all-generaetd-336
     RDKit          3D

 35 37  0  0  0  0  0  0  0  0999 V2000
   -0.6395   -2.0713   41.4947 C   0  0  0  0  0  0  0  0  0  0  0  0
    0.1859   -1.1027   41.5970 C   0  0  0  0  0  0  0  0  0  0  0  0
   -2.0077   -1.8651   41.2044 C   0  0  0  0  0  0  0  0  0  0  0  0
    1.5974   -1.2445   41.7640 C   0  0  0  0  0  0  0  0  0  0  0  0
    1.9873   -2.5402   42.2780 C   0  0  0  0  0  0  0  0  0  0  0  0
    0.9098   -3.5138   42.4627 C   0  0  0  0  0  0  0  0  0  0  0  0
   -0.3287   -3.2489   41.9834 C   0  0  0  0  0  0  0  0  0  0  0  0
   -2.6648   -0.7214   41.3316 N   0  0  0  0  0  0  0  0  0  0  0  0
   -2.8298   -2.8367   40.9036 O   0  0  0  0  0  0  0  0  0  0  0  0
    2.4998   -0.1423   41.8081 C   0  0  0  0  0  0  0  0  0  0  0  0
    3.3532    0.2141   42.7942 N   0  0  0  0  0  0  0  0  0  0  0  0
    3.8069   -0.6685   43.6337 C   0  0  0  0  0  0  0  0  0  0  0  0
    5.1836   -1.1869   43.5167 C   0  0  0  0  0  0  0  0  0  0  0  0
    5.5778   -2.3062   44.3375 C   0  0  0  0  0  0  0  0  0  0  0  0
    4.6416   -3.2398   44.7908 C   0  0  0  0  0  0  0  0  0  0  0  0
    4.9903   -4.2654   45.6183 C   0  0  0  0  0  0  0  0  0  0  0  0
    3.9429   -5.0893   46.1028 C   0  0  0  0  0  0  0  0  0  0  0  0
    3.0834   -5.4788   45.0597 C   0  0  0  0  0  0  0  0  0  0  0  0
    1.8909   -6.1400   45.5217 C   0  0  0  0  0  0  0  0  0  0  0  0
    0.8718   -5.9541   45.5233 C   0  0  0  0  0  0  0  0  0  0  0  0
   -0.3400   -6.6525   45.9318 C   0  0  0  0  0  0  0  0  0  0  0  0
   -0.0302   -7.8838   46.4828 C   0  0  0  0  0  0  0  0  0  0  0  0
   -1.1680   -8.6035   47.0320 C   0  0  0  0  0  0  0  0  0  0  0  0
   -2.4086   -8.3612   46.5601 C   0  0  0  0  0  0  0  0  0  0  0  0
   -2.6338   -7.2416   45.6832 C   0  0  0  0  0  0  0  0  0  0  0  0
   -1.5311   -6.4418   45.3715 C   0  0  0  0  0  0  0  0  0  0  0  0
   -3.5578   -9.1843   46.9431 C   0  0  1  0  0  0  0  0  0  0  0  0
   -4.6235   -8.6963   46.9471 N   0  0  0  0  0  0  0  0  0  0  0  0
   -3.5504  -10.5139   46.2234 C   0  0  0  0  0  0  0  0  0  0  0  0
    2.2625   -7.6760   45.5615 C   0  0  0  0  0  0  0  0  0  0  0  0
    1.2673   -8.4627   46.2986 C   0  0  0  0  0  0  0  0  0  0  0  0
    1.5717   -9.6776   46.6578 O   0  0  0  0  0  0  0  0  0  0  0  0
    2.4142    0.6551   40.7863 O   0  0  0  0  0  0  0  0  0  0  0  0
    2.8978   -9.9794   46.8692 C   0  0  0  0  0  0  0  0  0  0  0  0
    3.0479  -10.7780   48.1738 C   0  0  0  0  0  0  0  0  0  0  0  0
  1  3  1  0
  3  8  1  0
  3  9  2  0
  4 10  1  0
 10 11  1  0
 11 12  1  0
 12 13  1  0
 13 14  1  0
 14 15  2  3
 15 16  1  0
 16 17  1  0
 17 18  1  0
 18 19  1  0
 24 27  1  0
 27 28  1  0
 27 29  1  6
 31 32  1  0
 10 33  2  0
 32 34  1  0
 34 35  1  0
 19 20  2  0
 20 21  1  0
 22 31  1  0
 31 30  2  0
 30 19  1  0
  1  2  2  0
  2  4  1  0
  4  5  2  0
  5  6  1  0
  6  7  2  0
  7  1  1  0
 21 22  2  0
 22 23  1  0
 23 24  2  0
 24 25  1  0
 25 26  2  0
 26 21  1  0
M  END
$$$$
O14757_PocketFlow_idx-in-all-generaetd-337
     RDKit          3D

  7  6  0  0  0  0  0  0  0  0999 V2000
    0.2881   -2.9111   42.4378 C   0  0  2  0  0  0  0  0  0  0  0  0
    1.3023   -2.0648   42.1981 C   0  0  0  0  0  0  0  0  0  0  0  0
    0.9971   -0.8647   41.5341 C   0  0  0  0  0  0  0  0  0  0  0  0
    0.6374   -4.0117   43.1998 F   0  0  0  0  0  0  0  0  0  0  0  0
    2.0715   -0.0741   41.2437 F   0  0  0  0  0  0  0  0  0  0  0  0
   -0.7812   -3.1437   41.6579 C   0  0  0  0  0  0  0  0  0  0  0  0
   -1.0439   -4.2468   41.1027 O   0  0  0  0  0  0  0  0  0  0  0  0
  1  2  1  0
  2  3  1  0
  1  4  1  6
  3  5  1  0
  1  6  1  0
  6  7  2  0
M  END
$$$$
O14757_PocketFlow_idx-in-all-generaetd-338
     RDKit          3D

 11 11  0  0  0  0  0  0  0  0999 V2000
    0.2881   -2.9111   42.4378 C   0  0  0  0  0  0  0  0  0  0  0  0
    1.1784   -3.4293   42.9321 C   0  0  0  0  0  0  0  0  0  0  0  0
    2.4696   -2.7231   42.8997 C   0  0  0  0  0  0  0  0  0  0  0  0
    2.5380   -1.5398   42.2487 C   0  0  0  0  0  0  0  0  0  0  0  0
    0.2254   -1.7181   41.6878 C   0  0  0  0  0  0  0  0  0  0  0  0
    1.4043   -1.0577   41.5785 C   0  0  0  0  0  0  0  0  0  0  0  0
    3.6662   -3.1326   43.6719 C   0  0  0  0  0  0  0  0  0  0  0  0
    4.6321   -2.2547   44.1531 C   0  0  0  0  0  0  0  0  0  0  0  0
    5.6476   -2.6394   44.9548 C   0  0  0  0  0  0  0  0  0  0  0  0
    6.7737   -1.7980   45.2615 C   0  0  0  0  0  0  0  0  0  0  0  0
    6.8127   -0.6529   44.5171 C   0  0  0  0  0  0  0  0  0  0  0  0
  3  7  1  0
  7  8  2  3
  8  9  1  0
  9 10  2  3
 10 11  1  0
  1  2  2  0
  2  3  1  0
  3  4  2  0
  4  6  1  0
  6  5  2  0
  5  1  1  0
M  END
$$$$
O14757_PocketFlow_idx-in-all-generaetd-339
     RDKit          3D

 35 37  0  0  0  0  0  0  0  0999 V2000
    0.0138   -2.7927   42.5918 N   0  0  0  0  0  0  0  0  0  0  0  0
    1.1722   -3.1858   42.8673 C   0  0  0  0  0  0  0  0  0  0  0  0
    2.0106   -2.4736   43.6736 C   0  0  0  0  0  0  0  0  0  0  0  0
    3.4318   -2.6659   43.6053 C   0  0  0  0  0  0  0  0  0  0  0  0
    4.3022   -1.6097   43.5339 C   0  0  0  0  0  0  0  0  0  0  0  0
    5.4542   -1.5751   44.3505 C   0  0  0  0  0  0  0  0  0  0  0  0
    5.7851   -2.7495   45.1598 C   0  0  0  0  0  0  0  0  0  0  0  0
    4.8685   -3.8575   45.0362 C   0  0  0  0  0  0  0  0  0  0  0  0
    3.7290   -3.7587   44.3474 C   0  0  0  0  0  0  0  0  0  0  0  0
   -0.5553   -3.1795   41.3536 C   0  0  0  0  0  0  0  0  0  0  0  0
    7.0949   -2.8081   45.8152 C   0  0  0  0  0  0  0  0  0  0  0  0
    7.4489   -2.7302   46.9106 C   0  0  0  0  0  0  0  0  0  0  0  0
    8.8121   -2.8121   47.4002 C   0  0  0  0  0  0  0  0  0  0  0  0
    9.6784   -2.0684   46.8360 C   0  0  0  0  0  0  0  0  0  0  0  0
    9.2859   -1.3630   45.5916 C   0  0  0  0  0  0  0  0  0  0  0  0
    8.0369   -1.6980   45.0969 C   0  0  0  0  0  0  0  0  0  0  0  0
    3.8775   -0.3852   42.8353 C   0  0  0  0  0  0  0  0  0  0  0  0
    4.7767    0.5288   42.6742 O   0  0  0  0  0  0  0  0  0  0  0  0
    2.7706   -0.2672   42.2662 O   0  0  0  0  0  0  0  0  0  0  0  0
   10.8589   -1.7576   47.3499 F   0  0  0  0  0  0  0  0  0  0  0  0
    2.8226   -4.9232   44.3905 C   0  0  0  0  0  0  0  0  0  0  0  0
    2.3942   -5.2748   45.6767 C   0  0  0  0  0  0  0  0  0  0  0  0
    0.9471   -5.6141   45.6852 C   0  0  0  0  0  0  0  0  0  0  0  0
    0.5145   -6.6841   44.8940 C   0  0  0  0  0  0  0  0  0  0  0  0
   -0.3418   -7.6514   45.6723 C   0  0  0  0  0  0  0  0  0  0  0  0
    0.0808   -8.1957   46.8098 C   0  0  0  0  0  0  0  0  0  0  0  0
   -0.8312   -8.9437   47.6272 C   0  0  0  0  0  0  0  0  0  0  0  0
   -0.4450   -9.4832   48.7627 C   0  0  0  0  0  0  0  0  0  0  0  0
    0.9044   -9.2924   49.2484 C   0  0  0  0  0  0  0  0  0  0  0  0
    1.8612   -8.9661   48.2983 C   0  0  0  0  0  0  0  0  0  0  0  0
    1.4849   -8.3169   47.1805 C   0  0  0  0  0  0  0  0  0  0  0  0
   -2.2635   -8.8602   47.3169 C   0  0  0  0  0  0  0  0  0  0  0  0
   -2.7707   -9.9747   46.6409 C   0  0  0  0  0  0  0  0  0  0  0  0
   -3.8861  -10.0156   46.5621 C   0  0  0  0  0  0  0  0  0  0  0  0
   -4.8479   -8.8492   46.5693 C   0  0  0  0  0  0  0  0  0  0  0  0
  1  2  1  0
  2  3  1  0
  3  4  1  0
  1 10  1  0
  7 11  1  0
  5 17  1  0
 17 18  2  0
 17 19  1  0
 14 20  1  0
  9 21  1  0
 21 22  1  0
 22 23  1  0
 23 24  1  0
 24 25  1  0
 27 32  1  0
 32 33  1  0
 33 34  2  3
 34 35  1  0
 25 26  1  0
 26 27  2  0
 27 28  1  0
 28 29  2  0
 29 30  1  0
 30 31  2  0
 31 26  1  0
 11 12  2  0
 12 13  1  0
 13 14  2  0
 14 15  1  0
 15 16  2  0
 16 11  1  0
  4  5  2  0
  5  6  1  0
  6  7  2  0
  7  8  1  0
  8  9  2  0
  9  4  1  0
M  END
$$$$
O14757_PocketFlow_idx-in-all-generaetd-340
     RDKit          3D

 20 21  0  0  0  0  0  0  0  0999 V2000
   -0.6395   -2.0713   41.4947 C   0  0  0  0  0  0  0  0  0  0  0  0
    0.6719   -2.2449   41.7518 C   0  0  0  0  0  0  0  0  0  0  0  0
    1.5951   -1.1948   41.6106 C   0  0  0  0  0  0  0  0  0  0  0  0
    2.9587   -1.3961   42.0241 C   0  0  0  0  0  0  0  0  0  0  0  0
    3.1652   -2.3460   43.1085 C   0  0  0  0  0  0  0  0  0  0  0  0
    2.6223   -2.8258   43.8074 C   0  0  0  0  0  0  0  0  0  0  0  0
    2.9984   -3.7759   44.8314 C   0  0  0  0  0  0  0  0  0  0  0  0
    4.3847   -3.5541   44.9641 C   0  0  0  0  0  0  0  0  0  0  0  0
    4.6323   -2.5069   43.6698 C   0  0  0  0  0  0  0  0  0  0  0  0
   -1.1141   -0.7691   41.3401 C   0  0  0  0  0  0  0  0  0  0  0  0
   -0.1406    0.1951   41.2787 N   0  0  0  0  0  0  0  0  0  0  0  0
    1.1417    0.0073   41.4722 C   0  0  0  0  0  0  0  0  0  0  0  0
   -2.3683   -0.4337   41.1214 N   0  0  0  0  0  0  0  0  0  0  0  0
    2.3590   -4.7047   45.7052 C   0  0  0  0  0  0  0  0  0  0  0  0
    1.8723   -5.7053   44.9571 F   0  0  0  0  0  0  0  0  0  0  0  0
    3.1276   -5.1360   46.6432 F   0  0  0  0  0  0  0  0  0  0  0  0
    1.2176   -4.1273   46.2254 F   0  0  0  0  0  0  0  0  0  0  0  0
   -3.4542   -1.0000   40.6260 C   0  0  2  0  0  0  0  0  0  0  0  0
   -3.3338   -2.5809   40.1231 Cl  0  0  0  0  0  0  0  0  0  0  0  0
   -4.5737   -0.3245   40.4825 N   0  0  0  0  0  0  0  0  0  0  0  0
  3  4  1  0
  4  5  2  3
  5  6  1  0
  6  7  1  0
  7  8  2  0
  5  9  1  0
  8  9  1  0
 10 13  1  0
  7 14  1  0
 14 15  1  0
 14 16  1  0
 14 17  1  0
 13 18  1  0
 18 19  1  0
 18 20  1  6
  1  2  2  0
  2  3  1  0
  3 12  2  0
 12 11  1  0
 11 10  2  0
 10  1  1  0
M  END
$$$$
O14757_PocketFlow_idx-in-all-generaetd-341
     RDKit          3D

 35 38  0  0  0  0  0  0  0  0999 V2000
   -0.6395   -2.0713   41.4947 C   0  0  0  0  0  0  0  0  0  0  0  0
   -0.2671   -3.2464   41.6546 C   0  0  0  0  0  0  0  0  0  0  0  0
    0.2407   -0.9706   41.5952 C   0  0  0  0  0  0  0  0  0  0  0  0
    1.6195   -1.2958   41.8767 C   0  0  0  0  0  0  0  0  0  0  0  0
    2.6583   -0.3517   42.0703 C   0  0  0  0  0  0  0  0  0  0  0  0
    3.9275   -0.7702   42.5387 C   0  0  0  0  0  0  0  0  0  0  0  0
    3.9444   -2.1081   43.0865 C   0  0  0  0  0  0  0  0  0  0  0  0
    2.8133   -2.9027   43.1780 C   0  0  0  0  0  0  0  0  0  0  0  0
    1.6416   -2.4473   42.6184 C   0  0  0  0  0  0  0  0  0  0  0  0
    0.7194   -3.4978   42.3799 C   0  0  0  0  0  0  0  0  0  0  0  0
    5.0901    0.0414   42.6076 C   0  0  0  0  0  0  0  0  0  0  0  0
   -1.9528   -1.5506   40.8673 C   0  0  0  0  0  0  0  0  0  0  0  0
   -2.5970   -0.4565   41.3602 N   0  0  0  0  0  0  0  0  0  0  0  0
   -2.8242   -2.4903   40.2337 C   0  0  0  0  0  0  0  0  0  0  0  0
   -3.8023   -0.1795   40.8321 C   0  0  0  0  0  0  0  0  0  0  0  0
   -4.0185   -2.2002   39.8554 N   0  0  0  0  0  0  0  0  0  0  0  0
   -4.5000   -1.0511   40.1499 N   0  0  0  0  0  0  0  0  0  0  0  0
    5.4499    0.4863   43.7487 O   0  0  0  0  0  0  0  0  0  0  0  0
    5.6008    0.3750   41.4969 O   0  0  0  0  0  0  0  0  0  0  0  0
   -4.2534    1.0289   41.1503 F   0  0  0  0  0  0  0  0  0  0  0  0
    3.0967   -4.4048   43.9521 Cl  0  0  0  0  0  0  0  0  0  0  0  0
    5.1428   -2.4451   43.6497 O   0  0  0  0  0  0  0  0  0  0  0  0
    5.2191   -2.6538   45.0797 C   0  0  0  0  0  0  0  0  0  0  0  0
    4.4628   -2.4867   45.9485 C   0  0  0  0  0  0  0  0  0  0  0  0
    4.7703   -2.8253   47.3373 C   0  0  0  0  0  0  0  0  0  0  0  0
    5.9740   -3.6156   47.5456 C   0  0  0  0  0  0  0  0  0  0  0  0
    6.8366   -3.8240   46.5358 C   0  0  0  0  0  0  0  0  0  0  0  0
    6.5234   -3.3917   45.3472 C   0  0  0  0  0  0  0  0  0  0  0  0
    6.1829   -4.0449   48.9654 C   0  0  0  0  0  0  0  0  0  0  0  0
    6.9868   -3.5268   49.5817 O   0  0  0  0  0  0  0  0  0  0  0  0
    5.6016   -5.2242   49.2343 O   0  0  0  0  0  0  0  0  0  0  0  0
    8.1095   -4.1621   50.1087 C   0  0  0  0  0  0  0  0  0  0  0  0
    9.3923   -3.7981   49.6003 C   0  0  0  0  0  0  0  0  0  0  0  0
   10.0267   -4.5808   49.0305 C   0  0  0  0  0  0  0  0  0  0  0  0
    9.6647   -5.8299   48.8637 C   0  0  0  0  0  0  0  0  0  0  0  0
  6 11  1  0
  1 12  1  0
 11 18  2  0
 11 19  1  0
 15 20  1  0
  8 21  1  0
  7 22  1  0
 22 23  1  0
 26 29  1  0
 29 30  1  0
 29 31  2  0
 30 32  1  0
 32 33  1  0
 33 34  1  0
 34 35  1  0
  1  2  2  0
  2 10  1  0
 10  9  2  0
  4  3  2  0
  3  1  1  0
 23 24  2  0
 24 25  1  0
 25 26  2  0
 26 27  1  0
 27 28  2  0
 28 23  1  0
 12 13  2  0
 13 15  1  0
 15 17  2  0
 17 16  1  0
 16 14  2  0
 14 12  1  0
  4  5  1  0
  5  6  2  0
  6  7  1  0
  7  8  2  0
  8  9  1  0
  9  4  1  0
M  END
$$$$
O14757_PocketFlow_idx-in-all-generaetd-342
     RDKit          3D

 35 38  0  0  0  0  0  0  0  0999 V2000
   -0.6395   -2.0713   41.4947 C   0  0  0  0  0  0  0  0  0  0  0  0
    0.6719   -2.2449   41.7518 C   0  0  1  0  0  0  0  0  0  0  0  0
    1.1287   -3.3339   42.4778 C   0  0  0  0  0  0  0  0  0  0  0  0
    2.2706   -3.1945   43.3374 C   0  0  0  0  0  0  0  0  0  0  0  0
    2.5794   -4.1545   44.3183 C   0  0  0  0  0  0  0  0  0  0  0  0
    1.6652   -5.1930   44.6059 C   0  0  0  0  0  0  0  0  0  0  0  0
    1.8427   -6.0731   45.6490 C   0  0  0  0  0  0  0  0  0  0  0  0
    0.8939   -7.0676   45.7745 C   0  0  0  0  0  0  0  0  0  0  0  0
   -0.2437   -7.0180   44.9055 C   0  0  0  0  0  0  0  0  0  0  0  0
   -0.3196   -6.2404   43.8228 C   0  0  0  0  0  0  0  0  0  0  0  0
    0.4666   -5.3518   43.7050 C   0  0  0  0  0  0  0  0  0  0  0  0
    0.2008   -4.3545   42.8399 C   0  0  0  0  0  0  0  0  0  0  0  0
    1.6254   -1.3295   41.2000 C   0  0  0  0  0  0  0  0  0  0  0  0
    1.9611   -0.1319   42.0932 C   0  0  0  0  0  0  0  0  0  0  0  0
    3.3209    0.1541   42.4067 C   0  0  0  0  0  0  0  0  0  0  0  0
    4.2747   -0.8162   42.8468 C   0  0  0  0  0  0  0  0  0  0  0  0
    5.4882   -0.3614   43.4752 C   0  0  0  0  0  0  0  0  0  0  0  0
    6.1779   -1.3226   44.1442 C   0  0  0  0  0  0  0  0  0  0  0  0
    7.0945   -1.0618   45.2241 C   0  0  0  0  0  0  0  0  0  0  0  0
    7.5899   -2.1769   45.9241 C   0  0  0  0  0  0  0  0  0  0  0  0
    8.7367   -2.1804   46.7584 C   0  0  0  0  0  0  0  0  0  0  0  0
    9.0514   -3.2725   47.5649 C   0  0  0  0  0  0  0  0  0  0  0  0
    8.0797   -4.3416   47.6164 C   0  0  0  0  0  0  0  0  0  0  0  0
    6.8728   -4.2292   46.9929 C   0  0  0  0  0  0  0  0  0  0  0  0
    6.6067   -3.1907   46.1398 C   0  0  0  0  0  0  0  0  0  0  0  0
   -1.3063   -0.9938   41.7242 O   0  0  0  0  0  0  0  0  0  0  0  0
   -1.4179   -3.1067   41.1288 O   0  0  0  0  0  0  0  0  0  0  0  0
   -1.2278   -8.2114   45.1496 C   0  0  0  0  0  0  0  0  0  0  0  0
   -1.3119   -8.7299   46.3555 N   0  0  0  0  0  0  0  0  0  0  0  0
   -2.1966   -8.2059   47.2558 C   0  0  0  0  0  0  0  0  0  0  0  0
   -2.6778   -7.0424   47.1802 C   0  0  0  0  0  0  0  0  0  0  0  0
   -3.3029   -9.0826   47.7047 C   0  0  0  0  0  0  0  0  0  0  0  0
   -0.1178   -9.2520   46.9662 C   0  0  0  0  0  0  0  0  0  0  0  0
    1.0602   -8.3761   46.7551 C   0  0  0  0  0  0  0  0  0  0  0  0
    3.8807   -4.0329   45.0488 C   0  0  0  0  0  0  0  0  0  0  0  0
  1  2  1  0
  2  3  1  0
  2 13  1  6
 13 14  1  0
 14 15  1  0
 15 16  2  3
 16 17  1  0
 17 18  1  0
 18 19  2  3
 19 20  1  0
  1 26  2  0
  1 27  1  0
  9 28  1  0
 28 29  1  0
 29 30  1  0
 30 31  1  0
 30 32  1  0
 29 33  1  0
  8 34  1  0
  5 35  1  0
 34 33  1  0
  6  7  1  0
  7  8  2  0
  8  9  1  0
  9 10  2  0
 10 11  1  0
  3  4  2  0
  4  5  1  0
  5  6  2  0
  6 11  1  0
 11 12  2  0
 12  3  1  0
 20 21  2  0
 21 22  1  0
 22 23  2  0
 23 24  1  0
 24 25  2  0
 25 20  1  0
M  END
$$$$
O14757_PocketFlow_idx-in-all-generaetd-343
     RDKit          3D

 34 37  0  0  0  0  0  0  0  0999 V2000
   -0.6395   -2.0713   41.4947 C   0  0  0  0  0  0  0  0  0  0  0  0
    0.1859   -1.1027   41.5970 C   0  0  0  0  0  0  0  0  0  0  0  0
    1.5836   -1.3270   41.4670 C   0  0  2  0  0  0  0  0  0  0  0  0
    2.5750   -0.4224   42.0442 C   0  0  0  0  0  0  0  0  0  0  0  0
    3.8156   -0.8009   42.5363 C   0  0  0  0  0  0  0  0  0  0  0  0
    4.7058    0.0387   43.2201 C   0  0  0  0  0  0  0  0  0  0  0  0
   -0.0926   -3.3245   41.7455 C   0  0  0  0  0  0  0  0  0  0  0  0
   -0.3111   -3.8490   42.7377 F   0  0  0  0  0  0  0  0  0  0  0  0
   -0.3528   -4.0745   40.6165 F   0  0  0  0  0  0  0  0  0  0  0  0
    1.3347   -3.2955   41.6140 F   0  0  0  0  0  0  0  0  0  0  0  0
    1.9743   -2.1718   40.4302 O   0  0  0  0  0  0  0  0  0  0  0  0
    2.0359   -2.4105   39.3765 C   0  0  0  0  0  0  0  0  0  0  0  0
    5.7672   -0.5941   43.8899 C   0  0  0  0  0  0  0  0  0  0  0  0
    5.6418   -1.9007   44.4633 C   0  0  0  0  0  0  0  0  0  0  0  0
    4.6154   -2.7470   43.8880 C   0  0  0  0  0  0  0  0  0  0  0  0
    3.6453   -2.1387   43.0825 C   0  0  0  0  0  0  0  0  0  0  0  0
    6.7188   -2.4269   45.2938 C   0  0  0  0  0  0  0  0  0  0  0  0
    7.9130   -1.8793   45.6290 C   0  0  0  0  0  0  0  0  0  0  0  0
    8.8233   -2.3477   46.5501 C   0  0  0  0  0  0  0  0  0  0  0  0
    8.5046   -3.5772   47.1875 C   0  0  0  0  0  0  0  0  0  0  0  0
    7.1795   -4.0865   46.9947 C   0  0  0  0  0  0  0  0  0  0  0  0
    6.3220   -3.5666   46.1029 C   0  0  0  0  0  0  0  0  0  0  0  0
   -1.9384   -1.8951   41.5142 O   0  0  0  0  0  0  0  0  0  0  0  0
   10.1091   -1.6798   46.7006 C   0  0  0  0  0  0  0  0  0  0  0  0
   10.9384   -2.2851   47.4992 N   0  0  0  0  0  0  0  0  0  0  0  0
   10.9462   -2.1761   48.7609 C   0  0  0  0  0  0  0  0  0  0  0  0
   11.6374   -2.9888   49.6181 C   0  0  0  0  0  0  0  0  0  0  0  0
   10.0721   -1.1113   49.4002 C   0  0  0  0  0  0  0  0  0  0  0  0
    9.8838   -1.0319   50.7950 C   0  0  0  0  0  0  0  0  0  0  0  0
   10.6449   -1.8440   51.6325 C   0  0  0  0  0  0  0  0  0  0  0  0
   11.4748   -2.8405   51.0603 C   0  0  0  0  0  0  0  0  0  0  0  0
   11.3781   -3.5853   47.0114 C   0  0  0  0  0  0  0  0  0  0  0  0
   10.9320   -4.6315   47.0016 C   0  0  0  0  0  0  0  0  0  0  0  0
    9.7066   -4.8860   46.9730 C   0  0  0  0  0  0  0  0  0  0  0  0
  1  2  1  0
  3  2  1  6
  3  4  1  0
  4  5  1  0
  1  7  1  0
  7  8  1  0
  7  9  1  0
  7 10  1  0
  3 11  1  0
 11 12  1  0
 14 17  1  0
  1 23  2  0
 19 24  1  0
 24 25  1  0
 25 26  1  0
 25 32  1  0
 32 33  2  0
 20 34  1  0
 33 34  1  0
 17 18  2  0
 18 19  1  0
 19 20  2  0
 20 21  1  0
 21 22  2  0
 22 17  1  0
  5  6  2  0
  6 13  1  0
 13 14  2  0
 14 15  1  0
 15 16  2  0
 16  5  1  0
 26 27  2  0
 27 31  1  0
 31 30  2  0
 30 29  1  0
 29 28  2  0
 28 26  1  0
M  END
$$$$
O14757_PocketFlow_idx-in-all-generaetd-344
     RDKit          3D

 30 32  0  0  0  0  0  0  0  0999 V2000
   -0.6395   -2.0713   41.4947 C   0  0  0  0  0  0  0  0  0  0  0  0
   -0.2671   -3.2464   41.6546 C   0  0  0  0  0  0  0  0  0  0  0  0
    0.2407   -0.9706   41.5952 C   0  0  0  0  0  0  0  0  0  0  0  0
    1.6195   -1.2958   41.8767 C   0  0  0  0  0  0  0  0  0  0  0  0
    1.9162   -2.6816   42.2016 C   0  0  0  0  0  0  0  0  0  0  0  0
    0.9422   -3.6324   42.1156 C   0  0  0  0  0  0  0  0  0  0  0  0
    2.6088   -0.2775   42.1300 C   0  0  0  0  0  0  0  0  0  0  0  0
    3.9059   -0.5876   42.5995 C   0  0  0  0  0  0  0  0  0  0  0  0
    4.8815    0.4059   42.8096 C   0  0  0  0  0  0  0  0  0  0  0  0
   -1.9681   -1.7796   41.0808 N   0  0  0  0  0  0  0  0  0  0  0  0
    6.0456   -0.1044   43.4535 C   0  0  0  0  0  0  0  0  0  0  0  0
    6.0932   -1.3267   44.2266 C   0  0  0  0  0  0  0  0  0  0  0  0
    4.9660   -2.1675   44.0325 C   0  0  0  0  0  0  0  0  0  0  0  0
    5.0222   -3.3995   44.6935 C   0  0  0  0  0  0  0  0  0  0  0  0
    3.9314   -1.7911   43.3643 C   0  0  0  0  0  0  0  0  0  0  0  0
    4.0706   -4.4322   44.4479 C   0  0  0  0  0  0  0  0  0  0  0  0
    3.9771   -5.5508   45.3062 C   0  0  0  0  0  0  0  0  0  0  0  0
    2.9290   -6.4981   45.0264 C   0  0  0  0  0  0  0  0  0  0  0  0
    1.6614   -5.9431   44.6216 C   0  0  0  0  0  0  0  0  0  0  0  0
    0.6074   -5.9116   45.5709 C   0  0  0  0  0  0  0  0  0  0  0  0
    0.1786   -7.1264   46.0867 C   0  0  0  0  0  0  0  0  0  0  0  0
   -1.1447   -7.5286   45.4644 C   0  0  0  0  0  0  0  0  0  0  0  0
   -1.6335   -7.0250   44.3749 C   0  0  0  0  0  0  0  0  0  0  0  0
   -2.7447   -7.7474   43.7627 C   0  0  0  0  0  0  0  0  0  0  0  0
   -3.4867   -8.7045   44.4172 C   0  0  0  0  0  0  0  0  0  0  0  0
   -2.9800   -9.1717   45.6453 C   0  0  0  0  0  0  0  0  0  0  0  0
   -1.7963   -8.6373   46.2018 C   0  0  0  0  0  0  0  0  0  0  0  0
   -4.6609   -9.2332   43.8056 C   0  0  0  0  0  0  0  0  0  0  0  0
   -5.2447   -8.6346   42.7967 N   0  0  0  0  0  0  0  0  0  0  0  0
   -6.3604   -8.5668   42.5254 C   0  0  0  0  0  0  0  0  0  0  0  0
  4  7  1  0
  7  8  1  0
  1 10  1  0
 13 14  1  0
 14 16  2  3
 16 17  1  0
 17 18  1  0
 18 19  1  0
 19 20  1  0
 20 21  1  0
 21 22  1  0
 25 28  1  0
 28 29  1  0
 29 30  1  0
  1  2  2  0
  2  6  1  0
  6  5  2  0
  5  4  1  0
  4  3  2  0
  3  1  1  0
  8  9  2  0
  9 11  1  0
 11 12  2  0
 12 13  1  0
 13 15  2  0
 15  8  1  0
 22 23  2  0
 23 24  1  0
 24 25  2  0
 25 26  1  0
 26 27  2  0
 27 22  1  0
M  END
$$$$
O14757_PocketFlow_idx-in-all-generaetd-345
     RDKit          3D

 35 38  0  0  0  0  0  0  0  0999 V2000
   -0.8794   -1.9236   41.9357 O   0  0  0  0  0  0  0  0  0  0  0  0
    0.3182   -2.2442   41.7074 C   0  0  0  0  0  0  0  0  0  0  0  0
    1.3930   -1.3691   41.5725 C   0  0  0  0  0  0  0  0  0  0  0  0
    2.5842   -1.6677   42.2358 C   0  0  0  0  0  0  0  0  0  0  0  0
    2.7668   -2.8138   43.0798 C   0  0  0  0  0  0  0  0  0  0  0  0
    3.9716   -3.0716   43.7755 C   0  0  0  0  0  0  0  0  0  0  0  0
    4.9620   -2.0337   43.7913 C   0  0  0  0  0  0  0  0  0  0  0  0
    4.7528   -0.8671   43.0215 C   0  0  0  0  0  0  0  0  0  0  0  0
    3.5420   -0.6570   42.3939 C   0  0  0  0  0  0  0  0  0  0  0  0
    3.9719   -4.2345   44.5461 C   0  0  0  0  0  0  0  0  0  0  0  0
    3.0480   -5.2422   44.4931 C   0  0  0  0  0  0  0  0  0  0  0  0
    2.7326   -5.9783   45.4374 C   0  0  0  0  0  0  0  0  0  0  0  0
    3.7816   -6.1365   46.5612 C   0  0  0  0  0  0  0  0  0  0  0  0
    4.7327   -5.1229   46.6189 C   0  0  0  0  0  0  0  0  0  0  0  0
    4.8528   -4.1631   45.7319 C   0  0  0  0  0  0  0  0  0  0  0  0
    0.4775   -3.5538   41.6715 O   0  0  0  0  0  0  0  0  0  0  0  0
    1.8632   -7.1505   45.3652 C   0  0  0  0  0  0  0  0  0  0  0  0
    1.9342   -8.2117   45.8472 O   0  0  0  0  0  0  0  0  0  0  0  0
    0.7051   -6.8875   44.6184 N   0  0  0  0  0  0  0  0  0  0  0  0
   -0.5547   -7.2123   44.9367 C   0  0  0  0  0  0  0  0  0  0  0  0
   -1.4209   -7.8037   44.0056 C   0  0  0  0  0  0  0  0  0  0  0  0
   -2.7794   -8.1543   44.3851 C   0  0  0  0  0  0  0  0  0  0  0  0
   -3.1292   -8.2108   45.7279 C   0  0  0  0  0  0  0  0  0  0  0  0
   -2.1748   -7.7730   46.7110 C   0  0  0  0  0  0  0  0  0  0  0  0
   -0.8953   -7.2363   46.3583 C   0  0  0  0  0  0  0  0  0  0  0  0
   -4.4511   -8.6086   46.1145 C   0  0  0  0  0  0  0  0  0  0  0  0
   -4.6211   -9.0012   47.2666 N   0  0  0  0  0  0  0  0  0  0  0  0
   -5.3855   -8.5862   45.2653 O   0  0  0  0  0  0  0  0  0  0  0  0
    5.6921   -5.2117   47.7880 C   0  0  0  0  0  0  0  0  0  0  0  0
    7.0260   -5.2753   47.6355 C   0  0  0  0  0  0  0  0  0  0  0  0
    7.9482   -5.0764   48.4952 C   0  0  0  0  0  0  0  0  0  0  0  0
    7.6404   -4.8638   49.8198 C   0  0  0  0  0  0  0  0  0  0  0  0
    6.2011   -4.6248   50.0298 C   0  0  0  0  0  0  0  0  0  0  0  0
    5.2996   -4.7966   49.0609 C   0  0  0  0  0  0  0  0  0  0  0  0
    8.5862   -4.6192   50.8945 C   0  0  0  0  0  0  0  0  0  0  0  0
  1  2  2  0
  2  3  1  0
  3  4  1  0
  6 10  1  0
  2 16  1  0
 12 17  1  0
 17 18  2  0
 17 19  1  0
 19 20  1  0
 23 26  1  0
 26 27  1  0
 26 28  2  0
 14 29  1  0
 32 35  1  0
 29 30  2  0
 30 31  1  0
 31 32  2  0
 32 33  1  0
 33 34  2  0
 34 29  1  0
 10 11  2  0
 11 12  1  0
 12 13  2  0
 13 14  1  0
 14 15  2  0
 15 10  1  0
 20 21  2  0
 21 22  1  0
 22 23  2  0
 23 24  1  0
 24 25  2  0
 25 20  1  0
  4  5  2  0
  5  6  1  0
  6  7  2  0
  7  8  1  0
  8  9  2  0
  9  4  1  0
M  END
$$$$
O14757_PocketFlow_idx-in-all-generaetd-346
     RDKit          3D

 35 38  0  0  0  0  0  0  0  0999 V2000
   -0.6395   -2.0713   41.4947 C   0  0  0  0  0  0  0  0  0  0  0  0
    0.1859   -1.1027   41.5970 C   0  0  0  0  0  0  0  0  0  0  0  0
   -2.0077   -1.8651   41.2044 C   0  0  0  0  0  0  0  0  0  0  0  0
    1.5974   -1.2445   41.7640 C   0  0  0  0  0  0  0  0  0  0  0  0
    2.5563   -0.2262   41.8331 C   0  0  0  0  0  0  0  0  0  0  0  0
    3.8717   -0.4554   42.2584 C   0  0  0  0  0  0  0  0  0  0  0  0
    4.1299   -1.6986   42.9429 C   0  0  0  0  0  0  0  0  0  0  0  0
    3.1038   -2.6042   43.1230 C   0  0  0  0  0  0  0  0  0  0  0  0
    1.8553   -2.3256   42.6160 C   0  0  0  0  0  0  0  0  0  0  0  0
    3.4605   -3.7983   43.9324 C   0  0  0  0  0  0  0  0  0  0  0  0
    3.3542   -3.7003   45.3485 C   0  0  2  0  0  0  0  0  0  0  0  0
    4.3015   -2.9946   46.0539 C   0  0  0  0  0  0  0  0  0  0  0  0
    5.0987   -3.7299   47.0496 C   0  0  0  0  0  0  0  0  0  0  0  0
    5.0461   -5.0802   47.0603 C   0  0  1  0  0  0  0  0  0  0  0  0
    5.6758   -5.7263   48.1916 C   0  0  0  0  0  0  0  0  0  0  0  0
    5.3766   -7.0409   48.5168 C   0  0  0  0  0  0  0  0  0  0  0  0
   -2.5905   -1.7240   39.9500 C   0  0  0  0  0  0  0  0  0  0  0  0
    4.8467   -7.8243   47.6053 C   0  0  0  0  0  0  0  0  0  0  0  0
    4.5409   -9.1890   47.9561 C   0  0  0  0  0  0  0  0  0  0  0  0
    3.7497   -9.8696   47.0776 C   0  0  0  0  0  0  0  0  0  0  0  0
   -3.9833   -1.4787   39.8725 C   0  0  0  0  0  0  0  0  0  0  0  0
    2.8694   -9.1470   46.2443 C   0  0  0  0  0  0  0  0  0  0  0  0
    2.9831   -7.8205   46.0281 C   0  0  0  0  0  0  0  0  0  0  0  0
    3.9026   -7.1013   46.8154 C   0  0  0  0  0  0  0  0  0  0  0  0
    4.1569   -5.7915   46.4582 C   0  0  1  0  0  0  0  0  0  0  0  0
    2.7127   -4.7374   45.9522 N   0  0  0  0  0  0  0  0  0  0  0  0
    5.2056    0.7373   42.2455 P   0  0  0  0  0  0  0  0  0  0  0  0
    6.0783    0.2345   41.9604 O   0  0  0  0  0  0  0  0  0  0  0  0
    5.0861    0.7347   43.8752 O   0  0  0  0  0  0  0  0  0  0  0  0
    4.3551    1.7527   41.6728 O   0  0  0  0  0  0  0  0  0  0  0  0
    1.5326   -5.0497   46.0507 C   0  0  1  0  0  0  0  0  0  0  0  0
    0.6320   -4.0823   45.5007 C   0  0  0  0  0  0  0  0  0  0  0  0
    1.1047   -6.2980   45.7796 O   0  0  0  0  0  0  0  0  0  0  0  0
   -0.2995   -6.1647   45.4140 C   0  0  0  0  0  0  0  0  0  0  0  0
   -1.0342   -7.3733   45.7558 C   0  0  0  0  0  0  0  0  0  0  0  0
  1  2  2  3
  1  3  1  0
  2  4  1  0
  8 10  1  0
 11 10  1  6
 11 12  1  0
 14 13  1  1
 14 15  1  0
 15 16  1  0
  3 17  1  0
 16 18  1  0
 17 21  1  0
 14 25  1  0
 24 25  1  0
 11 26  1  0
 25 26  1  1
  6 27  1  0
 27 28  1  0
 27 29  1  0
 27 30  2  0
 26 31  1  0
 31 32  1  6
 31 33  1  0
 33 34  1  0
 34 35  1  0
 12 13  1  0
 18 19  2  0
 19 20  1  0
 20 22  2  0
 22 23  1  0
 23 24  2  0
 24 18  1  0
  4  5  2  0
  5  6  1  0
  6  7  2  0
  7  8  1  0
  8  9  2  0
  9  4  1  0
M  END
$$$$
O14757_PocketFlow_idx-in-all-generaetd-347
     RDKit          3D

 26 27  0  0  0  0  0  0  0  0999 V2000
    0.2881   -2.9111   42.4378 C   0  0  0  0  0  0  0  0  0  0  0  0
    1.1784   -3.4293   42.9321 C   0  0  0  0  0  0  0  0  0  0  0  0
    1.1643   -4.3749   43.9960 C   0  0  0  0  0  0  0  0  0  0  0  0
    1.8790   -4.1402   45.1620 C   0  0  0  0  0  0  0  0  0  0  0  0
    0.4346   -1.8457   41.4375 C   0  0  0  0  0  0  0  0  0  0  0  0
    1.5908   -1.0369   41.5602 C   0  0  0  0  0  0  0  0  0  0  0  0
    2.5663   -1.5011   42.4865 C   0  0  0  0  0  0  0  0  0  0  0  0
    3.7966   -0.7793   42.5894 C   0  0  0  0  0  0  0  0  0  0  0  0
    2.3480   -2.5813   43.2342 C   0  0  0  0  0  0  0  0  0  0  0  0
    4.1327    0.4431   42.0339 C   0  0  0  0  0  0  0  0  0  0  0  0
    4.8264   -1.4874   43.3919 C   0  0  0  0  0  0  0  0  0  0  0  0
    5.9202   -0.6980   43.9446 C   0  0  0  0  0  0  0  0  0  0  0  0
    0.4589   -5.6241   43.8061 C   0  0  0  0  0  0  0  0  0  0  0  0
    0.3702   -6.5839   44.8196 C   0  0  0  0  0  0  0  0  0  0  0  0
    1.7106   -5.2191   46.2883 C   0  0  0  0  0  0  0  0  0  0  0  0
    0.9836   -6.3454   46.0511 C   0  0  0  0  0  0  0  0  0  0  0  0
    6.7863   -1.5237   44.8279 C   0  0  0  0  0  0  0  0  0  0  0  0
    6.2586   -2.1765   45.9306 C   0  0  0  0  0  0  0  0  0  0  0  0
    6.3002   -3.4576   45.7534 C   0  0  0  0  0  0  0  0  0  0  0  0
    5.6905   -4.3225   46.8178 C   0  0  0  0  0  0  0  0  0  0  0  0
    5.8770   -3.8875   48.1353 C   0  0  0  0  0  0  0  0  0  0  0  0
    6.8426   -4.5374   48.9540 C   0  0  0  0  0  0  0  0  0  0  0  0
    7.1188   -3.9010   50.1017 N   0  0  0  0  0  0  0  0  0  0  0  0
    7.5157   -5.4685   48.5978 O   0  0  0  0  0  0  0  0  0  0  0  0
    0.8673   -7.2633   46.9992 O   0  0  0  0  0  0  0  0  0  0  0  0
    0.1203   -8.4625   46.6354 C   0  0  0  0  0  0  0  0  0  0  0  0
  2  3  1  0
  7  8  1  0
  8 10  2  0
  8 11  1  0
 11 12  1  0
 12 17  1  0
 17 18  1  0
 18 19  2  3
 19 20  1  0
 20 21  2  3
 21 22  1  0
 22 23  1  0
 22 24  2  0
 16 25  1  0
 25 26  1  0
  1  2  2  0
  2  9  1  0
  9  7  2  0
  7  6  1  0
  6  5  2  0
  5  1  1  0
  3  4  2  0
  4 15  1  0
 15 16  2  0
 16 14  1  0
 14 13  2  0
 13  3  1  0
M  END
$$$$
O14757_PocketFlow_idx-in-all-generaetd-348
     RDKit          3D

 35 38  0  0  0  0  0  0  0  0999 V2000
   -0.6395   -2.0713   41.4947 C   0  0  0  0  0  0  0  0  0  0  0  0
    0.1859   -1.1027   41.5970 C   0  0  0  0  0  0  0  0  0  0  0  0
    1.5836   -1.3270   41.4669 C   0  0  0  0  0  0  0  0  0  0  0  0
   -0.2462   -3.3905   41.2409 C   0  0  0  0  0  0  0  0  0  0  0  0
    2.5675   -0.3472   41.7943 C   0  0  0  0  0  0  0  0  0  0  0  0
    3.8546   -0.6776   42.2362 C   0  0  0  0  0  0  0  0  0  0  0  0
    4.7501    0.3011   42.7357 C   0  0  0  0  0  0  0  0  0  0  0  0
    1.0806   -3.6013   41.1169 N   0  0  0  0  0  0  0  0  0  0  0  0
    1.9611   -2.5865   41.2296 C   0  0  0  0  0  0  0  0  0  0  0  0
    5.8543   -0.1834   43.3814 N   0  0  0  0  0  0  0  0  0  0  0  0
   -2.0369   -1.8985   41.6179 O   0  0  0  0  0  0  0  0  0  0  0  0
    5.8083   -1.4020   44.0463 C   0  0  0  0  0  0  0  0  0  0  0  0
    4.8668   -2.3000   43.6916 N   0  0  0  0  0  0  0  0  0  0  0  0
    3.8342   -1.9237   42.9316 C   0  0  0  0  0  0  0  0  0  0  0  0
    6.8591   -1.7504   44.8070 N   0  0  0  0  0  0  0  0  0  0  0  0
    6.7917   -2.8946   45.6441 C   0  0  0  0  0  0  0  0  0  0  0  0
    5.7038   -3.5898   46.0579 C   0  0  0  0  0  0  0  0  0  0  0  0
    5.8257   -4.4437   47.1544 C   0  0  0  0  0  0  0  0  0  0  0  0
    6.8097   -4.3393   47.8996 C   0  0  0  0  0  0  0  0  0  0  0  0
    7.9870   -3.6508   47.7018 C   0  0  0  0  0  0  0  0  0  0  0  0
    7.9864   -2.8535   46.5758 C   0  0  0  0  0  0  0  0  0  0  0  0
    9.1329   -2.0530   46.2040 C   0  0  0  0  0  0  0  0  0  0  0  0
   10.4186   -2.4505   46.6679 C   0  0  0  0  0  0  0  0  0  0  0  0
   11.5306   -1.5994   46.3617 C   0  0  0  0  0  0  0  0  0  0  0  0
   12.7772   -2.0849   46.5435 C   0  0  0  0  0  0  0  0  0  0  0  0
   13.0024   -3.3503   47.0109 C   0  0  0  0  0  0  0  0  0  0  0  0
   11.9577   -4.2000   47.2209 C   0  0  0  0  0  0  0  0  0  0  0  0
   10.6607   -3.7675   47.0124 C   0  0  0  0  0  0  0  0  0  0  0  0
    6.8033   -5.2876   49.2253 C   0  0  0  0  0  0  0  0  0  0  0  0
    7.6791   -4.8862   50.3710 Cl  0  0  0  0  0  0  0  0  0  0  0  0
    5.4880   -5.5099   49.5538 F   0  0  0  0  0  0  0  0  0  0  0  0
    7.1831   -6.5462   48.7411 F   0  0  0  0  0  0  0  0  0  0  0  0
   -2.7082   -1.3755   40.5228 C   0  0  0  0  0  0  0  0  0  0  0  0
   13.9619   -1.1439   46.2912 C   0  0  0  0  0  0  0  0  0  0  0  0
   14.3013   -1.0908   45.0920 O   0  0  0  0  0  0  0  0  0  0  0  0
  3  5  1  0
  5  6  1  0
  1 11  1  0
 12 15  1  0
 15 16  1  0
 21 22  1  0
 19 29  1  0
 29 30  1  0
 29 31  1  0
 29 32  1  0
 11 33  1  0
 25 34  1  0
 34 35  1  0
 22 23  1  0
  6  7  2  0
  7 10  1  0
 10 12  2  0
 12 13  1  0
 13 14  2  0
 14  6  1  0
 23 24  2  0
 24 25  1  0
 25 26  2  0
 26 27  1  0
 27 28  2  0
 28 23  1  0
  1  2  2  0
  2  3  1  0
  3  9  2  0
  9  8  1  0
  8  4  2  0
  4  1  1  0
 16 17  2  0
 17 18  1  0
 18 19  2  0
 19 20  1  0
 20 21  2  0
 21 16  1  0
M  END
$$$$
O14757_PocketFlow_idx-in-all-generaetd-349
     RDKit          3D

 16 17  0  0  0  0  0  0  0  0999 V2000
    0.2881   -2.9111   42.4378 C   0  0  0  0  0  0  0  0  0  0  0  0
    1.3023   -2.0648   42.1981 C   0  0  0  0  0  0  0  0  0  0  0  0
    2.5313   -2.2887   42.6989 C   0  0  0  0  0  0  0  0  0  0  0  0
    3.5902   -1.3681   42.6298 C   0  0  0  0  0  0  0  0  0  0  0  0
    4.8471   -1.5684   43.3007 C   0  0  0  0  0  0  0  0  0  0  0  0
    0.5626   -4.0213   43.2438 C   0  0  0  0  0  0  0  0  0  0  0  0
    1.7176   -4.0733   44.0102 C   0  0  0  0  0  0  0  0  0  0  0  0
    2.7608   -3.1756   43.7988 C   0  0  0  0  0  0  0  0  0  0  0  0
    4.9307   -2.5627   44.2472 C   0  0  0  0  0  0  0  0  0  0  0  0
    3.9128   -3.3968   44.5478 C   0  0  0  0  0  0  0  0  0  0  0  0
    4.0014   -4.4799   45.4600 C   0  0  0  0  0  0  0  0  0  0  0  0
    4.8259   -4.2590   46.5989 C   0  0  0  0  0  0  0  0  0  0  0  0
    5.0087   -5.2158   47.6319 C   0  0  0  0  0  0  0  0  0  0  0  0
    1.0799   -0.9305   41.2182 C   0  0  0  0  0  0  0  0  0  0  0  0
    4.8156   -6.5891   47.3142 C   0  0  0  0  0  0  0  0  0  0  0  0
    3.9544   -6.7965   46.1732 C   0  0  0  0  0  0  0  0  0  0  0  0
 10 11  1  0
 11 12  2  3
 12 13  1  0
  2 14  1  0
 13 15  2  3
 15 16  1  0
  1  2  2  0
  2  3  1  0
  8  7  1  0
  7  6  2  0
  6  1  1  0
  3  4  2  0
  4  5  1  0
  5  9  2  0
  9 10  1  0
 10  8  2  0
  8  3  1  0
M  END
$$$$
O14757_PocketFlow_idx-in-all-generaetd-350
     RDKit          3D

 32 36  0  0  0  0  0  0  0  0999 V2000
    0.2881   -2.9111   42.4378 C   0  0  0  0  0  0  0  0  0  0  0  0
    1.1784   -3.4293   42.9321 C   0  0  0  0  0  0  0  0  0  0  0  0
    2.4696   -2.7231   42.8997 C   0  0  0  0  0  0  0  0  0  0  0  0
    3.6320   -3.1839   43.6508 C   0  0  0  0  0  0  0  0  0  0  0  0
    4.7810   -2.3542   43.7528 C   0  0  0  0  0  0  0  0  0  0  0  0
    0.4072   -1.7636   41.5649 C   0  0  0  0  0  0  0  0  0  0  0  0
    4.7773   -1.1151   43.1086 C   0  0  0  0  0  0  0  0  0  0  0  0
    3.5900   -0.7226   42.4795 C   0  0  0  0  0  0  0  0  0  0  0  0
    2.5238   -1.4659   42.3817 C   0  0  0  0  0  0  0  0  0  0  0  0
    1.4858   -0.9995   41.6375 C   0  0  0  0  0  0  0  0  0  0  0  0
    3.6587   -4.4614   44.3620 C   0  0  0  0  0  0  0  0  0  0  0  0
    3.1301   -4.6195   45.6978 C   0  0  1  0  0  0  0  0  0  0  0  0
    3.7576   -3.8628   46.5837 C   0  0  0  0  0  0  0  0  0  0  0  0
    1.8875   -5.2160   45.8693 C   0  0  0  0  0  0  0  0  0  0  0  0
    1.6624   -6.4791   45.4729 C   0  0  0  0  0  0  0  0  0  0  0  0
    0.3613   -7.0153   45.3971 C   0  0  0  0  0  0  0  0  0  0  0  0
   -0.5043   -6.6374   44.3391 C   0  0  0  0  0  0  0  0  0  0  0  0
   -1.7269   -7.3284   44.1421 C   0  0  0  0  0  0  0  0  0  0  0  0
   -2.2154   -8.1648   45.1890 C   0  0  0  0  0  0  0  0  0  0  0  0
   -3.4970   -8.8091   45.0378 C   0  0  0  0  0  0  0  0  0  0  0  0
   -3.8692   -9.8359   45.8720 C   0  0  0  0  0  0  0  0  0  0  0  0
   -0.3270   -7.6920   46.4872 C   0  0  0  0  0  0  0  0  0  0  0  0
   -1.5192   -8.3528   46.3134 C   0  0  0  0  0  0  0  0  0  0  0  0
   -3.0650   -9.8804   47.0881 C   0  0  0  0  0  0  0  0  0  0  0  0
   -1.9459   -9.1953   47.3625 C   0  0  0  0  0  0  0  0  0  0  0  0
   -4.2506   -8.6840   43.7632 C   0  0  0  0  0  0  0  0  0  0  0  0
   -5.4820   -9.2568   43.6003 C   0  0  0  0  0  0  0  0  0  0  0  0
   -6.2200   -8.9174   42.4817 C   0  0  0  0  0  0  0  0  0  0  0  0
   -7.4359   -9.5172   42.2331 C   0  0  0  0  0  0  0  0  0  0  0  0
   -8.0160  -10.3160   43.2365 C   0  0  0  0  0  0  0  0  0  0  0  0
   -7.3648  -10.5334   44.4050 C   0  0  0  0  0  0  0  0  0  0  0  0
   -6.0895   -9.9747   44.6392 C   0  0  0  0  0  0  0  0  0  0  0  0
  4 11  1  0
 11 12  1  0
 12 13  1  6
 12 14  1  0
 14 15  1  0
 20 26  1  0
 15 16  1  0
 26 27  1  0
 19 20  1  0
 20 21  2  0
 21 24  1  0
 24 25  2  0
 25 23  1  0
  3  4  2  0
  4  5  1  0
  5  7  2  0
  7  8  1  0
  8  9  2  0
 27 28  2  0
 28 29  1  0
 29 30  2  0
 30 31  1  0
 31 32  2  0
 32 27  1  0
  1  2  2  0
  2  3  1  0
  3  9  1  0
  9 10  1  0
 10  6  2  0
  6  1  1  0
 16 17  2  0
 17 18  1  0
 18 19  2  0
 19 23  1  0
 23 22  2  0
 22 16  1  0
M  END
$$$$
O14757_PocketFlow_idx-in-all-generaetd-351
     RDKit          3D

  5  4  0  0  0  0  0  0  0  0999 V2000
   -0.8413   -1.9048   41.7918 F   0  0  0  0  0  0  0  0  0  0  0  0
   -0.4300   -2.8526   41.5038 C   0  0  0  0  0  0  0  0  0  0  0  0
    0.2504   -2.8054   40.4746 F   0  0  0  0  0  0  0  0  0  0  0  0
    0.3463   -3.4954   42.5049 F   0  0  0  0  0  0  0  0  0  0  0  0
   -1.4461   -3.7819   41.1543 F   0  0  0  0  0  0  0  0  0  0  0  0
  1  2  1  0
  2  3  1  0
  2  4  1  0
  2  5  1  0
M  END
$$$$
O14757_PocketFlow_idx-in-all-generaetd-352
     RDKit          3D

 35 38  0  0  0  0  0  0  0  0999 V2000
   -0.6395   -2.0713   41.4947 C   0  0  0  0  0  0  0  0  0  0  0  0
    0.1859   -1.1027   41.5970 C   0  0  0  0  0  0  0  0  0  0  0  0
    1.5836   -1.3270   41.4670 C   0  0  0  0  0  0  0  0  0  0  0  0
   -0.2462   -3.3905   41.2409 C   0  0  0  0  0  0  0  0  0  0  0  0
    2.5788   -0.3160   41.7511 C   0  0  0  0  0  0  0  0  0  0  0  0
    3.2643   -0.2450   42.7909 C   0  0  0  0  0  0  0  0  0  0  0  0
    3.9455   -1.4369   43.3064 C   0  0  0  0  0  0  0  0  0  0  0  0
    5.0464   -1.4626   44.1803 C   0  0  0  0  0  0  0  0  0  0  0  0
    5.8691   -0.5048   44.2445 C   0  0  0  0  0  0  0  0  0  0  0  0
    1.1501   -3.6268   41.1796 C   0  0  0  0  0  0  0  0  0  0  0  0
    2.0414   -2.6032   41.3019 C   0  0  0  0  0  0  0  0  0  0  0  0
    5.2159   -2.6365   45.0179 C   0  0  0  0  0  0  0  0  0  0  0  0
    6.3733   -2.7991   45.8075 C   0  0  0  0  0  0  0  0  0  0  0  0
    7.3957   -1.8231   45.7577 C   0  0  0  0  0  0  0  0  0  0  0  0
    7.1594   -0.6521   44.9481 C   0  0  0  0  0  0  0  0  0  0  0  0
    8.6449   -1.9377   46.4599 C   0  0  0  0  0  0  0  0  0  0  0  0
    8.9997   -3.1590   47.0566 C   0  0  0  0  0  0  0  0  0  0  0  0
   10.2113   -3.4340   47.5361 C   0  0  0  0  0  0  0  0  0  0  0  0
   11.1245   -2.3665   47.6476 C   0  0  0  0  0  0  0  0  0  0  0  0
   10.8002   -1.0838   47.1522 C   0  0  0  0  0  0  0  0  0  0  0  0
    9.5616   -0.9049   46.5360 C   0  0  0  0  0  0  0  0  0  0  0  0
    4.2326   -3.6926   44.9777 C   0  0  0  0  0  0  0  0  0  0  0  0
    3.5887   -4.0948   45.8484 C   0  0  0  0  0  0  0  0  0  0  0  0
    2.5359   -5.1151   45.8270 C   0  0  0  0  0  0  0  0  0  0  0  0
    1.3308   -4.5844   45.4508 C   0  0  0  0  0  0  0  0  0  0  0  0
    0.6060   -5.0015   44.8839 C   0  0  0  0  0  0  0  0  0  0  0  0
    0.4090   -6.4073   44.8575 C   0  0  0  0  0  0  0  0  0  0  0  0
    1.5548   -7.1156   45.1885 C   0  0  0  0  0  0  0  0  0  0  0  0
    2.7375   -6.4578   45.6167 C   0  0  0  0  0  0  0  0  0  0  0  0
   -0.6880   -7.1866   44.2715 C   0  0  0  0  0  0  0  0  0  0  0  0
   -1.4367   -7.9769   45.0695 O   0  0  0  0  0  0  0  0  0  0  0  0
   -2.7033   -8.3205   44.7331 C   0  0  0  0  0  0  0  0  0  0  0  0
   -3.2977   -7.8640   43.5941 C   0  0  0  0  0  0  0  0  0  0  0  0
   -3.3549   -9.2582   45.5937 C   0  0  0  0  0  0  0  0  0  0  0  0
   -4.5752   -8.3130   43.2182 C   0  0  0  0  0  0  0  0  0  0  0  0
  3  5  1  0
  5  6  2  3
  6  7  1  0
  7  8  1  0
 14 16  1  0
 12 22  1  0
 22 23  2  3
 23 24  1  0
 27 30  1  0
 30 31  1  0
 31 32  1  0
 32 33  2  3
 32 34  1  0
 33 35  1  0
  1  2  2  0
  2  3  1  0
  3 11  2  0
 11 10  1  0
 10  4  2  0
  4  1  1  0
  8  9  2  0
  9 15  1  0
 15 14  2  0
 14 13  1  0
 13 12  2  0
 12  8  1  0
 24 25  2  0
 25 26  1  0
 26 27  2  0
 27 28  1  0
 28 29  2  0
 29 24  1  0
 16 17  2  0
 17 18  1  0
 18 19  2  0
 19 20  1  0
 20 21  2  0
 21 16  1  0
M  END
$$$$
O14757_PocketFlow_idx-in-all-generaetd-353
     RDKit          3D

  9  9  0  0  0  0  0  0  0  0999 V2000
   -0.6395   -2.0713   41.4947 C   0  0  0  0  0  0  0  0  0  0  0  0
    0.6719   -2.2449   41.7518 C   0  0  0  0  0  0  0  0  0  0  0  0
    1.5951   -1.1948   41.6106 C   0  0  0  0  0  0  0  0  0  0  0  0
    2.8936   -1.2860   42.2441 C   0  0  0  0  0  0  0  0  0  0  0  0
    3.2021   -2.2591   43.1862 C   0  0  0  0  0  0  0  0  0  0  0  0
    4.4403   -2.2689   43.8950 C   0  0  0  0  0  0  0  0  0  0  0  0
    5.3177   -1.2341   43.6399 C   0  0  0  0  0  0  0  0  0  0  0  0
    4.9847   -0.1880   42.7882 C   0  0  0  0  0  0  0  0  0  0  0  0
    3.7703   -0.1520   42.1810 C   0  0  0  0  0  0  0  0  0  0  0  0
  1  2  1  0
  2  3  1  0
  3  4  1  0
  4  5  2  0
  5  6  1  0
  6  7  2  0
  7  8  1  0
  8  9  2  0
  9  4  1  0
M  END
$$$$
O14757_PocketFlow_idx-in-all-generaetd-354
     RDKit          3D

 35 38  0  0  0  0  0  0  0  0999 V2000
    0.2881   -2.9111   42.4378 C   0  0  0  0  0  0  0  0  0  0  0  0
    1.1784   -3.4293   42.9321 C   0  0  0  0  0  0  0  0  0  0  0  0
    1.7344   -3.2949   44.1416 C   0  0  0  0  0  0  0  0  0  0  0  0
   -0.1251   -3.1416   41.0579 C   0  0  0  0  0  0  0  0  0  0  0  0
    2.5921   -4.2799   44.7961 C   0  0  0  0  0  0  0  0  0  0  0  0
    3.9349   -3.9332   44.7128 C   0  0  0  0  0  0  0  0  0  0  0  0
    4.5366   -2.8094   44.2588 C   0  0  0  0  0  0  0  0  0  0  0  0
    5.6269   -2.2437   44.8350 C   0  0  0  0  0  0  0  0  0  0  0  0
    6.0616   -0.9398   44.4048 C   0  0  0  0  0  0  0  0  0  0  0  0
    5.4071   -0.3539   43.3384 C   0  0  0  0  0  0  0  0  0  0  0  0
    4.1730   -0.8533   43.0385 C   0  0  0  0  0  0  0  0  0  0  0  0
    3.7406   -2.0417   43.4015 C   0  0  0  0  0  0  0  0  0  0  0  0
    3.3948   -0.1438   42.0600 N   0  0  0  0  0  0  0  0  0  0  0  0
    2.0421   -5.4856   45.2340 C   0  0  0  0  0  0  0  0  0  0  0  0
    2.6565   -6.6675   44.9665 C   0  0  0  0  0  0  0  0  0  0  0  0
    0.7513   -5.5133   45.8294 C   0  0  0  0  0  0  0  0  0  0  0  0
   -0.1726   -6.0552   45.4639 N   0  0  0  0  0  0  0  0  0  0  0  0
   -0.3279   -7.4263   45.7960 C   0  0  0  0  0  0  0  0  0  0  0  0
   -1.6020   -7.9943   45.2620 C   0  0  0  0  0  0  0  0  0  0  0  0
   -2.1437   -7.5221   44.0915 C   0  0  0  0  0  0  0  0  0  0  0  0
   -3.2845   -8.1915   43.5131 C   0  0  0  0  0  0  0  0  0  0  0  0
   -4.0096   -9.1017   44.2386 C   0  0  0  0  0  0  0  0  0  0  0  0
   -3.5551   -9.4403   45.5450 C   0  0  0  0  0  0  0  0  0  0  0  0
   -2.3578   -8.8911   46.0566 C   0  0  0  0  0  0  0  0  0  0  0  0
   -5.2554   -9.5787   43.7089 C   0  0  0  0  0  0  0  0  0  0  0  0
    6.5158   -2.9695   45.8137 C   0  0  0  0  0  0  0  0  0  0  0  0
    5.9854   -3.4933   46.9698 C   0  0  0  0  0  0  0  0  0  0  0  0
    6.8115   -4.0455   47.9855 C   0  0  0  0  0  0  0  0  0  0  0  0
    8.1644   -3.9393   47.9280 C   0  0  0  0  0  0  0  0  0  0  0  0
    8.7253   -3.3590   46.7284 C   0  0  0  0  0  0  0  0  0  0  0  0
    7.9282   -2.8240   45.7865 C   0  0  0  0  0  0  0  0  0  0  0  0
   -5.9233   -8.8941   42.7202 C   0  0  0  0  0  0  0  0  0  0  0  0
   -5.3313   -7.5950   42.3508 C   0  0  0  0  0  0  0  0  0  0  0  0
   -4.0361   -7.2847   42.6341 C   0  0  0  0  0  0  0  0  0  0  0  0
    2.2311   -0.4017   41.5876 C   0  0  0  0  0  0  0  0  0  0  0  0
  1  2  2  3
  2  3  1  0
  1  4  1  0
  3  5  1  0
  5  6  2  3
  6  7  1  0
 11 13  1  0
  5 14  1  0
 14 15  2  0
 14 16  1  0
 16 17  1  0
 17 18  1  0
 18 19  1  0
  8 26  1  0
 13 35  1  0
 22 25  2  0
 25 32  1  0
 32 33  2  0
 33 34  1  0
 34 21  2  0
 19 20  2  0
 20 21  1  0
 21 22  1  0
 22 23  1  0
 23 24  2  0
 24 19  1  0
  7  8  1  0
  8  9  2  0
  9 10  1  0
 10 11  2  0
 11 12  1  0
 12  7  2  0
 26 27  2  0
 27 28  1  0
 28 29  2  0
 29 30  1  0
 30 31  2  0
 31 26  1  0
M  END
$$$$
O14757_PocketFlow_idx-in-all-generaetd-355
     RDKit          3D

 15 16  0  0  0  0  0  0  0  0999 V2000
    0.2881   -2.9111   42.4378 C   0  0  0  0  0  0  0  0  0  0  0  0
    1.1784   -3.4293   42.9321 C   0  0  0  0  0  0  0  0  0  0  0  0
    2.4507   -2.7243   42.9621 C   0  0  0  0  0  0  0  0  0  0  0  0
    2.5762   -1.5430   42.3314 C   0  0  0  0  0  0  0  0  0  0  0  0
    0.2669   -1.7116   41.6824 C   0  0  0  0  0  0  0  0  0  0  0  0
    1.4692   -1.0385   41.6539 C   0  0  0  0  0  0  0  0  0  0  0  0
    3.6303   -3.2035   43.7474 C   0  0  0  0  0  0  0  0  0  0  0  0
    3.7092   -4.5100   44.3125 C   0  0  0  0  0  0  0  0  0  0  0  0
    4.6548   -2.2514   44.0757 C   0  0  0  0  0  0  0  0  0  0  0  0
    5.6684   -2.6358   44.9524 C   0  0  0  0  0  0  0  0  0  0  0  0
    6.7451   -1.7303   45.2296 C   0  0  0  0  0  0  0  0  0  0  0  0
    6.6243   -0.6418   44.4835 N   0  0  0  0  0  0  0  0  0  0  0  0
    4.9009   -0.9683   43.5460 C   0  0  0  0  0  0  0  0  0  0  0  0
    5.9325   -0.1750   43.7658 C   0  0  0  0  0  0  0  0  0  0  0  0
    7.8974   -1.8462   45.9881 N   0  0  0  0  0  0  0  0  0  0  0  0
  3  7  1  0
  7  8  2  0
  7  9  1  0
 11 15  1  0
  1  2  2  0
  2  3  1  0
  3  4  2  0
  4  6  1  0
  6  5  2  0
  5  1  1  0
  9 10  2  0
 10 11  1  0
 11 12  2  0
 12 14  1  0
 14 13  2  0
 13  9  1  0
M  END
$$$$
O14757_PocketFlow_idx-in-all-generaetd-356
     RDKit          3D

 26 30  0  0  0  0  0  0  0  0999 V2000
   -0.6395   -2.0713   41.4947 C   0  0  0  0  0  0  0  0  0  0  0  0
    0.1859   -1.1027   41.5970 C   0  0  0  0  0  0  0  0  0  0  0  0
    1.5858   -1.4431   41.9548 C   0  0  0  0  0  0  0  0  0  0  0  0
   -0.3290   -3.4217   41.4987 C   0  0  0  0  0  0  0  0  0  0  0  0
    1.8733   -2.7956   42.1741 C   0  0  0  0  0  0  0  0  0  0  0  0
    0.8724   -3.7449   42.0341 C   0  0  0  0  0  0  0  0  0  0  0  0
    2.6003   -0.4579   42.2422 C   0  0  2  0  0  0  0  0  0  0  0  0
    2.5531    0.8861   41.8483 C   0  0  0  0  0  0  0  0  0  0  0  0
    3.8018   -0.9468   42.9322 C   0  0  0  0  0  0  0  0  0  0  0  0
    4.9191   -0.1122   43.1147 C   0  0  0  0  0  0  0  0  0  0  0  0
    5.9631   -0.6921   43.8866 C   0  0  0  0  0  0  0  0  0  0  0  0
    5.8424   -2.0072   44.4952 C   0  0  0  0  0  0  0  0  0  0  0  0
    4.6884   -2.7430   44.2601 C   0  0  0  0  0  0  0  0  0  0  0  0
    3.7064   -2.2131   43.4983 C   0  0  0  0  0  0  0  0  0  0  0  0
    2.6942   -3.0085   43.0453 N   0  0  0  0  0  0  0  0  0  0  0  0
    6.9685   -2.3779   45.3774 C   0  0  0  0  0  0  0  0  0  0  0  0
    6.8095   -3.6145   46.1534 C   0  0  0  0  0  0  0  0  0  0  0  0
    7.8214   -3.8699   47.0756 C   0  0  0  0  0  0  0  0  0  0  0  0
    8.9581   -3.0725   47.2171 C   0  0  0  0  0  0  0  0  0  0  0  0
    8.0595   -1.5925   45.7175 C   0  0  0  0  0  0  0  0  0  0  0  0
    9.0287   -1.8840   46.5462 C   0  0  0  0  0  0  0  0  0  0  0  0
   -2.0459   -1.6696   40.9793 C   0  0  0  0  0  0  0  0  0  0  0  0
   -2.5878   -0.5001   41.3274 N   0  0  0  0  0  0  0  0  0  0  0  0
   -2.8280   -2.5270   40.3976 N   0  0  0  0  0  0  0  0  0  0  0  0
   -3.8380   -0.4580   40.7610 C   0  0  0  0  0  0  0  0  0  0  0  0
   -3.9780   -1.6887   40.2248 N   0  0  0  0  0  0  0  0  0  0  0  0
  3  7  1  0
  7  8  1  6
  7  9  1  0
  5 15  1  0
 14 15  1  0
 12 16  1  0
  1 22  1  0
 22 23  1  0
 22 24  2  0
 23 25  1  0
 24 26  1  0
 25 26  1  0
  9 10  2  0
 10 11  1  0
 11 12  2  0
 12 13  1  0
 13 14  2  0
 14  9  1  0
  1  2  2  0
  2  3  1  0
  3  5  2  0
  5  6  1  0
  6  4  2  0
  4  1  1  0
 16 17  2  0
 17 18  1  0
 18 19  2  0
 19 21  1  0
 21 20  2  0
 20 16  1  0
M  END
$$$$
O14757_PocketFlow_idx-in-all-generaetd-357
     RDKit          3D

 11 11  0  0  0  0  0  0  0  0999 V2000
   -0.6395   -2.0713   41.4947 C   0  0  0  0  0  0  0  0  0  0  0  0
   -0.2671   -3.2464   41.6546 C   0  0  0  0  0  0  0  0  0  0  0  0
    0.2407   -0.9706   41.5952 C   0  0  0  0  0  0  0  0  0  0  0  0
    1.6195   -1.2958   41.8767 C   0  0  0  0  0  0  0  0  0  0  0  0
    1.9162   -2.6816   42.2016 C   0  0  0  0  0  0  0  0  0  0  0  0
    0.9422   -3.6324   42.1156 C   0  0  0  0  0  0  0  0  0  0  0  0
    2.6136   -0.2815   42.1191 C   0  0  0  0  0  0  0  0  0  0  0  0
    3.9096   -0.5773   42.5950 C   0  0  0  0  0  0  0  0  0  0  0  0
    4.1759   -1.7281   43.3706 C   0  0  0  0  0  0  0  0  0  0  0  0
    5.2421   -2.0301   44.1324 C   0  0  0  0  0  0  0  0  0  0  0  0
    6.1647   -0.9813   44.4755 C   0  0  0  0  0  0  0  0  0  0  0  0
  4  7  1  0
  7  8  1  0
  8  9  2  3
  9 10  1  0
 10 11  2  0
  1  2  2  0
  2  6  1  0
  6  5  2  0
  5  4  1  0
  4  3  2  0
  3  1  1  0
M  END
$$$$
O14757_PocketFlow_idx-in-all-generaetd-358
     RDKit          3D

 17 17  0  0  0  0  0  0  0  0999 V2000
    0.2881   -2.9111   42.4378 C   0  0  0  0  0  0  0  0  0  0  0  0
    1.3023   -2.0648   42.1981 C   0  0  1  0  0  0  0  0  0  0  0  0
    0.9971   -0.8647   41.5341 C   0  0  0  0  0  0  0  0  0  0  0  0
    0.5849   -4.1590   42.9859 N   0  0  0  0  0  0  0  0  0  0  0  0
    2.0357   -0.0150   41.3972 N   0  0  0  0  0  0  0  0  0  0  0  0
    1.6480   -4.1709   43.8256 C   0  0  2  0  0  0  0  0  0  0  0  0
    2.6634   -3.2762   43.8075 C   0  0  1  0  0  0  0  0  0  0  0  0
    2.4727   -2.0928   43.0130 C   0  0  0  0  0  0  0  0  0  0  0  0
    3.8443   -3.4669   44.6198 C   0  0  0  0  0  0  0  0  0  0  0  0
    4.9134   -2.6011   44.5218 C   0  0  0  0  0  0  0  0  0  0  0  0
    6.0615   -2.7982   45.3397 C   0  0  0  0  0  0  0  0  0  0  0  0
    7.2403   -1.9733   45.2822 C   0  0  0  0  0  0  0  0  0  0  0  0
    8.3413   -2.2829   46.1167 C   0  0  0  0  0  0  0  0  0  0  0  0
    9.4877   -1.5017   46.2174 C   0  0  0  0  0  0  0  0  0  0  0  0
   -0.7426   -2.9230   41.5934 O   0  0  0  0  0  0  0  0  0  0  0  0
    8.4959   -3.7154   46.5510 C   0  0  0  0  0  0  0  0  0  0  0  0
    1.8071   -5.3946   44.6767 C   0  0  0  0  0  0  0  0  0  0  0  0
  1  2  1  0
  2  3  1  1
  1  4  1  0
  3  5  1  0
  4  6  1  0
  2  8  1  0
  7  8  1  1
  7  9  1  0
  9 10  2  3
 10 11  1  0
 11 12  2  3
 12 13  1  0
 13 14  1  0
  1 15  2  0
 13 16  1  0
  6 17  1  6
  7  6  1  0
M  END
$$$$
O14757_PocketFlow_idx-in-all-generaetd-359
     RDKit          3D

 15 17  0  0  0  0  0  0  0  0999 V2000
    0.0138   -2.7927   42.5918 N   0  0  0  0  0  0  0  0  0  0  0  0
   -0.1707   -2.5494   41.4965 C   0  0  0  0  0  0  0  0  0  0  0  0
    1.2890   -2.6566   43.0641 C   0  0  0  0  0  0  0  0  0  0  0  0
    1.9987   -1.7107   42.2992 C   0  0  1  0  0  0  0  0  0  0  0  0
    1.1252   -1.3449   41.2056 C   0  0  0  0  0  0  0  0  0  0  0  0
    3.1957   -1.1211   42.6061 C   0  0  0  0  0  0  0  0  0  0  0  0
    4.1229   -1.7268   43.5205 C   0  0  0  0  0  0  0  0  0  0  0  0
    5.2994   -1.1025   43.9245 C   0  0  0  0  0  0  0  0  0  0  0  0
    5.6302    0.1383   43.3315 C   0  0  0  0  0  0  0  0  0  0  0  0
    3.6594    0.1632   42.1769 C   0  0  0  0  0  0  0  0  0  0  0  0
    4.8132    0.7321   42.5622 N   0  0  0  0  0  0  0  0  0  0  0  0
    6.2207   -1.8216   44.8408 C   0  0  0  0  0  0  0  0  0  0  0  0
    5.8677   -3.0047   45.5008 C   0  0  0  0  0  0  0  0  0  0  0  0
    4.7407   -3.7087   45.3192 C   0  0  0  0  0  0  0  0  0  0  0  0
    3.8296   -3.0323   44.2338 C   0  0  0  0  0  0  0  0  0  0  0  0
  1  2  1  0
  1  3  1  0
  3  4  1  0
  2  5  1  0
  4  5  1  0
  4  6  1  1
  8 12  1  0
 12 13  2  0
 13 14  1  0
 14 15  2  0
 15  7  1  0
  6  7  2  0
  7  8  1  0
  8  9  2  0
  9 11  1  0
 11 10  2  0
 10  6  1  0
M  END
$$$$
O14757_PocketFlow_idx-in-all-generaetd-360
     RDKit          3D

 13 14  0  0  0  0  0  0  0  0999 V2000
   -0.6395   -2.0713   41.4947 C   0  0  0  0  0  0  0  0  0  0  0  0
    0.1859   -1.1027   41.5970 C   0  0  0  0  0  0  0  0  0  0  0  0
    1.5858   -1.4430   41.9548 C   0  0  0  0  0  0  0  0  0  0  0  0
    2.6622   -0.5501   42.0082 C   0  0  0  0  0  0  0  0  0  0  0  0
    3.8608   -0.8421   42.6622 C   0  0  0  0  0  0  0  0  0  0  0  0
    4.8744    0.0633   42.9841 C   0  0  0  0  0  0  0  0  0  0  0  0
   -0.0734   -3.2730   41.3446 C   0  0  0  0  0  0  0  0  0  0  0  0
    1.1584   -3.7218   41.6987 C   0  0  0  0  0  0  0  0  0  0  0  0
    2.0016   -2.7356   41.9102 C   0  0  0  0  0  0  0  0  0  0  0  0
    5.9633   -0.4784   43.6990 C   0  0  0  0  0  0  0  0  0  0  0  0
    5.7713   -1.5719   44.5266 C   0  0  0  0  0  0  0  0  0  0  0  0
    4.7479   -2.4735   44.2511 C   0  0  0  0  0  0  0  0  0  0  0  0
    3.7771   -2.0566   43.4373 C   0  0  0  0  0  0  0  0  0  0  0  0
  3  4  1  0
  4  5  1  0
  1  2  2  0
  2  3  1  0
  3  9  2  0
  9  8  1  0
  8  7  2  0
  7  1  1  0
  5  6  2  0
  6 10  1  0
 10 11  2  0
 11 12  1  0
 12 13  2  0
 13  5  1  0
M  END
$$$$
O14757_PocketFlow_idx-in-all-generaetd-361
     RDKit          3D

  7  7  0  0  0  0  0  0  0  0999 V2000
   -0.6395   -2.0713   41.4947 C   0  0  0  0  0  0  0  0  0  0  0  0
    0.6719   -2.2449   41.7518 C   0  0  0  0  0  0  0  0  0  0  0  0
    1.5951   -1.1948   41.6106 C   0  0  0  0  0  0  0  0  0  0  0  0
    2.8936   -1.2860   42.2441 C   0  0  0  0  0  0  0  0  0  0  0  0
    3.2021   -2.2591   43.1862 C   0  0  0  0  0  0  0  0  0  0  0  0
    2.2602   -3.3290   43.4161 C   0  0  0  0  0  0  0  0  0  0  0  0
    0.9345   -3.1830   42.7957 C   0  0  0  0  0  0  0  0  0  0  0  0
  1  2  1  0
  2  3  2  0
  3  4  1  0
  4  5  2  0
  5  6  1  0
  6  7  2  0
  7  2  1  0
M  END
$$$$
O14757_PocketFlow_idx-in-all-generaetd-362
     RDKit          3D

 35 38  0  0  0  0  0  0  0  0999 V2000
   -0.6395   -2.0713   41.4947 C   0  0  0  0  0  0  0  0  0  0  0  0
    0.1859   -1.1027   41.5970 C   0  0  0  0  0  0  0  0  0  0  0  0
    1.5836   -1.3270   41.4670 C   0  0  0  0  0  0  0  0  0  0  0  0
   -0.2462   -3.3905   41.2409 C   0  0  0  0  0  0  0  0  0  0  0  0
    2.5675   -0.3472   41.7943 C   0  0  0  0  0  0  0  0  0  0  0  0
    3.8546   -0.6776   42.2362 C   0  0  0  0  0  0  0  0  0  0  0  0
    4.7317    0.3221   42.6999 C   0  0  0  0  0  0  0  0  0  0  0  0
    1.0887   -3.6005   41.1320 N   0  0  0  0  0  0  0  0  0  0  0  0
    1.9631   -2.5815   41.2440 C   0  0  0  0  0  0  0  0  0  0  0  0
   -2.0382   -1.8996   41.6074 O   0  0  0  0  0  0  0  0  0  0  0  0
    5.8986   -0.2107   43.3961 C   0  0  0  0  0  0  0  0  0  0  0  0
    5.8009   -1.3627   44.2513 C   0  0  0  0  0  0  0  0  0  0  0  0
    4.7775   -2.3048   43.8967 C   0  0  0  0  0  0  0  0  0  0  0  0
    3.7193   -1.9014   43.0451 C   0  0  0  0  0  0  0  0  0  0  0  0
    4.5048   -3.5593   44.5476 C   0  0  0  0  0  0  0  0  0  0  0  0
    3.5281   -4.4351   44.2087 C   0  0  0  0  0  0  0  0  0  0  0  0
    3.3913   -5.6401   44.8577 C   0  0  0  0  0  0  0  0  0  0  0  0
    4.0660   -5.8481   46.0655 C   0  0  0  0  0  0  0  0  0  0  0  0
    5.0108   -4.9386   46.5244 C   0  0  0  0  0  0  0  0  0  0  0  0
    5.2746   -3.7670   45.8210 C   0  0  0  0  0  0  0  0  0  0  0  0
    5.8045   -5.2615   47.7316 C   0  0  2  0  0  0  0  0  0  0  0  0
    5.5548   -6.2059   48.4973 O   0  0  0  0  0  0  0  0  0  0  0  0
    6.3075   -4.0446   48.4854 N   0  0  0  0  0  0  0  0  0  0  0  0
    6.9307   -4.1895   49.7607 C   0  0  0  0  0  0  0  0  0  0  0  0
    7.7590   -3.0440   50.0631 C   0  0  0  0  0  0  0  0  0  0  0  0
    9.1390   -3.3823   50.3520 C   0  0  0  0  0  0  0  0  0  0  0  0
    9.8772   -2.3615   50.5995 C   0  0  0  0  0  0  0  0  0  0  0  0
    9.4938   -1.5135   51.7145 C   0  0  0  0  0  0  0  0  0  0  0  0
    8.1081   -1.6389   52.0943 C   0  0  0  0  0  0  0  0  0  0  0  0
    7.2460   -2.4943   51.3049 C   0  0  0  0  0  0  0  0  0  0  0  0
   10.2883   -0.4232   52.3009 C   0  0  0  0  0  0  0  0  0  0  0  0
   10.5070    0.6086   51.5979 O   0  0  0  0  0  0  0  0  0  0  0  0
   11.1257    1.7435   52.1672 C   0  0  0  0  0  0  0  0  0  0  0  0
   11.3632    2.8455   51.2169 C   0  0  0  0  0  0  0  0  0  0  0  0
   11.4235    2.4238   50.0920 F   0  0  0  0  0  0  0  0  0  0  0  0
  3  5  1  0
  1 10  1  0
 13 15  1  0
 19 21  1  0
 21 22  1  1
 21 23  1  0
 23 24  1  0
 24 25  1  0
 28 31  1  0
 31 32  1  0
 32 33  1  0
 33 34  1  0
 34 35  1  0
  5  6  1  0
 15 16  2  0
 16 17  1  0
 17 18  2  0
 18 19  1  0
 19 20  2  0
 20 15  1  0
 25 26  2  0
 26 27  1  0
 27 28  2  0
 28 29  1  0
 29 30  2  0
 30 25  1  0
  6  7  2  0
  7 11  1  0
 11 12  2  0
 12 13  1  0
 13 14  2  0
 14  6  1  0
  1  2  2  0
  2  3  1  0
  3  9  2  0
  9  8  1  0
  8  4  2  0
  4  1  1  0
M  END
$$$$
O14757_PocketFlow_idx-in-all-generaetd-363
     RDKit          3D

 30 32  0  0  0  0  0  0  0  0999 V2000
   -0.6395   -2.0713   41.4947 C   0  0  0  0  0  0  0  0  0  0  0  0
    0.6719   -2.2449   41.7518 C   0  0  0  0  0  0  0  0  0  0  0  0
    1.1287   -3.3339   42.4778 C   0  0  0  0  0  0  0  0  0  0  0  0
    2.2706   -3.1945   43.3374 C   0  0  0  0  0  0  0  0  0  0  0  0
    2.5794   -4.1545   44.3183 C   0  0  0  0  0  0  0  0  0  0  0  0
    3.8011   -3.9870   45.0471 C   0  0  0  0  0  0  0  0  0  0  0  0
    4.6109   -2.8615   44.7567 C   0  0  0  0  0  0  0  0  0  0  0  0
    4.2507   -1.9849   43.7095 C   0  0  0  0  0  0  0  0  0  0  0  0
    5.0893   -0.8689   43.4439 C   0  0  0  0  0  0  0  0  0  0  0  0
    3.1174   -2.1763   43.0814 C   0  0  0  0  0  0  0  0  0  0  0  0
    6.1528   -0.6327   44.1272 O   0  0  0  0  0  0  0  0  0  0  0  0
    4.8279    0.0818   42.4975 O   0  0  0  0  0  0  0  0  0  0  0  0
   -1.2778   -1.1089   41.8495 C   0  0  0  0  0  0  0  0  0  0  0  0
   -2.5859   -1.0707   41.4658 F   0  0  0  0  0  0  0  0  0  0  0  0
    1.6601   -5.1897   44.6884 C   0  0  0  0  0  0  0  0  0  0  0  0
    0.3623   -5.2641   44.2894 C   0  0  0  0  0  0  0  0  0  0  0  0
    0.0562   -4.2818   43.0968 C   0  0  0  0  0  0  0  0  0  0  0  0
    4.2123   -4.8605   46.1525 C   0  0  0  0  0  0  0  0  0  0  0  0
    4.1373   -6.1135   45.9524 O   0  0  0  0  0  0  0  0  0  0  0  0
    4.4428   -4.3628   47.4073 O   0  0  0  0  0  0  0  0  0  0  0  0
    5.6643   -4.8716   47.9609 C   0  0  0  0  0  0  0  0  0  0  0  0
    6.2598   -3.8956   48.7696 C   0  0  0  0  0  0  0  0  0  0  0  0
    7.6762   -4.0870   48.9764 C   0  0  0  0  0  0  0  0  0  0  0  0
    8.3545   -3.0555   49.7328 C   0  0  0  0  0  0  0  0  0  0  0  0
    7.8594   -2.7318   51.0039 C   0  0  0  0  0  0  0  0  0  0  0  0
    8.4608   -1.6357   51.7131 C   0  0  0  0  0  0  0  0  0  0  0  0
    9.6483   -1.0885   51.2629 C   0  0  0  0  0  0  0  0  0  0  0  0
   10.2178   -1.4554   50.0323 C   0  0  0  0  0  0  0  0  0  0  0  0
    9.5362   -2.4560   49.2909 C   0  0  0  0  0  0  0  0  0  0  0  0
    8.3481   -4.0956   47.5362 C   0  0  0  0  0  0  0  0  0  0  0  0
  1  2  1  0
  2  3  1  0
  8  9  1  0
  9 11  2  0
  9 12  1  0
  1 13  2  3
 13 14  1  0
  6 18  1  0
 18 19  2  0
 18 20  1  0
 20 21  1  0
 21 22  1  0
 22 23  2  3
 23 24  1  0
 23 30  1  0
  5  6  1  0
  6  7  2  0
  7  8  1  0
  8 10  2  0
 10  4  1  0
 24 25  2  0
 25 26  1  0
 26 27  2  0
 27 28  1  0
 28 29  2  0
 29 24  1  0
  3  4  2  0
  4  5  1  0
  5 15  2  0
 15 16  1  0
 16 17  2  0
 17  3  1  0
M  END
$$$$
O14757_PocketFlow_idx-in-all-generaetd-364
     RDKit          3D

 34 35  0  0  0  0  0  0  0  0999 V2000
   -0.6395   -2.0713   41.4947 C   0  0  0  0  0  0  0  0  0  0  0  0
    0.1859   -1.1027   41.5970 C   0  0  0  0  0  0  0  0  0  0  0  0
    1.5836   -1.3270   41.4669 C   0  0  0  0  0  0  0  0  0  0  0  0
   -0.2462   -3.3905   41.2409 C   0  0  0  0  0  0  0  0  0  0  0  0
    2.0075   -2.6977   41.3340 C   0  0  0  0  0  0  0  0  0  0  0  0
    1.0655   -3.6470   41.1373 C   0  0  0  0  0  0  0  0  0  0  0  0
    2.5661   -0.2728   41.7199 C   0  0  0  0  0  0  0  0  0  0  0  0
    3.2453   -0.1933   43.0291 C   0  0  0  0  0  0  0  0  0  0  0  0
    4.6592    0.1843   42.9570 C   0  0  0  0  0  0  0  0  0  0  0  0
    5.5185   -0.9916   43.2100 C   0  0  0  0  0  0  0  0  0  0  0  0
    6.0327   -1.1007   44.5820 C   0  0  0  0  0  0  0  0  0  0  0  0
    6.3752   -2.4563   45.0602 C   0  0  0  0  0  0  0  0  0  0  0  0
    5.8057   -2.7995   46.2830 C   0  0  0  0  0  0  0  0  0  0  0  0
    6.1981   -3.9605   47.0227 C   0  0  2  0  0  0  0  0  0  0  0  0
    5.1657   -4.7332   47.5853 C   0  0  0  0  0  0  0  0  0  0  0  0
    5.2317   -6.0913   47.1527 C   0  0  0  0  0  0  0  0  0  0  0  0
    4.5426   -7.0363   48.1047 C   0  0  0  0  0  0  0  0  0  0  0  0
    4.4335   -8.3971   47.4086 C   0  0  0  0  0  0  0  0  0  0  0  0
    4.8055   -9.5100   48.0837 C   0  0  0  0  0  0  0  0  0  0  0  0
    4.0103  -10.0487   48.8450 C   0  0  0  0  0  0  0  0  0  0  0  0
    4.0714  -11.3034   49.0487 C   0  0  0  0  0  0  0  0  0  0  0  0
    6.0524  -10.1358   47.7041 C   0  0  0  0  0  0  0  0  0  0  0  0
    6.2706  -11.4603   48.0405 C   0  0  0  0  0  0  0  0  0  0  0  0
    5.2617  -12.0780   48.8146 C   0  0  0  0  0  0  0  0  0  0  0  0
   -2.0062   -1.6464   41.5413 O   0  0  0  0  0  0  0  0  0  0  0  0
   -2.8345   -1.8923   40.5013 C   0  0  0  0  0  0  0  0  0  0  0  0
    7.2543   -9.3807   46.7288 Cl  0  0  0  0  0  0  0  0  0  0  0  0
    2.6020    0.6507   40.8964 O   0  0  0  0  0  0  0  0  0  0  0  0
    7.5769   -4.0654   47.2983 C   0  0  0  0  0  0  0  0  0  0  0  0
    8.4659   -3.1039   47.1244 C   0  0  0  0  0  0  0  0  0  0  0  0
    9.8403   -3.3321   47.4189 C   0  0  0  0  0  0  0  0  0  0  0  0
   10.3511   -4.5335   47.5475 C   0  0  0  0  0  0  0  0  0  0  0  0
    9.4288   -5.6542   47.6547 C   0  0  0  0  0  0  0  0  0  0  0  0
    8.0219   -5.2881   47.8698 C   0  0  0  0  0  0  0  0  0  0  0  0
  3  7  1  0
  7  8  1  0
  8  9  1  0
  9 10  1  0
 10 11  1  0
 11 12  1  0
 12 13  1  0
 14 13  1  1
 14 15  1  0
 15 16  1  0
 16 17  1  0
 17 18  1  0
 18 19  1  0
  1 25  1  0
 25 26  1  0
 22 27  1  0
  7 28  2  0
 14 29  1  0
 29 30  2  3
 30 31  1  0
 31 32  2  3
 32 33  1  0
 33 34  1  0
 19 20  2  0
 20 21  1  0
 21 24  2  0
 24 23  1  0
 23 22  2  0
 22 19  1  0
  1  2  2  0
  2  3  1  0
  3  5  2  0
  5  6  1  0
  6  4  2  0
  4  1  1  0
M  END
$$$$
O14757_PocketFlow_idx-in-all-generaetd-365
     RDKit          3D

 20 22  0  0  0  0  0  0  0  0999 V2000
    0.2881   -2.9111   42.4378 C   0  0  0  0  0  0  0  0  0  0  0  0
    1.1784   -3.4293   42.9321 C   0  0  0  0  0  0  0  0  0  0  0  0
    2.4507   -2.7243   42.9621 C   0  0  0  0  0  0  0  0  0  0  0  0
    2.5762   -1.5430   42.3314 C   0  0  0  0  0  0  0  0  0  0  0  0
    0.2669   -1.7116   41.6824 C   0  0  0  0  0  0  0  0  0  0  0  0
    3.7978   -0.7372   42.3049 C   0  0  0  0  0  0  0  0  0  0  0  0
    1.4206   -0.9916   41.6457 C   0  0  0  0  0  0  0  0  0  0  0  0
    4.3265   -0.2594   43.5748 C   0  0  0  0  0  0  0  0  0  0  0  0
    1.1461   -4.6799   43.8037 C   0  0  0  0  0  0  0  0  0  0  0  0
    2.0495   -4.8822   44.8922 C   0  0  0  0  0  0  0  0  0  0  0  0
    1.8715   -6.0852   45.6136 C   0  0  0  0  0  0  0  0  0  0  0  0
    0.7637   -6.8580   45.4525 C   0  0  0  0  0  0  0  0  0  0  0  0
   -0.1372   -6.5812   44.3239 C   0  0  0  0  0  0  0  0  0  0  0  0
    0.0703   -5.4982   43.5747 C   0  0  0  0  0  0  0  0  0  0  0  0
   -1.0862   -7.6066   44.2027 N   0  0  0  0  0  0  0  0  0  0  0  0
    5.7923   -0.2048   43.6803 C   0  0  0  0  0  0  0  0  0  0  0  0
   -1.7674   -8.1963   45.1935 C   0  0  0  0  0  0  0  0  0  0  0  0
   -1.2363   -8.1919   46.4115 C   0  0  0  0  0  0  0  0  0  0  0  0
    0.1148   -7.4933   46.6395 C   0  0  0  0  0  0  0  0  0  0  0  0
   -2.7757   -8.8088   44.8586 F   0  0  0  0  0  0  0  0  0  0  0  0
  4  6  1  0
  6  8  1  0
  2  9  1  0
  8 16  1  0
 17 20  1  0
  9 10  2  0
 10 11  1  0
 11 12  2  0
 13 14  2  0
 14  9  1  0
 12 13  1  0
 13 15  1  0
 15 17  2  0
 17 18  1  0
 18 19  2  0
 19 12  1  0
  1  2  2  0
  2  3  1  0
  3  4  2  0
  4  7  1  0
  7  5  2  0
  5  1  1  0
M  END
$$$$
O14757_PocketFlow_idx-in-all-generaetd-366
     RDKit          3D

 18 19  0  0  0  0  0  0  0  0999 V2000
   -0.6395   -2.0713   41.4947 C   0  0  0  0  0  0  0  0  0  0  0  0
    0.1859   -1.1027   41.5970 C   0  0  0  0  0  0  0  0  0  0  0  0
   -0.2410   -3.3795   41.5297 C   0  0  0  0  0  0  0  0  0  0  0  0
    1.6125   -1.3642   41.8466 C   0  0  0  0  0  0  0  0  0  0  0  0
    1.9568   -2.7213   42.1561 C   0  0  0  0  0  0  0  0  0  0  0  0
    0.9568   -3.6932   42.0424 C   0  0  0  0  0  0  0  0  0  0  0  0
    2.5392   -0.3092   42.1184 C   0  0  0  0  0  0  0  0  0  0  0  0
    3.8447   -0.5588   42.5830 C   0  0  0  0  0  0  0  0  0  0  0  0
    4.8063    0.5015   42.7724 C   0  0  0  0  0  0  0  0  0  0  0  0
   -2.0780   -1.8348   41.0536 C   0  0  0  0  0  0  0  0  0  0  0  0
   -3.1223   -1.6250   40.9511 N   0  0  0  0  0  0  0  0  0  0  0  0
    4.2387   -1.8621   43.0056 C   0  0  0  0  0  0  0  0  0  0  0  0
    5.3724   -1.9305   43.9220 C   0  0  0  0  0  0  0  0  0  0  0  0
    5.9212    0.2928   43.4950 N   0  0  0  0  0  0  0  0  0  0  0  0
    6.2518   -0.8407   44.0339 C   0  0  0  0  0  0  0  0  0  0  0  0
    7.3435   -1.0277   44.7752 N   0  0  0  0  0  0  0  0  0  0  0  0
    7.6375   -2.0755   45.6781 C   0  0  0  0  0  0  0  0  0  0  0  0
    6.6804   -3.0835   45.9607 C   0  0  0  0  0  0  0  0  0  0  0  0
  4  7  1  0
  1 10  1  0
 10 11  3  0
 15 16  1  0
 16 17  2  3
 17 18  1  0
  7  8  1  0
  1  2  2  0
  2  4  1  0
  4  5  2  0
  5  6  1  0
  6  3  2  0
  3  1  1  0
  8  9  2  0
  9 14  1  0
 14 15  2  0
 15 13  1  0
 13 12  2  0
 12  8  1  0
M  END
$$$$
O14757_PocketFlow_idx-in-all-generaetd-367
     RDKit          3D

 15 15  0  0  0  0  0  0  0  0999 V2000
   -0.8794   -1.9236   41.9357 O   0  0  0  0  0  0  0  0  0  0  0  0
    0.3070   -1.6014   41.6735 C   0  0  0  0  0  0  0  0  0  0  0  0
    1.2548   -2.6723   41.5755 C   0  0  0  0  0  0  0  0  0  0  0  0
    2.4147   -2.3743   42.2522 C   0  0  0  0  0  0  0  0  0  0  0  0
    2.9772   -3.1604   43.2831 C   0  0  0  0  0  0  0  0  0  0  0  0
    3.5595   -2.7720   44.2321 C   0  0  0  0  0  0  0  0  0  0  0  0
    4.3251   -1.4998   44.2703 C   0  0  0  0  0  0  0  0  0  0  0  0
    3.9824   -0.6439   43.1686 C   0  0  0  0  0  0  0  0  0  0  0  0
    2.9459   -0.9802   42.2859 C   0  0  0  0  0  0  0  0  0  0  0  0
    5.3886   -1.2024   45.1627 C   0  0  0  0  0  0  0  0  0  0  0  0
    6.4631   -2.1936   45.2719 C   0  0  0  0  0  0  0  0  0  0  0  0
    7.6459   -1.8522   45.9493 C   0  0  0  0  0  0  0  0  0  0  0  0
    8.5224   -2.7468   46.3996 C   0  0  0  0  0  0  0  0  0  0  0  0
    9.7543   -2.4250   46.9511 C   0  0  0  0  0  0  0  0  0  0  0  0
   10.0887   -1.0770   46.9034 C   0  0  0  0  0  0  0  0  0  0  0  0
  1  2  1  0
  2  3  1  0
  3  4  1  0
  7 10  1  0
 10 11  1  0
 11 12  2  3
 12 13  1  0
 13 14  1  0
 14 15  2  0
  4  5  2  0
  5  6  1  0
  6  7  2  0
  7  8  1  0
  8  9  2  0
  9  4  1  0
M  END
$$$$
O14757_PocketFlow_idx-in-all-generaetd-368
     RDKit          3D

 15 16  0  0  0  0  0  0  0  0999 V2000
    0.2881   -2.9111   42.4378 C   0  0  0  0  0  0  0  0  0  0  0  0
    1.3023   -2.0648   42.1981 C   0  0  0  0  0  0  0  0  0  0  0  0
    2.5200   -2.2700   42.7140 C   0  0  0  0  0  0  0  0  0  0  0  0
    2.7379   -3.3419   43.6435 C   0  0  0  0  0  0  0  0  0  0  0  0
    1.7184   -4.1957   43.9344 C   0  0  0  0  0  0  0  0  0  0  0  0
    1.8958   -5.2778   44.8782 C   0  0  0  0  0  0  0  0  0  0  0  0
    0.5272   -4.0322   43.2799 C   0  0  0  0  0  0  0  0  0  0  0  0
    0.9058   -5.4889   45.8403 C   0  0  0  0  0  0  0  0  0  0  0  0
   -0.0902   -4.5764   45.9957 C   0  0  0  0  0  0  0  0  0  0  0  0
    4.0475   -3.4261   44.3365 C   0  0  0  0  0  0  0  0  0  0  0  0
    4.4397   -4.3916   45.1679 C   0  0  0  0  0  0  0  0  0  0  0  0
    4.9172   -2.2889   44.0637 C   0  0  0  0  0  0  0  0  0  0  0  0
    6.0875   -2.1550   44.8976 C   0  0  0  0  0  0  0  0  0  0  0  0
    6.4995   -3.2123   45.7477 C   0  0  0  0  0  0  0  0  0  0  0  0
    5.6261   -4.2342   45.9559 C   0  0  0  0  0  0  0  0  0  0  0  0
  5  6  1  0
  6  8  1  0
  8  9  2  0
  4 10  1  0
 10 11  2  0
 11 15  1  0
 15 14  2  0
 14 13  1  0
 13 12  2  0
 12 10  1  0
  1  2  2  0
  2  3  1  0
  3  4  2  0
  4  5  1  0
  5  7  2  0
  7  1  1  0
M  END
$$$$
O14757_PocketFlow_idx-in-all-generaetd-369
     RDKit          3D

 24 28  0  0  0  0  0  0  0  0999 V2000
    0.2881   -2.9111   42.4378 C   0  0  0  0  0  0  0  0  0  0  0  0
    1.3023   -2.0648   42.1981 C   0  0  0  0  0  0  0  0  0  0  0  0
    0.9971   -0.8647   41.5341 C   0  0  0  0  0  0  0  0  0  0  0  0
    0.6174   -4.1995   43.0267 C   0  0  0  0  0  0  0  0  0  0  0  0
    1.7533   -4.2645   43.8391 C   0  0  0  0  0  0  0  0  0  0  0  0
    2.7252   -3.2577   43.7226 C   0  0  0  0  0  0  0  0  0  0  0  0
    2.4950   -2.1175   42.9118 C   0  0  0  0  0  0  0  0  0  0  0  0
    4.0876   -3.2305   44.4113 C   0  0  0  0  0  0  0  0  0  0  0  0
    4.4413   -4.3085   45.2369 C   0  0  0  0  0  0  0  0  0  0  0  0
    4.9169   -2.1589   44.2782 C   0  0  0  0  0  0  0  0  0  0  0  0
    6.1019   -2.1171   45.0202 C   0  0  0  0  0  0  0  0  0  0  0  0
    6.5266   -3.1627   45.8660 C   0  0  0  0  0  0  0  0  0  0  0  0
    5.6503   -4.1786   46.0648 C   0  0  0  0  0  0  0  0  0  0  0  0
    7.7901   -3.0533   46.5962 C   0  0  0  0  0  0  0  0  0  0  0  0
    8.2275   -4.0674   47.4640 C   0  0  0  0  0  0  0  0  0  0  0  0
    9.1560   -3.9795   48.1805 C   0  0  0  0  0  0  0  0  0  0  0  0
   10.0799   -2.8849   48.0738 C   0  0  0  0  0  0  0  0  0  0  0  0
    8.5502   -1.8892   46.5175 C   0  0  0  0  0  0  0  0  0  0  0  0
    9.7380   -1.7874   47.3154 C   0  0  0  0  0  0  0  0  0  0  0  0
   -0.8341   -2.9122   41.7514 O   0  0  0  0  0  0  0  0  0  0  0  0
    2.1593    0.0790   41.3583 C   0  0  0  0  0  0  0  0  0  0  0  0
    3.2288    0.0507   42.1497 C   0  0  0  0  0  0  0  0  0  0  0  0
    3.5395   -1.0808   42.8926 C   0  0  0  0  0  0  0  0  0  0  0  0
    4.6358   -1.0773   43.4808 C   0  0  0  0  0  0  0  0  0  0  0  0
  6  8  1  0
 12 14  1  0
  1 20  1  0
 10 24  1  0
 23 24  1  0
  8  9  2  0
  9 13  1  0
 13 12  2  0
 12 11  1  0
 11 10  2  0
 10  8  1  0
  1  2  2  0
  7  6  2  0
  6  5  1  0
  5  4  2  0
  4  1  1  0
 14 15  2  0
 15 16  1  0
 16 17  2  0
 17 19  1  0
 19 18  2  0
 18 14  1  0
  2  3  1  0
  3 21  2  0
 21 22  1  0
 22 23  2  0
 23  7  1  0
  7  2  1  0
M  END
$$$$
O14757_PocketFlow_idx-in-all-generaetd-370
     RDKit          3D

  5  4  0  0  0  0  0  0  0  0999 V2000
   -0.6770   -2.0561   41.5845 Cl  0  0  0  0  0  0  0  0  0  0  0  0
    0.6635   -1.3656   41.8224 C   0  0  0  0  0  0  0  0  0  0  0  0
    1.7380   -1.9855   42.4015 C   0  0  0  0  0  0  0  0  0  0  0  0
    1.6001   -3.2467   42.9558 C   0  0  0  0  0  0  0  0  0  0  0  0
    0.3156   -3.8692   42.8361 C   0  0  0  0  0  0  0  0  0  0  0  0
  1  2  1  0
  2  3  1  0
  3  4  1  0
  4  5  2  0
M  END
$$$$
O14757_PocketFlow_idx-in-all-generaetd-371
     RDKit          3D

 20 23  0  0  0  0  0  0  0  0999 V2000
    0.2881   -2.9111   42.4378 C   0  0  0  0  0  0  0  0  0  0  0  0
   -0.0650   -2.5021   41.5798 C   0  0  0  0  0  0  0  0  0  0  0  0
    0.3903   -4.2958   42.8988 C   0  0  0  0  0  0  0  0  0  0  0  0
    0.9259   -4.6857   44.1305 C   0  0  1  0  0  0  0  0  0  0  0  0
    0.3778   -5.5506   45.0550 C   0  0  0  0  0  0  0  0  0  0  0  0
   -0.0020   -1.0229   41.3082 C   0  0  0  0  0  0  0  0  0  0  0  0
    0.9791   -6.4606   45.4186 O   0  0  0  0  0  0  0  0  0  0  0  0
    1.2147   -0.4021   41.6591 C   0  0  0  0  0  0  0  0  0  0  0  0
    2.1491   -1.0677   42.4158 C   0  0  0  0  0  0  0  0  0  0  0  0
    3.3480   -0.4866   42.7034 C   0  0  0  0  0  0  0  0  0  0  0  0
    4.4127   -1.2467   43.3986 C   0  0  0  0  0  0  0  0  0  0  0  0
    5.5902   -0.7229   43.8321 C   0  0  0  0  0  0  0  0  0  0  0  0
    1.8161   -2.4176   42.7910 C   0  0  0  0  0  0  0  0  0  0  0  0
    6.4135   -1.5196   44.5988 C   0  0  0  0  0  0  0  0  0  0  0  0
    6.0875   -2.8009   45.0855 C   0  0  0  0  0  0  0  0  0  0  0  0
    4.8468   -3.2794   44.5972 C   0  0  0  0  0  0  0  0  0  0  0  0
    4.0339   -2.5182   43.8367 C   0  0  0  0  0  0  0  0  0  0  0  0
    2.7744   -3.1117   43.4931 C   0  0  0  0  0  0  0  0  0  0  0  0
    2.2703   -4.3018   44.2235 C   0  0  0  0  0  0  0  0  0  0  0  0
   -0.8307   -5.2999   45.5016 O   0  0  0  0  0  0  0  0  0  0  0  0
  1  3  1  0
  3  4  1  0
  4  5  1  6
  5  7  2  0
  4 19  1  0
 18 19  1  0
  5 20  1  0
  1  2  2  0
  2  6  1  0
  6  8  2  0
  8  9  1  0
 13  1  1  0
 11 12  2  0
 12 14  1  0
 14 15  2  0
 15 16  1  0
 16 17  2  0
  9 10  2  0
 10 11  1  0
 11 17  1  0
 17 18  1  0
 18 13  2  0
 13  9  1  0
M  END
$$$$
O14757_PocketFlow_idx-in-all-generaetd-372
     RDKit          3D

 35 38  0  0  0  0  0  0  0  0999 V2000
   -0.6395   -2.0713   41.4947 C   0  0  0  0  0  0  0  0  0  0  0  0
    0.1859   -1.1027   41.5970 C   0  0  0  0  0  0  0  0  0  0  0  0
    1.5836   -1.3270   41.4670 C   0  0  0  0  0  0  0  0  0  0  0  0
   -0.2462   -3.3905   41.2409 C   0  0  0  0  0  0  0  0  0  0  0  0
    2.5675   -0.3472   41.7943 C   0  0  0  0  0  0  0  0  0  0  0  0
    3.8546   -0.6776   42.2362 C   0  0  0  0  0  0  0  0  0  0  0  0
    4.7317    0.3221   42.6999 C   0  0  0  0  0  0  0  0  0  0  0  0
    1.1458   -3.6433   41.1533 C   0  0  0  0  0  0  0  0  0  0  0  0
    2.0281   -2.5909   41.2669 C   0  0  0  0  0  0  0  0  0  0  0  0
   -2.0244   -1.8756   41.6054 O   0  0  0  0  0  0  0  0  0  0  0  0
    5.8950   -0.2245   43.4112 C   0  0  0  0  0  0  0  0  0  0  0  0
    5.8306   -1.4025   44.2000 C   0  0  0  0  0  0  0  0  0  0  0  0
    4.8052   -2.3473   43.8639 C   0  0  0  0  0  0  0  0  0  0  0  0
    3.7393   -1.9065   43.0253 C   0  0  0  0  0  0  0  0  0  0  0  0
    6.9219   -1.7611   45.0540 C   0  0  0  0  0  0  0  0  0  0  0  0
    6.8278   -2.3586   46.2531 C   0  0  0  0  0  0  0  0  0  0  0  0
    7.9817   -2.7345   46.9706 C   0  0  0  0  0  0  0  0  0  0  0  0
    7.9336   -3.7512   47.9528 C   0  0  0  0  0  0  0  0  0  0  0  0
    6.6647   -4.2662   48.3081 C   0  0  0  0  0  0  0  0  0  0  0  0
    5.5001   -3.8522   47.6239 C   0  0  0  0  0  0  0  0  0  0  0  0
    5.5996   -3.0377   46.5545 C   0  0  0  0  0  0  0  0  0  0  0  0
    6.5091   -5.2162   49.4586 C   0  0  0  0  0  0  0  0  0  0  0  0
    5.4719   -5.9594   49.4257 O   0  0  0  0  0  0  0  0  0  0  0  0
    5.8019   -7.3679   49.4853 C   0  0  0  0  0  0  0  0  0  0  0  0
    5.7674   -8.0309   48.3033 C   0  0  2  0  0  0  0  0  0  0  0  0
    5.2296   -9.1811   48.1923 C   0  0  0  0  0  0  0  0  0  0  0  0
    5.7532  -10.2668   48.1894 C   0  0  0  0  0  0  0  0  0  0  0  0
    7.1790  -10.2992   48.3436 C   0  0  0  0  0  0  0  0  0  0  0  0
    7.9274   -9.4206   47.5967 C   0  0  0  0  0  0  0  0  0  0  0  0
    7.9260   -8.0146   47.7781 C   0  0  0  0  0  0  0  0  0  0  0  0
    6.7700   -7.5574   47.4639 O   0  0  0  0  0  0  0  0  0  0  0  0
    3.7396   -9.0248   47.8376 C   0  0  0  0  0  0  0  0  0  0  0  0
    3.0687  -10.0147   47.1846 C   0  0  0  0  0  0  0  0  0  0  0  0
    1.7537   -9.7960   46.9126 C   0  0  0  0  0  0  0  0  0  0  0  0
    1.3246   -8.6167   46.2566 C   0  0  0  0  0  0  0  0  0  0  0  0
  3  5  1  0
  1 10  1  0
 12 15  1  0
 19 22  1  0
 22 23  1  0
 23 24  1  0
 25 24  1  1
 25 26  1  0
 26 27  2  0
 27 28  1  0
 28 29  2  0
 29 30  1  0
 25 31  1  0
 30 31  1  0
 26 32  1  0
 32 33  2  3
 33 34  1  0
 34 35  1  0
 15 16  1  0
  5  6  1  0
  6  7  2  0
  7 11  1  0
 11 12  2  0
 12 13  1  0
 13 14  2  0
 14  6  1  0
  1  2  2  0
  2  3  1  0
  3  9  2  0
  9  8  1  0
  8  4  2  0
  4  1  1  0
 16 17  2  0
 17 18  1  0
 18 19  2  0
 19 20  1  0
 20 21  2  0
 21 16  1  0
M  END
$$$$
O14757_PocketFlow_idx-in-all-generaetd-373
     RDKit          3D

 29 32  0  0  0  0  0  0  0  0999 V2000
   -0.6395   -2.0713   41.4947 C   0  0  0  0  0  0  0  0  0  0  0  0
    0.6719   -2.2449   41.7518 C   0  0  0  0  0  0  0  0  0  0  0  0
    1.5951   -1.1948   41.6106 C   0  0  0  0  0  0  0  0  0  0  0  0
    2.8936   -1.2860   42.2441 C   0  0  0  0  0  0  0  0  0  0  0  0
    3.2021   -2.2591   43.1862 C   0  0  0  0  0  0  0  0  0  0  0  0
    2.2602   -3.3290   43.4161 C   0  0  0  0  0  0  0  0  0  0  0  0
    0.9345   -3.1830   42.7957 C   0  0  0  0  0  0  0  0  0  0  0  0
    4.4481   -2.4543   43.8624 C   0  0  0  0  0  0  0  0  0  0  0  0
    4.7617   -3.3786   44.8197 C   0  0  0  0  0  0  0  0  0  0  0  0
    3.8606   -4.4792   44.8067 C   0  0  0  0  0  0  0  0  0  0  0  0
    2.5183   -4.3877   44.3122 C   0  0  0  0  0  0  0  0  0  0  0  0
    5.6776   -3.2415   45.8508 C   0  0  0  0  0  0  0  0  0  0  0  0
    5.6987   -3.9309   47.0641 C   0  0  0  0  0  0  0  0  0  0  0  0
    6.8728   -2.3867   45.6499 C   0  0  0  0  0  0  0  0  0  0  0  0
    8.0144   -2.4316   46.4747 C   0  0  0  0  0  0  0  0  0  0  0  0
    6.7857   -3.9563   47.9789 C   0  0  0  0  0  0  0  0  0  0  0  0
    7.9470   -3.1920   47.6614 C   0  0  0  0  0  0  0  0  0  0  0  0
    1.5400   -5.3317   44.6699 C   0  0  0  0  0  0  0  0  0  0  0  0
    1.2641   -5.4714   46.0644 C   0  0  0  0  0  0  0  0  0  0  0  0
    0.0731   -6.2062   46.4130 C   0  0  0  0  0  0  0  0  0  0  0  0
   -0.6351   -5.6230   47.2273 F   0  0  0  0  0  0  0  0  0  0  0  0
   -0.7393   -6.1199   45.2524 F   0  0  0  0  0  0  0  0  0  0  0  0
    0.3302   -7.4257   46.6545 F   0  0  0  0  0  0  0  0  0  0  0  0
   -1.3543   -3.0545   41.0586 O   0  0  0  0  0  0  0  0  0  0  0  0
   -1.2604   -0.8768   41.4581 O   0  0  0  0  0  0  0  0  0  0  0  0
    9.1431   -1.6113   46.1844 C   0  0  0  0  0  0  0  0  0  0  0  0
    9.8391   -1.1590   46.9489 C   0  0  0  0  0  0  0  0  0  0  0  0
    9.9311   -1.8478   48.3068 C   0  0  0  0  0  0  0  0  0  0  0  0
    8.9167   -2.8074   48.6534 C   0  0  0  0  0  0  0  0  0  0  0  0
  1  2  1  0
  9 12  1  0
 11 18  1  0
 18 19  1  0
 19 20  1  0
 20 21  1  0
 20 22  1  0
 20 23  1  0
  1 24  2  0
  1 25  1  0
  6 11  1  0
 11 10  2  0
 10  9  1  0
  9  8  2  0
  8  5  1  0
  2  3  2  0
  3  4  1  0
  4  5  2  0
  5  6  1  0
  6  7  2  0
  7  2  1  0
 17 29  1  0
 29 28  2  0
 28 27  1  0
 27 26  2  0
 26 15  1  0
 12 13  2  0
 13 16  1  0
 16 17  2  0
 17 15  1  0
 15 14  2  0
 14 12  1  0
M  END
$$$$
O14757_PocketFlow_idx-in-all-generaetd-374
     RDKit          3D

 35 37  0  0  0  0  0  0  0  0999 V2000
   -0.6395   -2.0713   41.4947 C   0  0  0  0  0  0  0  0  0  0  0  0
    0.1859   -1.1027   41.5970 C   0  0  0  0  0  0  0  0  0  0  0  0
    1.5836   -1.3270   41.4669 C   0  0  0  0  0  0  0  0  0  0  0  0
   -0.2462   -3.3905   41.2409 C   0  0  2  0  0  0  0  0  0  0  0  0
    2.5675   -0.3472   41.7943 C   0  0  0  0  0  0  0  0  0  0  0  0
    3.8546   -0.6776   42.2362 C   0  0  2  0  0  0  0  0  0  0  0  0
    4.0126   -1.8382   43.0706 C   0  0  0  0  0  0  0  0  0  0  0  0
    5.0976   -2.0692   43.9469 C   0  0  0  0  0  0  0  0  0  0  0  0
    5.1390   -3.2028   44.7700 C   0  0  0  0  0  0  0  0  0  0  0  0
    4.1210   -4.2158   44.5930 C   0  0  0  0  0  0  0  0  0  0  0  0
    2.9865   -3.9078   43.8234 C   0  0  0  0  0  0  0  0  0  0  0  0
    2.9293   -2.7349   43.0940 C   0  0  0  0  0  0  0  0  0  0  0  0
    1.0076   -3.6150   41.0164 F   0  0  0  0  0  0  0  0  0  0  0  0
    1.6944   -2.4419   42.3662 C   0  0  1  0  0  0  0  0  0  0  0  0
    0.7401   -2.6240   43.3437 O   0  0  0  0  0  0  0  0  0  0  0  0
   -0.9558   -4.0580   40.1717 O   0  0  0  0  0  0  0  0  0  0  0  0
    4.6229    0.4896   42.7890 C   0  0  0  0  0  0  0  0  0  0  0  0
   -2.0265   -1.8726   41.5535 O   0  0  0  0  0  0  0  0  0  0  0  0
    4.2205   -5.3490   45.2901 O   0  0  0  0  0  0  0  0  0  0  0  0
    3.1507   -5.7474   46.0643 C   0  0  0  0  0  0  0  0  0  0  0  0
    2.7999   -7.0973   45.7349 C   0  0  2  0  0  0  0  0  0  0  0  0
    1.4158   -7.3824   45.7002 C   0  0  0  0  0  0  0  0  0  0  0  0
    0.7961   -8.2261   46.5552 C   0  0  0  0  0  0  0  0  0  0  0  0
   -0.6609   -8.3320   46.5519 C   0  0  0  0  0  0  0  0  0  0  0  0
   -1.3648   -7.5692   45.5524 C   0  0  0  0  0  0  0  0  0  0  0  0
   -0.6344   -6.8960   44.5510 C   0  0  0  0  0  0  0  0  0  0  0  0
    0.7470   -6.7857   44.6340 C   0  0  0  0  0  0  0  0  0  0  0  0
   -2.7966   -7.7616   45.4092 C   0  0  0  0  0  0  0  0  0  0  0  0
   -3.3243   -9.0424   44.9761 C   0  0  0  0  0  0  0  0  0  0  0  0
   -4.6097   -9.2230   45.3313 C   0  0  0  0  0  0  0  0  0  0  0  0
   -5.3913   -8.0609   45.2257 C   0  0  0  0  0  0  0  0  0  0  0  0
   -6.5088   -8.0337   45.6080 O   0  0  0  0  0  0  0  0  0  0  0  0
   -4.9541   -6.9225   44.7648 O   0  0  0  0  0  0  0  0  0  0  0  0
    3.4498   -7.9160   46.9033 N   0  0  0  0  0  0  0  0  0  0  0  0
    3.4507   -9.2466   46.9761 C   0  0  0  0  0  0  0  0  0  0  0  0
  1  2  1  0
  2  3  2  3
  1  4  1  0
  3  5  1  0
  5  6  1  0
  6  7  1  0
  4 13  1  0
  3 14  1  0
 12 14  1  0
 14 15  1  1
  4 16  1  6
  6 17  1  1
  1 18  2  0
 10 19  1  0
 19 20  1  0
 21 20  1  1
 21 22  1  0
 25 28  1  0
 28 29  1  0
 29 30  1  0
 30 31  1  0
 31 32  2  0
 31 33  1  0
 21 34  1  0
 34 35  1  0
 22 23  2  0
 23 24  1  0
 24 25  2  0
 25 26  1  0
 26 27  2  0
 27 22  1  0
  7  8  2  0
  8  9  1  0
  9 10  2  0
 10 11  1  0
 11 12  2  0
 12  7  1  0
M  END
$$$$
O14757_PocketFlow_idx-in-all-generaetd-375
     RDKit          3D

 17 18  0  0  0  0  0  0  0  0999 V2000
   -0.6395   -2.0713   41.4947 C   0  0  0  0  0  0  0  0  0  0  0  0
    0.6719   -2.2449   41.7518 C   0  0  0  0  0  0  0  0  0  0  0  0
    1.5951   -1.1948   41.6106 C   0  0  0  0  0  0  0  0  0  0  0  0
    2.9587   -1.3961   42.0240 C   0  0  0  0  0  0  0  0  0  0  0  0
    3.8815   -0.3441   42.0598 C   0  0  0  0  0  0  0  0  0  0  0  0
    4.4886   -0.0976   43.3461 C   0  0  0  0  0  0  0  0  0  0  0  0
    4.8965   -1.1525   44.2224 C   0  0  0  0  0  0  0  0  0  0  0  0
    4.0062   -2.3282   44.0557 C   0  0  0  0  0  0  0  0  0  0  0  0
    4.1859   -3.4109   44.9480 C   0  0  0  0  0  0  0  0  0  0  0  0
    3.1479   -2.4084   43.1220 C   0  0  0  0  0  0  0  0  0  0  0  0
    3.3615   -4.5382   44.8789 C   0  0  0  0  0  0  0  0  0  0  0  0
    2.0531   -4.5371   44.5614 C   0  0  0  0  0  0  0  0  0  0  0  0
   -1.1582   -0.8165   41.2600 C   0  0  0  0  0  0  0  0  0  0  0  0
    1.4641   -3.6983   43.5651 C   0  0  0  0  0  0  0  0  0  0  0  0
    2.0271   -3.1824   43.1282 N   0  0  0  0  0  0  0  0  0  0  0  0
   -2.5696   -0.6459   41.0888 C   0  0  0  0  0  0  0  0  0  0  0  0
    1.0455   -3.3154   41.1627 O   0  0  0  0  0  0  0  0  0  0  0  0
  1  2  1  0
  2  3  2  3
  3  4  1  0
  9 11  1  0
 11 12  2  0
  1 13  2  3
 12 14  1  0
 14 15  1  0
 13 16  1  0
  2 17  1  0
  9  8  1  0
 15 10  1  0
  4  5  2  0
  5  6  1  0
  6  7  2  0
  7  8  1  0
  8 10  2  0
 10  4  1  0
M  END
$$$$
O14757_PocketFlow_idx-in-all-generaetd-376
     RDKit          3D

 11 11  0  0  0  0  0  0  0  0999 V2000
   -0.6395   -2.0713   41.4947 C   0  0  0  0  0  0  0  0  0  0  0  0
    0.6719   -2.2449   41.7518 C   0  0  0  0  0  0  0  0  0  0  0  0
    1.5951   -1.1948   41.6106 C   0  0  0  0  0  0  0  0  0  0  0  0
    1.2208    0.0789   41.5217 C   0  0  0  0  0  0  0  0  0  0  0  0
   -1.0553   -0.6908   41.3532 C   0  0  0  0  0  0  0  0  0  0  0  0
   -0.1561    0.2699   41.3309 N   0  0  0  0  0  0  0  0  0  0  0  0
   -2.3048   -0.1908   41.2250 N   0  0  0  0  0  0  0  0  0  0  0  0
    2.9531   -1.5234   41.8266 N   0  0  0  0  0  0  0  0  0  0  0  0
    3.6546   -1.3696   42.9899 C   0  0  0  0  0  0  0  0  0  0  0  0
    4.5243   -0.6135   43.1461 C   0  0  0  0  0  0  0  0  0  0  0  0
    5.3327   -0.4552   44.4253 C   0  0  0  0  0  0  0  0  0  0  0  0
  5  7  1  0
  3  8  1  0
  8  9  1  0
  9 10  2  3
 10 11  1  0
  1  2  2  0
  2  3  1  0
  3  4  2  0
  4  6  1  0
  6  5  2  0
  5  1  1  0
M  END
$$$$
O14757_PocketFlow_idx-in-all-generaetd-377
     RDKit          3D

 35 39  0  0  0  0  0  0  0  0999 V2000
   -0.6395   -2.0713   41.4947 C   0  0  0  0  0  0  0  0  0  0  0  0
    0.1859   -1.1027   41.5970 C   0  0  0  0  0  0  0  0  0  0  0  0
   -0.2410   -3.3795   41.5297 C   0  0  0  0  0  0  0  0  0  0  0  0
    1.6125   -1.3641   41.8466 C   0  0  0  0  0  0  0  0  0  0  0  0
    1.9568   -2.7213   42.1561 C   0  0  0  0  0  0  0  0  0  0  0  0
    3.2405   -2.9356   42.7549 C   0  0  0  0  0  0  0  0  0  0  0  0
    1.0096   -3.6953   41.9519 C   0  0  0  0  0  0  0  0  0  0  0  0
    3.3422   -3.8673   43.8357 C   0  0  0  0  0  0  0  0  0  0  0  0
    4.4800   -3.7744   44.6838 C   0  0  0  0  0  0  0  0  0  0  0  0
    5.4042   -2.7255   44.5366 C   0  0  0  0  0  0  0  0  0  0  0  0
    5.1888   -1.7249   43.5585 C   0  0  0  0  0  0  0  0  0  0  0  0
    4.0917   -1.7591   42.7767 C   0  0  0  0  0  0  0  0  0  0  0  0
   -2.0825   -1.7998   41.0855 C   0  0  0  0  0  0  0  0  0  0  0  0
    6.6093   -2.6447   45.3996 C   0  0  0  0  0  0  0  0  0  0  0  0
    7.5323   -1.6434   45.3355 C   0  0  0  0  0  0  0  0  0  0  0  0
    8.6432   -1.5816   46.2302 C   0  0  0  0  0  0  0  0  0  0  0  0
    8.8911   -2.6075   47.1041 C   0  0  0  0  0  0  0  0  0  0  0  0
    6.7413   -3.5939   46.5048 C   0  0  0  0  0  0  0  0  0  0  0  0
    7.9020   -3.5893   47.2712 C   0  0  0  0  0  0  0  0  0  0  0  0
   -2.6758   -0.6417   41.3696 N   0  0  0  0  0  0  0  0  0  0  0  0
   -2.7875   -2.6672   40.5480 O   0  0  0  0  0  0  0  0  0  0  0  0
    8.0818   -4.6392   48.2963 C   0  0  0  0  0  0  0  0  0  0  0  0
    9.0449   -4.9567   48.7182 C   0  0  0  0  0  0  0  0  0  0  0  0
   10.2150   -4.0142   48.5412 C   0  0  0  0  0  0  0  0  0  0  0  0
   10.0972   -2.8263   47.8252 C   0  0  0  0  0  0  0  0  0  0  0  0
   11.2229   -1.8567   47.6872 C   0  0  0  0  0  0  0  0  0  0  0  0
   12.4037   -2.2673   47.7942 N   0  0  0  0  0  0  0  0  0  0  0  0
   13.3828   -1.7246   47.2645 C   0  0  0  0  0  0  0  0  0  0  0  0
   13.4975   -1.1490   46.3566 C   0  0  0  0  0  0  0  0  0  0  0  0
   14.6532   -0.3913   45.8207 C   0  0  0  0  0  0  0  0  0  0  0  0
   14.5431    0.5618   44.7065 C   0  0  0  0  0  0  0  0  0  0  0  0
   15.2307    1.6320   44.5494 C   0  0  0  0  0  0  0  0  0  0  0  0
   14.7990   -2.0695   47.9420 C   0  0  0  0  0  0  0  0  0  0  0  0
   15.9306   -1.5224   47.4655 N   0  0  0  0  0  0  0  0  0  0  0  0
   15.8735   -0.6613   46.4117 C   0  0  0  0  0  0  0  0  0  0  0  0
  5  6  1  0
  1 13  1  0
 10 14  1  0
 13 20  1  0
 13 21  2  0
 25 26  1  0
 26 27  1  0
 27 28  1  0
 31 32  1  0
 31 30  1  0
  1  2  2  0
  2  4  1  0
  4  5  2  0
  5  7  1  0
  7  3  2  0
  3  1  1  0
 14 15  2  0
 15 16  1  0
 16 17  2  0
 19 18  2  0
 18 14  1  0
  6  8  2  0
  8  9  1  0
  9 10  2  0
 10 11  1  0
 11 12  2  0
 12  6  1  0
 17 19  1  0
 19 22  1  0
 22 23  2  0
 23 24  1  0
 24 25  2  0
 25 17  1  0
 28 29  2  0
 29 30  1  0
 30 35  2  0
 35 34  1  0
 34 33  2  0
 33 28  1  0
M  END
$$$$
O14757_PocketFlow_idx-in-all-generaetd-378
     RDKit          3D

 11 11  0  0  0  0  0  0  0  0999 V2000
   -0.6395   -2.0713   41.4947 C   0  0  0  0  0  0  0  0  0  0  0  0
    0.1859   -1.1027   41.5970 C   0  0  0  0  0  0  0  0  0  0  0  0
    1.5836   -1.3270   41.4670 C   0  0  0  0  0  0  0  0  0  0  0  0
   -0.2462   -3.3905   41.2409 C   0  0  0  0  0  0  0  0  0  0  0  0
    2.0578   -2.6838   41.5381 C   0  0  0  0  0  0  0  0  0  0  0  0
    1.0785   -3.6429   41.2820 C   0  0  0  0  0  0  0  0  0  0  0  0
   -2.0238   -1.7998   41.4358 N   0  0  0  0  0  0  0  0  0  0  0  0
    2.4901   -0.3085   41.6944 N   0  0  0  0  0  0  0  0  0  0  0  0
    3.5628   -0.3413   42.5590 C   0  0  0  0  0  0  0  0  0  0  0  0
    4.6160    0.6198   42.3032 C   0  0  0  0  0  0  0  0  0  0  0  0
    3.6064   -1.2063   43.4351 O   0  0  0  0  0  0  0  0  0  0  0  0
  1  7  1  0
  3  8  1  0
  8  9  1  0
  9 10  1  0
  9 11  2  0
  1  2  2  0
  2  3  1  0
  3  5  2  0
  5  6  1  0
  6  4  2  0
  4  1  1  0
M  END
$$$$
O14757_PocketFlow_idx-in-all-generaetd-379
     RDKit          3D

 24 26  0  0  0  0  0  0  0  0999 V2000
   -0.8794   -1.9236   41.9357 O   0  0  0  0  0  0  0  0  0  0  0  0
    0.3070   -1.6014   41.6735 C   0  0  2  0  0  0  0  0  0  0  0  0
    1.2548   -2.6723   41.5755 C   0  0  0  0  0  0  0  0  0  0  0  0
    0.4951   -3.8444   41.7629 C   0  0  0  0  0  0  0  0  0  0  0  0
   -0.2930   -3.9328   42.3991 C   0  0  2  0  0  0  0  0  0  0  0  0
   -0.5964   -5.4336   42.5122 F   0  0  0  0  0  0  0  0  0  0  0  0
   -1.3107   -3.1331   42.3177 C   0  0  0  0  0  0  0  0  0  0  0  0
    0.8431   -0.4765   42.4240 N   0  0  0  0  0  0  0  0  0  0  0  0
    2.0539   -0.0051   42.0637 C   0  0  0  0  0  0  0  0  0  0  0  0
    3.0669    0.2567   43.0314 C   0  0  0  0  0  0  0  0  0  0  0  0
    4.4135    0.3809   42.4691 C   0  0  0  0  0  0  0  0  0  0  0  0
    5.3607   -0.6643   42.7192 C   0  0  0  0  0  0  0  0  0  0  0  0
    5.2805   -1.3919   43.9715 C   0  0  0  0  0  0  0  0  0  0  0  0
    5.8460   -0.9231   45.0762 C   0  0  0  0  0  0  0  0  0  0  0  0
    5.8403   -1.7105   46.2802 C   0  0  0  0  0  0  0  0  0  0  0  0
    5.1161   -3.0110   46.1553 C   0  0  0  0  0  0  0  0  0  0  0  0
    4.5471   -3.3821   44.9994 C   0  0  0  0  0  0  0  0  0  0  0  0
    4.6679   -2.6004   43.8332 C   0  0  0  0  0  0  0  0  0  0  0  0
    3.9750   -4.7546   45.0021 C   0  0  0  0  0  0  0  0  0  0  0  0
    2.9414   -5.1252   44.3577 C   0  0  0  0  0  0  0  0  0  0  0  0
    2.3796   -6.4580   44.4818 C   0  0  0  0  0  0  0  0  0  0  0  0
    2.9345   -7.2006   45.5904 C   0  0  0  0  0  0  0  0  0  0  0  0
    4.0527   -6.8163   46.3226 C   0  0  0  0  0  0  0  0  0  0  0  0
    4.4954   -5.5384   46.1281 C   0  0  0  0  0  0  0  0  0  0  0  0
  1  2  1  0
  2  3  1  0
  3  4  1  0
  4  5  1  0
  5  6  1  6
  1  7  1  0
  5  7  1  0
  2  8  1  1
  8  9  1  0
  9 10  1  0
 10 11  2  3
 11 12  1  0
 12 13  1  0
 17 19  1  0
 13 14  2  0
 14 15  1  0
 15 16  2  0
 16 17  1  0
 17 18  2  0
 18 13  1  0
 19 20  2  0
 20 21  1  0
 21 22  2  0
 22 23  1  0
 23 24  2  0
 24 19  1  0
M  END
$$$$
O14757_PocketFlow_idx-in-all-generaetd-380
     RDKit          3D

 33 36  0  0  0  0  0  0  0  0999 V2000
   -0.6395   -2.0713   41.4947 C   0  0  0  0  0  0  0  0  0  0  0  0
    0.1859   -1.1027   41.5970 C   0  0  0  0  0  0  0  0  0  0  0  0
    1.5836   -1.3270   41.4670 C   0  0  0  0  0  0  0  0  0  0  0  0
   -0.2462   -3.3905   41.2409 C   0  0  0  0  0  0  0  0  0  0  0  0
    2.0075   -2.6977   41.3341 C   0  0  0  0  0  0  0  0  0  0  0  0
    1.0655   -3.6470   41.1373 C   0  0  0  0  0  0  0  0  0  0  0  0
    2.5048   -0.3416   41.6826 N   0  0  0  0  0  0  0  0  0  0  0  0
    2.8252    0.4979   42.4261 C   0  0  0  0  0  0  0  0  0  0  0  0
    4.1671    1.0232   42.4406 N   0  0  0  0  0  0  0  0  0  0  0  0
   -2.0060   -1.6228   41.5549 O   0  0  0  0  0  0  0  0  0  0  0  0
   -2.5832   -1.0955   40.5326 C   0  0  0  0  0  0  0  0  0  0  0  0
   -4.0920   -0.9975   40.8609 C   0  0  0  0  0  0  0  0  0  0  0  0
    4.9252    0.2143   43.3488 C   0  0  0  0  0  0  0  0  0  0  0  0
    4.9420   -0.9093   43.9319 C   0  0  0  0  0  0  0  0  0  0  0  0
    3.9431   -1.8888   43.8548 C   0  0  0  0  0  0  0  0  0  0  0  0
    4.1878   -3.0930   44.6623 C   0  0  0  0  0  0  0  0  0  0  0  0
    5.2829   -3.1623   45.4474 C   0  0  0  0  0  0  0  0  0  0  0  0
    6.2800   -2.2021   45.4884 C   0  0  0  0  0  0  0  0  0  0  0  0
    6.1576   -1.0972   44.7364 C   0  0  0  0  0  0  0  0  0  0  0  0
    7.5495   -2.4500   46.2557 C   0  0  0  0  0  0  0  0  0  0  0  0
    8.6721   -1.6612   46.1862 C   0  0  0  0  0  0  0  0  0  0  0  0
    9.8230   -1.9151   46.9050 C   0  0  0  0  0  0  0  0  0  0  0  0
    9.9039   -3.0138   47.7069 C   0  0  0  0  0  0  0  0  0  0  0  0
    8.8120   -3.9008   47.7297 C   0  0  0  0  0  0  0  0  0  0  0  0
    7.6385   -3.6521   47.0143 C   0  0  0  0  0  0  0  0  0  0  0  0
    3.1100   -4.0685   44.6542 C   0  0  0  0  0  0  0  0  0  0  0  0
    3.3740   -5.4055   45.0390 C   0  0  0  0  0  0  0  0  0  0  0  0
    2.3719   -6.4121   44.9348 C   0  0  0  0  0  0  0  0  0  0  0  0
    1.1251   -6.0703   44.4947 C   0  0  0  0  0  0  0  0  0  0  0  0
    0.7996   -4.6865   44.1832 C   0  0  0  0  0  0  0  0  0  0  0  0
    1.7658   -3.7257   44.2891 C   0  0  0  0  0  0  0  0  0  0  0  0
    0.0845   -7.0622   44.4099 C   0  0  0  0  0  0  0  0  0  0  0  0
   -0.4860   -7.7070   45.8886 Cl  0  0  0  0  0  0  0  0  0  0  0  0
  3  7  1  0
  7  8  1  0
  8  9  2  3
  1 10  1  0
 10 11  1  0
 11 12  1  0
  9 13  1  0
 13 14  1  0
 18 20  1  0
 16 26  1  0
 29 32  1  0
 32 33  1  0
 26 27  2  0
 27 28  1  0
 28 29  2  0
 29 30  1  0
 30 31  2  0
 31 26  1  0
 14 15  2  0
 15 16  1  0
 16 17  2  0
 17 18  1  0
 18 19  2  0
 19 14  1  0
  1  2  2  0
  2  3  1  0
  3  5  2  0
  5  6  1  0
  6  4  2  0
  4  1  1  0
 20 21  2  0
 21 22  1  0
 22 23  2  0
 23 24  1  0
 24 25  2  0
 25 20  1  0
M  END
$$$$
O14757_PocketFlow_idx-in-all-generaetd-381
     RDKit          3D

 35 38  0  0  0  0  0  0  0  0999 V2000
   -0.6395   -2.0713   41.4947 C   0  0  0  0  0  0  0  0  0  0  0  0
   -0.2671   -3.2464   41.6546 C   0  0  0  0  0  0  0  0  0  0  0  0
    0.2407   -0.9706   41.5952 C   0  0  0  0  0  0  0  0  0  0  0  0
    1.6195   -1.2958   41.8767 C   0  0  0  0  0  0  0  0  0  0  0  0
    2.6583   -0.3517   42.0703 C   0  0  0  0  0  0  0  0  0  0  0  0
    3.9275   -0.7702   42.5387 C   0  0  0  0  0  0  0  0  0  0  0  0
    3.9758   -2.0956   43.1047 C   0  0  0  0  0  0  0  0  0  0  0  0
    2.8202   -2.8904   43.1737 C   0  0  0  0  0  0  0  0  0  0  0  0
    1.6431   -2.4541   42.6305 C   0  0  0  0  0  0  0  0  0  0  0  0
    0.7274   -3.4988   42.3828 C   0  0  0  0  0  0  0  0  0  0  0  0
    5.1060   -0.1715   42.6014 N   0  0  0  0  0  0  0  0  0  0  0  0
   -2.0385   -1.6578   41.0049 C   0  0  0  0  0  0  0  0  0  0  0  0
   -2.8573   -2.5596   40.4683 N   0  0  0  0  0  0  0  0  0  0  0  0
   -2.6548   -0.5364   41.4849 N   0  0  0  0  0  0  0  0  0  0  0  0
   -3.7180   -0.0338   40.8416 C   0  0  0  0  0  0  0  0  0  0  0  0
   -4.0793    1.2211   41.1747 N   0  0  0  0  0  0  0  0  0  0  0  0
   -4.5064   -0.8634   40.0545 C   0  0  0  0  0  0  0  0  0  0  0  0
   -3.9614   -2.1116   39.8959 N   0  0  0  0  0  0  0  0  0  0  0  0
    2.7051   -3.7881   44.2337 N   0  0  0  0  0  0  0  0  0  0  0  0
    3.7841   -4.6103   44.6149 C   0  0  0  0  0  0  0  0  0  0  0  0
    3.3372   -5.7547   45.4639 C   0  0  0  0  0  0  0  0  0  0  0  0
    2.2578   -6.4070   44.8262 C   0  0  0  0  0  0  0  0  0  0  0  0
    1.1488   -6.6499   45.6856 C   0  0  1  0  0  0  0  0  0  0  0  0
    0.1108   -5.4190   45.6203 C   0  0  1  0  0  0  0  0  0  0  0  0
   -1.0793   -5.6627   46.0921 O   0  0  0  0  0  0  0  0  0  0  0  0
    0.2904   -7.8704   45.2729 C   0  0  0  0  0  0  0  0  0  0  0  0
   -1.1235   -7.5934   45.3609 C   0  0  2  0  0  0  0  0  0  0  0  0
   -1.8664   -6.6329   45.5580 C   0  0  0  0  0  0  0  0  0  0  0  0
   -1.6895   -8.8994   45.7915 O   0  0  0  0  0  0  0  0  0  0  0  0
    0.7051   -4.3488   46.4093 O   0  0  0  0  0  0  0  0  0  0  0  0
   -2.9830   -9.1899   45.4098 C   0  0  0  0  0  0  0  0  0  0  0  0
   -3.5805  -10.1760   46.1015 C   0  0  0  0  0  0  0  0  0  0  0  0
   -4.9345  -10.4823   45.7810 C   0  0  0  0  0  0  0  0  0  0  0  0
   -5.5421   -9.8213   44.6603 C   0  0  0  0  0  0  0  0  0  0  0  0
   -4.7830   -8.8690   43.9388 C   0  0  0  0  0  0  0  0  0  0  0  0
  6 11  1  0
  1 12  1  0
 15 16  1  0
  8 19  1  0
 19 20  1  0
 20 21  2  3
 21 22  1  0
 23 22  1  6
 23 24  1  0
 24 25  1  0
 23 26  1  0
 26 27  1  0
 25 28  1  0
 27 28  1  0
 27 29  1  1
 24 30  1  1
 29 31  1  0
 31 32  2  3
 32 33  1  0
 33 34  2  3
 34 35  1  0
  1  2  2  0
  2 10  1  0
 10  9  2  0
  4  3  2  0
  3  1  1  0
 12 13  2  0
 13 18  1  0
 18 17  2  0
 17 15  1  0
 15 14  2  0
 14 12  1  0
  4  5  1  0
  5  6  2  0
  6  7  1  0
  7  8  2  0
  8  9  1  0
  9  4  1  0
M  END
$$$$
O14757_PocketFlow_idx-in-all-generaetd-382
     RDKit          3D

 35 36  0  0  0  0  0  0  0  0999 V2000
   -0.8794   -1.9236   41.9357 O   0  0  0  0  0  0  0  0  0  0  0  0
    0.3182   -2.2442   41.7074 C   0  0  0  0  0  0  0  0  0  0  0  0
    1.3766   -1.3498   41.6019 C   0  0  0  0  0  0  0  0  0  0  0  0
    2.6423   -1.6963   42.1387 C   0  0  0  0  0  0  0  0  0  0  0  0
    2.7982   -2.6860   43.1645 C   0  0  0  0  0  0  0  0  0  0  0  0
    3.9994   -2.8900   43.8520 C   0  0  0  0  0  0  0  0  0  0  0  0
    5.0341   -1.8824   43.6370 C   0  0  0  0  0  0  0  0  0  0  0  0
    4.7859   -0.7912   42.8014 C   0  0  0  0  0  0  0  0  0  0  0  0
    3.5473   -0.6600   42.1796 C   0  0  0  0  0  0  0  0  0  0  0  0
    4.2062   -3.9920   44.7248 C   0  0  0  0  0  0  0  0  0  0  0  0
    4.7795   -3.8684   45.9932 C   0  0  0  0  0  0  0  0  0  0  0  0
    4.9565   -4.9708   46.8736 C   0  0  0  0  0  0  0  0  0  0  0  0
    5.5843   -4.8237   48.1143 C   0  0  0  0  0  0  0  0  0  0  0  0
    6.7869   -5.0197   48.2964 C   0  0  0  0  0  0  0  0  0  0  0  0
    7.6618   -4.0293   48.1627 C   0  0  0  0  0  0  0  0  0  0  0  0
    8.8024   -3.9794   48.1072 C   0  0  0  0  0  0  0  0  0  0  0  0
    9.6135   -2.8298   47.6398 C   0  0  0  0  0  0  0  0  0  0  0  0
   10.7984   -2.4517   48.1400 C   0  0  0  0  0  0  0  0  0  0  0  0
   11.5408   -3.3882   48.8467 C   0  0  0  0  0  0  0  0  0  0  0  0
   10.9248   -4.5120   49.2325 C   0  0  0  0  0  0  0  0  0  0  0  0
    9.6253   -4.7582   48.8957 C   0  0  0  0  0  0  0  0  0  0  0  0
    0.5163   -3.5402   41.7255 O   0  0  0  0  0  0  0  0  0  0  0  0
    7.3570   -6.3089   48.5853 C   0  0  0  0  0  0  0  0  0  0  0  0
    6.5070   -7.2031   49.2080 C   0  0  0  0  0  0  0  0  0  0  0  0
    6.7895   -8.4786   49.3340 C   0  0  0  0  0  0  0  0  0  0  0  0
    5.7463   -9.4001   49.8301 C   0  0  0  0  0  0  0  0  0  0  0  0
    4.4653   -8.9203   50.0792 C   0  0  0  0  0  0  0  0  0  0  0  0
    3.4711   -9.8142   50.4954 C   0  0  1  0  0  0  0  0  0  0  0  0
    2.6881   -9.4860   51.6205 C   0  0  0  0  0  0  0  0  0  0  0  0
    2.4679   -9.9886   49.3524 N   0  0  0  0  0  0  0  0  0  0  0  0
    2.8076  -10.0083   48.2240 C   0  0  0  0  0  0  0  0  0  0  0  0
    1.7990   -9.9794   47.1101 C   0  0  0  0  0  0  0  0  0  0  0  0
    1.9960   -9.0582   46.1041 C   0  0  0  0  0  0  0  0  0  0  0  0
    3.1776   -8.2863   45.9919 C   0  0  0  0  0  0  0  0  0  0  0  0
    4.1644   -8.3358   46.9722 C   0  0  0  0  0  0  0  0  0  0  0  0
  1  2  1  0
  2  3  1  0
  3  4  1  0
  6 10  1  0
 10 11  1  0
 11 12  2  3
 12 13  1  0
 13 14  1  0
 14 15  2  3
 15 16  1  0
  2 22  2  0
 14 23  1  0
 23 24  1  0
 24 25  2  3
 25 26  1  0
 26 27  2  3
 27 28  1  0
 28 29  1  1
 28 30  1  0
 30 31  1  0
 31 32  2  3
 32 33  1  0
 33 34  2  3
 34 35  1  0
 16 17  2  0
 17 18  1  0
 18 19  2  0
 19 20  1  0
 20 21  2  0
 21 16  1  0
  4  5  2  0
  5  6  1  0
  6  7  2  0
  7  8  1  0
  8  9  2  0
  9  4  1  0
M  END
$$$$
O14757_PocketFlow_idx-in-all-generaetd-383
     RDKit          3D

 35 36  0  0  0  0  0  0  0  0999 V2000
   -0.6395   -2.0713   41.4947 C   0  0  0  0  0  0  0  0  0  0  0  0
    0.1859   -1.1027   41.5970 C   0  0  0  0  0  0  0  0  0  0  0  0
    0.4133   -0.3094   42.2420 C   0  0  0  0  0  0  0  0  0  0  0  0
   -0.5062   -3.2637   40.8029 C   0  0  0  0  0  0  0  0  0  0  0  0
    0.2440   -4.0170   41.2448 N   0  0  0  0  0  0  0  0  0  0  0  0
    1.7307    0.5280   42.0166 C   0  0  0  0  0  0  0  0  0  0  0  0
    2.9495    0.0838   42.6373 C   0  0  0  0  0  0  0  0  0  0  0  0
    3.7524   -0.6318   42.1485 C   0  0  0  0  0  0  0  0  0  0  0  0
    4.9838   -0.9889   42.9981 C   0  0  0  0  0  0  0  0  0  0  0  0
    4.9211   -0.8339   44.3429 C   0  0  0  0  0  0  0  0  0  0  0  0
    5.0206   -1.9104   45.2144 C   0  0  0  0  0  0  0  0  0  0  0  0
    5.4787   -2.8970   45.0709 C   0  0  0  0  0  0  0  0  0  0  0  0
    5.8303   -3.8658   46.1032 C   0  0  1  0  0  0  0  0  0  0  0  0
    6.7658   -3.5656   47.0648 C   0  0  0  0  0  0  0  0  0  0  0  0
    6.7602   -4.3137   48.1409 C   0  0  0  0  0  0  0  0  0  0  0  0
    7.5176   -3.9681   49.3424 C   0  0  0  0  0  0  0  0  0  0  0  0
    8.6052   -3.1806   49.2003 C   0  0  0  0  0  0  0  0  0  0  0  0
    8.8029   -2.5586   47.9191 C   0  0  0  0  0  0  0  0  0  0  0  0
    7.8938   -2.7254   46.8582 C   0  0  0  0  0  0  0  0  0  0  0  0
    4.8789   -4.9055   46.2755 C   0  0  0  0  0  0  0  0  0  0  0  0
    3.7814   -4.9669   45.5578 N   0  0  0  0  0  0  0  0  0  0  0  0
    3.1045   -6.1288   45.3194 C   0  0  0  0  0  0  0  0  0  0  0  0
    1.7411   -5.9727   44.9972 C   0  0  0  0  0  0  0  0  0  0  0  0
    0.7333   -6.8159   45.4440 C   0  0  0  0  0  0  0  0  0  0  0  0
   -0.6312   -6.5427   44.9682 C   0  0  0  0  0  0  0  0  0  0  0  0
   -1.5882   -7.4610   45.5083 C   0  0  0  0  0  0  0  0  0  0  0  0
   -2.6438   -7.8024   44.7092 C   0  0  0  0  0  0  0  0  0  0  0  0
   -3.6513   -8.7086   45.1427 C   0  0  0  0  0  0  0  0  0  0  0  0
   -3.6232   -9.0953   46.4159 C   0  0  0  0  0  0  0  0  0  0  0  0
   -2.6109   -8.7293   47.2828 C   0  0  0  0  0  0  0  0  0  0  0  0
   -1.5803   -7.8424   46.8236 C   0  0  0  0  0  0  0  0  0  0  0  0
   -4.7316   -9.0935   44.2203 C   0  0  2  0  0  0  0  0  0  0  0  0
   -4.9872   -8.3919   43.1584 N   0  0  0  0  0  0  0  0  0  0  0  0
   -5.8491   -8.7795   42.2210 C   0  0  0  0  0  0  0  0  0  0  0  0
   -5.5920  -10.0880   44.5089 C   0  0  0  0  0  0  0  0  0  0  0  0
  1  2  1  0
  2  3  2  3
  1  4  1  0
  4  5  1  0
  3  6  1  0
  6  7  1  0
  7  8  2  3
  8  9  1  0
  9 10  2  3
 10 11  1  0
 11 12  2  3
 12 13  1  0
 13 20  1  1
 20 21  1  0
 21 22  1  0
 22 23  1  0
 23 24  2  3
 24 25  1  0
 25 26  1  0
 28 32  1  0
 32 33  1  0
 33 34  2  0
 32 35  1  1
 13 14  1  0
 26 27  2  0
 27 28  1  0
 28 29  2  0
 29 30  1  0
 30 31  2  0
 31 26  1  0
 14 15  2  0
 15 16  1  0
 16 17  2  0
 17 18  1  0
 18 19  2  0
 19 14  1  0
M  END
$$$$
O14757_PocketFlow_idx-in-all-generaetd-384
     RDKit          3D

 15 16  0  0  0  0  0  0  0  0999 V2000
    0.2881   -2.9111   42.4378 C   0  0  0  0  0  0  0  0  0  0  0  0
    1.3023   -2.0648   42.1981 C   0  0  0  0  0  0  0  0  0  0  0  0
    2.5313   -2.2887   42.6989 C   0  0  0  0  0  0  0  0  0  0  0  0
    3.5918   -1.3644   42.5325 C   0  0  0  0  0  0  0  0  0  0  0  0
    3.3299   -0.0611   42.1413 C   0  0  0  0  0  0  0  0  0  0  0  0
    0.5929   -4.0815   43.1930 C   0  0  0  0  0  0  0  0  0  0  0  0
    1.7551   -4.1680   43.9291 C   0  0  0  0  0  0  0  0  0  0  0  0
    2.7954   -3.2398   43.7094 C   0  0  0  0  0  0  0  0  0  0  0  0
    2.0550    0.2526   41.5967 C   0  0  0  0  0  0  0  0  0  0  0  0
    0.9903   -0.7081   41.6973 C   0  0  0  0  0  0  0  0  0  0  0  0
    1.9564   -5.3534   44.7982 C   0  0  1  0  0  0  0  0  0  0  0  0
    3.0678   -5.9402   44.9394 N   0  0  0  0  0  0  0  0  0  0  0  0
    0.8157   -5.7855   45.6025 C   0  0  0  0  0  0  0  0  0  0  0  0
    0.4411   -4.9542   46.4349 F   0  0  0  0  0  0  0  0  0  0  0  0
    1.2288   -6.8902   46.3129 F   0  0  0  0  0  0  0  0  0  0  0  0
  7 11  1  0
 11 12  1  1
 11 13  1  0
 13 14  1  0
 13 15  1  0
  1  2  2  0
  3  8  2  0
  8  7  1  0
  7  6  2  0
  6  1  1  0
  2  3  1  0
  3  4  1  0
  4  5  2  0
  5  9  1  0
  9 10  2  0
 10  2  1  0
M  END
$$$$
O14757_PocketFlow_idx-in-all-generaetd-385
     RDKit          3D

 25 27  0  0  0  0  0  0  0  0999 V2000
   -0.6395   -2.0713   41.4947 C   0  0  0  0  0  0  0  0  0  0  0  0
    0.6719   -2.2449   41.7518 C   0  0  0  0  0  0  0  0  0  0  0  0
    1.5951   -1.1948   41.6106 C   0  0  0  0  0  0  0  0  0  0  0  0
    2.9587   -1.3961   42.0240 C   0  0  0  0  0  0  0  0  0  0  0  0
    3.1652   -2.3460   43.1085 C   0  0  0  0  0  0  0  0  0  0  0  0
    2.2115   -3.3199   43.4243 C   0  0  0  0  0  0  0  0  0  0  0  0
    0.9094   -3.1578   42.8194 C   0  0  0  0  0  0  0  0  0  0  0  0
    4.4667   -2.5092   43.7281 C   0  0  0  0  0  0  0  0  0  0  0  0
    4.6673   -3.4570   44.7512 C   0  0  0  0  0  0  0  0  0  0  0  0
    5.8483   -3.3722   45.5023 C   0  0  0  0  0  0  0  0  0  0  0  0
    6.7551   -2.2481   45.3257 C   0  0  0  0  0  0  0  0  0  0  0  0
    6.4133   -1.2933   44.3907 C   0  0  0  0  0  0  0  0  0  0  0  0
    5.2806   -1.3348   43.6696 C   0  0  0  0  0  0  0  0  0  0  0  0
   -1.3154   -1.0223   41.5104 O   0  0  0  0  0  0  0  0  0  0  0  0
   -1.3633   -3.1169   40.8672 O   0  0  0  0  0  0  0  0  0  0  0  0
    8.0906   -2.0815   45.9779 C   0  0  0  0  0  0  0  0  0  0  0  0
    8.6450   -3.1666   46.7458 C   0  0  0  0  0  0  0  0  0  0  0  0
    9.0843   -3.0878   47.6709 C   0  0  0  0  0  0  0  0  0  0  0  0
    9.4112   -4.2247   48.5904 C   0  0  0  0  0  0  0  0  0  0  0  0
    9.1268   -5.4884   48.0974 C   0  0  0  0  0  0  0  0  0  0  0  0
    8.7415   -5.6292   46.7983 C   0  0  0  0  0  0  0  0  0  0  0  0
    8.3384   -4.4784   46.1205 C   0  0  0  0  0  0  0  0  0  0  0  0
    8.8043   -0.8843   45.8877 C   0  0  0  0  0  0  0  0  0  0  0  0
    0.0323   -4.0890   43.1579 O   0  0  0  0  0  0  0  0  0  0  0  0
    1.1308    0.1891   40.5304 Br  0  0  0  0  0  0  0  0  0  0  0  0
  1  2  1  0
  5  8  1  0
  1 14  2  0
  1 15  1  0
 11 16  1  0
 16 17  1  0
 16 23  1  0
  7 24  1  0
  3 25  1  0
 17 18  2  0
 18 19  1  0
 19 20  2  0
 20 21  1  0
 21 22  2  0
 22 17  1  0
  2  3  2  0
  3  4  1  0
  4  5  2  0
  5  6  1  0
  6  7  2  0
  7  2  1  0
  8  9  2  0
  9 10  1  0
 10 11  2  0
 11 12  1  0
 12 13  2  0
 13  8  1  0
M  END
$$$$
O14757_PocketFlow_idx-in-all-generaetd-386
     RDKit          3D

 17 19  0  0  0  0  0  0  0  0999 V2000
   -0.8794   -1.9236   41.9357 O   0  0  0  0  0  0  0  0  0  0  0  0
    0.3070   -1.6014   41.6735 C   0  0  0  0  0  0  0  0  0  0  0  0
    0.8161   -0.2851   41.6101 C   0  0  0  0  0  0  0  0  0  0  0  0
    2.1998   -0.0967   42.0239 C   0  0  0  0  0  0  0  0  0  0  0  0
    3.0418   -1.1900   42.4099 C   0  0  0  0  0  0  0  0  0  0  0  0
    4.3863   -1.0131   42.8122 C   0  0  0  0  0  0  0  0  0  0  0  0
    5.0576   -2.0566   43.3995 C   0  0  0  0  0  0  0  0  0  0  0  0
    4.2938   -3.1870   43.7322 C   0  0  0  0  0  0  0  0  0  0  0  0
    2.9617   -3.3322   43.5102 C   0  0  0  0  0  0  0  0  0  0  0  0
    2.3124   -2.2705   42.9214 C   0  0  0  0  0  0  0  0  0  0  0  0
    1.2742   -2.5067   42.4336 N   0  0  0  0  0  0  0  0  0  0  0  0
    2.1132   -4.2218   44.2523 C   0  0  0  0  0  0  0  0  0  0  0  0
    2.6383   -5.0763   45.2854 C   0  0  0  0  0  0  0  0  0  0  0  0
    1.8266   -6.0623   45.8402 C   0  0  0  0  0  0  0  0  0  0  0  0
    0.4168   -5.9587   45.5923 C   0  0  0  0  0  0  0  0  0  0  0  0
   -0.0186   -5.1176   44.5445 C   0  0  0  0  0  0  0  0  0  0  0  0
    0.8415   -4.2507   43.9514 C   0  0  0  0  0  0  0  0  0  0  0  0
  1  2  2  0
  2  3  1  0
  3  4  1  0
  4  5  1  0
  2 11  1  0
 10 11  1  0
  9 12  1  0
 12 13  2  0
 13 14  1  0
 14 15  2  0
 15 16  1  0
 16 17  2  0
 17 12  1  0
  5  6  2  0
  6  7  1  0
  7  8  2  0
  8  9  1  0
  9 10  2  0
 10  5  1  0
M  END
$$$$
O14757_PocketFlow_idx-in-all-generaetd-387
     RDKit          3D

 24 27  0  0  0  0  0  0  0  0999 V2000
   -0.6395   -2.0713   41.4947 C   0  0  0  0  0  0  0  0  0  0  0  0
   -0.2671   -3.2464   41.6546 C   0  0  0  0  0  0  0  0  0  0  0  0
    0.2277   -0.9875   41.6495 C   0  0  0  0  0  0  0  0  0  0  0  0
    1.6284   -1.2752   41.8841 C   0  0  0  0  0  0  0  0  0  0  0  0
    1.8971   -2.6873   42.1685 C   0  0  0  0  0  0  0  0  0  0  0  0
    0.9380   -3.6379   42.0922 C   0  0  0  0  0  0  0  0  0  0  0  0
    2.5765   -0.2838   42.1328 C   0  0  0  0  0  0  0  0  0  0  0  0
    3.8924   -0.5890   42.5973 C   0  0  0  0  0  0  0  0  0  0  0  0
    4.1685   -1.7287   43.3667 C   0  0  0  0  0  0  0  0  0  0  0  0
    5.2485   -2.0148   44.1221 C   0  0  0  0  0  0  0  0  0  0  0  0
    5.3990   -3.2162   44.8944 C   0  0  0  0  0  0  0  0  0  0  0  0
    4.3471   -4.0983   44.8329 C   0  0  0  0  0  0  0  0  0  0  0  0
    3.2449   -3.8516   44.0681 C   0  0  0  0  0  0  0  0  0  0  0  0
    3.1230   -2.6784   43.4352 C   0  0  0  0  0  0  0  0  0  0  0  0
    4.8599    0.4183   42.5863 N   0  0  0  0  0  0  0  0  0  0  0  0
   -1.8369   -1.7294   40.9916 F   0  0  0  0  0  0  0  0  0  0  0  0
    4.4394   -5.2533   45.5799 N   0  0  0  0  0  0  0  0  0  0  0  0
    4.3118   -5.1315   46.9265 C   0  0  0  0  0  0  0  0  0  0  0  0
    5.6673   -5.0323   47.6682 C   0  0  0  0  0  0  0  0  0  0  0  0
    6.0716   -3.7687   48.0604 C   0  0  0  0  0  0  0  0  0  0  0  0
    7.2629   -3.6657   48.8796 C   0  0  0  0  0  0  0  0  0  0  0  0
    7.8857   -4.8666   49.2871 C   0  0  0  0  0  0  0  0  0  0  0  0
    6.3452   -6.1264   48.1909 C   0  0  0  0  0  0  0  0  0  0  0  0
    7.4026   -6.0632   48.9906 C   0  0  0  0  0  0  0  0  0  0  0  0
  8 15  1  0
  1 16  1  0
 12 17  1  0
 17 18  2  3
 18 19  1  0
  1  2  2  0
  2  6  1  0
  6  5  2  0
  4  3  2  0
  3  1  1  0
  4  5  1  0
  5 14  1  0
  9  8  1  0
  8  7  2  0
  7  4  1  0
  9 10  2  0
 10 11  1  0
 11 12  2  0
 12 13  1  0
 13 14  2  0
 14  9  1  0
 19 20  2  0
 20 21  1  0
 21 22  2  0
 22 24  1  0
 24 23  2  0
 23 19  1  0
M  END
$$$$
O14757_PocketFlow_idx-in-all-generaetd-388
     RDKit          3D

 30 33  0  0  0  0  0  0  0  0999 V2000
    0.2881   -2.9111   42.4378 C   0  0  0  0  0  0  0  0  0  0  0  0
   -0.0650   -2.5021   41.5798 C   0  0  0  0  0  0  0  0  0  0  0  0
    1.5111   -2.4518   43.1047 C   0  0  0  0  0  0  0  0  0  0  0  0
    2.1892   -1.4341   42.4770 C   0  0  0  0  0  0  0  0  0  0  0  0
    3.3839   -0.8722   43.0399 C   0  0  0  0  0  0  0  0  0  0  0  0
    4.0074   -1.6318   44.0733 C   0  0  0  0  0  0  0  0  0  0  0  0
    3.3693   -2.8221   44.5773 C   0  0  0  0  0  0  0  0  0  0  0  0
    2.1795   -3.2914   44.0877 C   0  0  0  0  0  0  0  0  0  0  0  0
    0.4731   -1.2415   40.9718 C   0  0  0  0  0  0  0  0  0  0  0  0
    1.6539   -0.7819   41.4621 C   0  0  0  0  0  0  0  0  0  0  0  0
    4.0633    0.1706   42.5796 N   0  0  0  0  0  0  0  0  0  0  0  0
    1.5617   -4.4467   44.6470 C   0  0  0  0  0  0  0  0  0  0  0  0
    0.6142   -4.3232   45.7337 C   0  0  0  0  0  0  0  0  0  0  0  0
   -0.1153   -5.4542   46.1982 C   0  0  0  0  0  0  0  0  0  0  0  0
    0.1271   -6.6643   45.5362 C   0  0  0  0  0  0  0  0  0  0  0  0
   -0.6962   -7.7602   45.8988 C   0  0  0  0  0  0  0  0  0  0  0  0
    1.6952   -5.7575   44.1749 C   0  0  0  0  0  0  0  0  0  0  0  0
    0.9651   -6.8306   44.5128 C   0  0  0  0  0  0  0  0  0  0  0  0
   -2.0713   -8.0171   45.3260 C   0  0  0  0  0  0  0  0  0  0  0  0
   -2.8735   -9.0039   45.6777 C   0  0  0  0  0  0  0  0  0  0  0  0
   -2.4853   -9.8480   46.7165 C   0  0  0  0  0  0  0  0  0  0  0  0
   -0.3514   -8.6549   47.0088 C   0  0  0  0  0  0  0  0  0  0  0  0
   -1.2180   -9.6623   47.3922 C   0  0  0  0  0  0  0  0  0  0  0  0
    5.3308   -1.2708   44.6292 C   0  0  2  0  0  0  0  0  0  0  0  0
    5.9074   -0.3716   44.0485 F   0  0  0  0  0  0  0  0  0  0  0  0
    5.9724   -1.9394   45.6480 C   0  0  0  0  0  0  0  0  0  0  0  0
    5.3822   -2.8333   46.4682 C   0  0  0  0  0  0  0  0  0  0  0  0
    6.1289   -3.5105   47.4863 C   0  0  0  0  0  0  0  0  0  0  0  0
    7.3910   -3.3598   47.7315 C   0  0  0  0  0  0  0  0  0  0  0  0
    8.1053   -2.5121   46.7240 C   0  0  0  0  0  0  0  0  0  0  0  0
  5 11  1  0
  8 12  1  0
 15 16  1  0
  6 24  1  0
 24 25  1  6
 24 26  1  0
 26 27  2  3
 27 28  1  0
 28 29  2  3
 29 30  1  0
 12 13  2  0
 13 14  1  0
 14 15  2  0
 15 18  1  0
 18 17  2  0
 17 12  1  0
  4  5  2  0
  5  6  1  0
  6  7  2  0
  7  8  1  0
  8  3  2  0
  1  2  2  0
  2  9  1  0
  9 10  2  0
 10  4  1  0
  4  3  1  0
  3  1  1  0
 16 19  2  0
 19 20  1  0
 20 21  2  0
 21 23  1  0
 23 22  2  0
 22 16  1  0
M  END
$$$$
O14757_PocketFlow_idx-in-all-generaetd-389
     RDKit          3D

 33 37  0  0  0  0  0  0  0  0999 V2000
   -0.6395   -2.0713   41.4947 C   0  0  0  0  0  0  0  0  0  0  0  0
   -0.2671   -3.2464   41.6546 C   0  0  0  0  0  0  0  0  0  0  0  0
    0.2277   -0.9875   41.6495 C   0  0  0  0  0  0  0  0  0  0  0  0
    1.6284   -1.2752   41.8841 C   0  0  0  0  0  0  0  0  0  0  0  0
    1.9209   -2.6657   42.2361 C   0  0  0  0  0  0  0  0  0  0  0  0
    0.9459   -3.6290   42.1337 C   0  0  0  0  0  0  0  0  0  0  0  0
    2.5663   -0.2443   42.1477 C   0  0  0  0  0  0  0  0  0  0  0  0
    3.9004   -0.5388   42.5613 C   0  0  0  0  0  0  0  0  0  0  0  0
    4.8726    0.4822   42.8152 C   0  0  0  0  0  0  0  0  0  0  0  0
   -2.0652   -1.7600   41.0612 C   0  0  0  0  0  0  0  0  0  0  0  0
   -2.8132   -2.6920   40.5335 N   0  0  0  0  0  0  0  0  0  0  0  0
   -2.5893   -0.5280   41.2523 N   0  0  0  0  0  0  0  0  0  0  0  0
   -3.8005   -0.1411   40.8005 C   0  0  0  0  0  0  0  0  0  0  0  0
   -4.0460   -2.3886   40.1246 C   0  0  0  0  0  0  0  0  0  0  0  0
   -4.5285   -1.1506   40.1787 N   0  0  0  0  0  0  0  0  0  0  0  0
    4.2794   -1.8645   42.8811 C   0  0  0  0  0  0  0  0  0  0  0  0
    3.2495   -2.8619   42.7964 C   0  0  0  0  0  0  0  0  0  0  0  0
   -4.1337    1.0919   40.9335 N   0  0  0  0  0  0  0  0  0  0  0  0
    5.4480    0.5244   43.8606 O   0  0  0  0  0  0  0  0  0  0  0  0
    5.3509   -2.1984   43.4320 O   0  0  0  0  0  0  0  0  0  0  0  0
    5.5016   -2.3149   44.8431 C   0  0  0  0  0  0  0  0  0  0  0  0
    4.7020   -3.1686   45.4964 C   0  0  0  0  0  0  0  0  0  0  0  0
    5.0112   -3.5204   46.8556 C   0  0  0  0  0  0  0  0  0  0  0  0
    6.3661   -3.5932   47.3042 C   0  0  0  0  0  0  0  0  0  0  0  0
    7.3175   -2.8080   46.5750 C   0  0  0  0  0  0  0  0  0  0  0  0
    6.9582   -2.3024   45.2784 C   0  0  0  0  0  0  0  0  0  0  0  0
    8.6658   -2.6974   47.0344 C   0  0  0  0  0  0  0  0  0  0  0  0
    9.4725   -1.6798   46.7594 C   0  0  0  0  0  0  0  0  0  0  0  0
   10.8252   -1.6160   47.1814 C   0  0  0  0  0  0  0  0  0  0  0  0
   11.3575   -2.6140   47.9248 C   0  0  0  0  0  0  0  0  0  0  0  0
    9.2532   -3.8036   47.7835 C   0  0  0  0  0  0  0  0  0  0  0  0
   10.5880   -3.7581   48.2166 C   0  0  0  0  0  0  0  0  0  0  0  0
    6.5769   -4.0174   48.4978 F   0  0  0  0  0  0  0  0  0  0  0  0
  8  9  1  0
  1 10  1  0
 13 18  1  0
  9 19  1  0
 16 20  1  0
 20 21  1  0
 25 27  1  0
 24 33  1  0
  5 17  1  0
 17 16  2  0
 16  8  1  0
  8  7  2  0
  7  4  1  0
 10 11  2  0
 11 14  1  0
 14 15  2  0
 15 13  1  0
 13 12  2  0
 12 10  1  0
  1  2  2  0
  2  6  1  0
  6  5  2  0
  5  4  1  0
  4  3  2  0
  3  1  1  0
 27 28  2  0
 28 29  1  0
 29 30  2  0
 30 32  1  0
 32 31  2  0
 31 27  1  0
 21 22  2  0
 22 23  1  0
 23 24  2  0
 24 25  1  0
 25 26  2  0
 26 21  1  0
M  END
$$$$
O14757_PocketFlow_idx-in-all-generaetd-390
     RDKit          3D

 15 16  0  0  0  0  0  0  0  0999 V2000
   -0.6395   -2.0713   41.4947 C   0  0  0  0  0  0  0  0  0  0  0  0
   -0.2671   -3.2464   41.6546 C   0  0  0  0  0  0  0  0  0  0  0  0
   -1.9911   -1.6663   41.2869 C   0  0  0  0  0  0  0  0  0  0  0  0
   -2.8197   -2.6218   40.7055 C   0  0  0  0  0  0  0  0  0  0  0  0
    1.0882   -3.6261   41.9223 C   0  0  0  0  0  0  0  0  0  0  0  0
    1.9507   -2.5381   42.2089 C   0  0  0  0  0  0  0  0  0  0  0  0
    1.4880   -1.2272   42.1560 C   0  0  0  0  0  0  0  0  0  0  0  0
    0.1721   -0.9457   41.8050 C   0  0  0  0  0  0  0  0  0  0  0  0
    2.4862   -0.1031   42.3292 C   0  0  0  0  0  0  0  0  0  0  0  0
    3.7943   -0.3595   42.7846 C   0  0  0  0  0  0  0  0  0  0  0  0
    4.8049    0.6104   42.8349 C   0  0  0  0  0  0  0  0  0  0  0  0
   -4.0957   -2.1731   40.2204 C   0  0  0  0  0  0  0  0  0  0  0  0
   -4.0907   -0.8239   39.8515 C   0  0  0  0  0  0  0  0  0  0  0  0
   -3.4517    0.1286   40.5825 C   0  0  0  0  0  0  0  0  0  0  0  0
   -2.2742   -0.2907   41.2009 C   0  0  0  0  0  0  0  0  0  0  0  0
  1  3  1  0
  7  9  1  0
  9 10  2  3
 10 11  1  0
  3  4  2  0
  4 12  1  0
 12 13  2  0
 13 14  1  0
 14 15  2  0
 15  3  1  0
  1  2  2  0
  2  5  1  0
  5  6  2  0
  6  7  1  0
  7  8  2  0
  8  1  1  0
M  END
$$$$
O14757_PocketFlow_idx-in-all-generaetd-391
     RDKit          3D

 35 37  0  0  0  0  0  0  0  0999 V2000
   -0.6395   -2.0713   41.4947 C   0  0  0  0  0  0  0  0  0  0  0  0
    0.6719   -2.2449   41.7518 C   0  0  0  0  0  0  0  0  0  0  0  0
    1.3815   -1.6359   42.7231 C   0  0  0  0  0  0  0  0  0  0  0  0
    2.6262   -2.3088   43.1218 C   0  0  0  0  0  0  0  0  0  0  0  0
    2.5508   -3.5603   43.9111 C   0  0  0  0  0  0  0  0  0  0  0  0
    3.6969   -4.0966   44.5005 C   0  0  0  0  0  0  0  0  0  0  0  0
   -1.3792   -3.0096   40.7815 C   0  0  0  0  0  0  0  0  0  0  0  0
    4.9224   -3.3769   44.4450 C   0  0  0  0  0  0  0  0  0  0  0  0
    4.9779   -2.1356   43.7929 C   0  0  0  0  0  0  0  0  0  0  0  0
    3.8175   -1.6008   43.1893 C   0  0  0  0  0  0  0  0  0  0  0  0
    3.6024   -5.3718   45.1604 C   0  0  0  0  0  0  0  0  0  0  0  0
    2.9120   -5.4811   46.0233 O   0  0  0  0  0  0  0  0  0  0  0  0
   -2.6724   -2.6834   40.6445 N   0  0  0  0  0  0  0  0  0  0  0  0
    3.8256   -0.3782   42.6152 N   0  0  0  0  0  0  0  0  0  0  0  0
   -3.0561   -1.4269   40.7116 C   0  0  0  0  0  0  0  0  0  0  0  0
   -2.3704   -0.4447   41.2166 N   0  0  0  0  0  0  0  0  0  0  0  0
   -1.1178   -0.7086   41.5505 C   0  0  0  0  0  0  0  0  0  0  0  0
   -4.3647   -1.1588   40.3199 N   0  0  0  0  0  0  0  0  0  0  0  0
    5.1225    0.1674   42.4097 C   0  0  0  0  0  0  0  0  0  0  0  0
    1.5481   -5.4745   45.7087 C   0  0  0  0  0  0  0  0  0  0  0  0
    0.7734   -6.5848   45.9548 C   0  0  0  0  0  0  0  0  0  0  0  0
   -0.5842   -6.5160   45.5251 C   0  0  0  0  0  0  0  0  0  0  0  0
   -1.5729   -7.2443   46.2056 C   0  0  0  0  0  0  0  0  0  0  0  0
   -1.5154   -8.6949   45.9212 C   0  0  0  0  0  0  0  0  0  0  0  0
   -2.4276   -9.4361   46.8062 C   0  0  2  0  0  0  0  0  0  0  0  0
   -3.5405   -8.7467   47.1326 C   0  0  0  0  0  0  0  0  0  0  0  0
   -1.6285   -9.8280   48.0782 C   0  0  1  0  0  0  0  0  0  0  0  0
   -2.2023  -10.7877   48.8736 C   0  0  0  0  0  0  0  0  0  0  0  0
   -3.9381   -8.4332   48.2138 O   0  0  0  0  0  0  0  0  0  0  0  0
   -4.5557   -8.9067   46.2518 O   0  0  0  0  0  0  0  0  0  0  0  0
   -1.5329  -11.9890   48.7551 C   0  0  0  0  0  0  0  0  0  0  0  0
   -0.2714  -11.7844   48.3719 C   0  0  1  0  0  0  0  0  0  0  0  0
   -0.2483  -10.3638   47.9186 C   0  0  0  0  0  0  0  0  0  0  0  0
    0.8618  -11.9223   49.3776 C   0  0  0  0  0  0  0  0  0  0  0  0
    1.1392  -10.9230   50.2143 C   0  0  0  0  0  0  0  0  0  0  0  0
  1  2  1  0
  2  3  1  0
  3  4  1  0
  6 11  1  0
 11 12  1  0
 10 14  1  0
 15 18  1  0
 14 19  1  0
 12 20  1  0
 20 21  1  0
 21 22  1  0
 22 23  1  0
 23 24  1  0
 25 24  1  6
 25 26  1  0
 25 27  1  0
 27 28  1  6
 26 29  2  0
 26 30  1  0
 28 31  1  0
 31 32  1  0
 27 33  1  0
 32 33  1  0
 32 34  1  1
 34 35  1  0
  1  7  2  0
  7 13  1  0
 13 15  2  0
 15 16  1  0
 16 17  2  0
 17  1  1  0
  4  5  2  0
  5  6  1  0
  6  8  2  0
  8  9  1  0
  9 10  2  0
 10  4  1  0
M  END
$$$$
O14757_PocketFlow_idx-in-all-generaetd-392
     RDKit          3D

 35 39  0  0  0  0  0  0  0  0999 V2000
   -0.6395   -2.0713   41.4947 C   0  0  0  0  0  0  0  0  0  0  0  0
   -0.2671   -3.2464   41.6546 C   0  0  0  0  0  0  0  0  0  0  0  0
    0.2277   -0.9875   41.6495 C   0  0  0  0  0  0  0  0  0  0  0  0
    1.6284   -1.2752   41.8841 C   0  0  0  0  0  0  0  0  0  0  0  0
    2.6421   -0.3335   42.0825 C   0  0  0  0  0  0  0  0  0  0  0  0
    3.8980   -0.6935   42.5215 C   0  0  0  0  0  0  0  0  0  0  0  0
    4.0599   -1.4029   43.5550 C   0  0  0  0  0  0  0  0  0  0  0  0
    3.1132   -2.5603   43.7000 C   0  0  0  0  0  0  0  0  0  0  0  0
    3.2296   -3.6116   44.5439 C   0  0  0  0  0  0  0  0  0  0  0  0
    1.8420   -2.4517   42.9021 C   0  0  0  0  0  0  0  0  0  0  0  0
    0.9456   -3.5462   42.6060 C   0  0  0  0  0  0  0  0  0  0  0  0
    2.5873   -4.7803   44.7276 C   0  0  0  0  0  0  0  0  0  0  0  0
    4.3101   -3.3855   45.5329 C   0  0  0  0  0  0  0  0  0  0  0  0
    5.1297   -2.3640   45.6540 C   0  0  0  0  0  0  0  0  0  0  0  0
    5.1523   -1.4491   44.5375 C   0  0  0  0  0  0  0  0  0  0  0  0
    1.3709   -4.8382   45.3967 C   0  0  0  0  0  0  0  0  0  0  0  0
    0.5899   -5.9977   45.6055 C   0  0  0  0  0  0  0  0  0  0  0  0
   -0.5133   -6.0516   46.3649 C   0  0  0  0  0  0  0  0  0  0  0  0
   -1.2796   -7.2106   46.4212 C   0  0  0  0  0  0  0  0  0  0  0  0
   -1.2706   -8.0101   45.2478 C   0  0  0  0  0  0  0  0  0  0  0  0
   -0.3264   -7.7650   44.2718 C   0  0  0  0  0  0  0  0  0  0  0  0
    0.5096   -6.6605   44.3653 C   0  0  0  0  0  0  0  0  0  0  0  0
    4.6187    0.6203   42.8071 F   0  0  0  0  0  0  0  0  0  0  0  0
   -2.0437   -1.7565   41.2371 C   0  0  0  0  0  0  0  0  0  0  0  0
   -2.8131   -2.6709   40.7987 O   0  0  0  0  0  0  0  0  0  0  0  0
   -2.5181   -0.5660   41.4198 O   0  0  0  0  0  0  0  0  0  0  0  0
    4.4827   -4.6045   46.8337 Cl  0  0  0  0  0  0  0  0  0  0  0  0
   -2.2331   -7.3641   47.3635 O   0  0  0  0  0  0  0  0  0  0  0  0
   -3.1328   -8.3829   47.3101 C   0  0  0  0  0  0  0  0  0  0  0  0
   -3.8151   -8.6015   46.2503 C   0  0  0  0  0  0  0  0  0  0  0  0
   -4.0931   -7.7330   45.2969 C   0  0  0  0  0  0  0  0  0  0  0  0
   -4.9779   -7.8891   44.2190 C   0  0  0  0  0  0  0  0  0  0  0  0
   -5.4904   -9.0968   43.9817 C   0  0  0  0  0  0  0  0  0  0  0  0
   -5.2576  -10.1562   44.8835 C   0  0  0  0  0  0  0  0  0  0  0  0
   -4.5117   -9.9002   46.0271 C   0  0  0  0  0  0  0  0  0  0  0  0
 12 16  1  0
 16 17  1  0
  6 23  1  0
  1 24  1  0
 24 25  2  0
 24 26  1  0
 13 27  1  0
 19 28  1  0
 28 29  1  0
 29 30  1  0
 12  9  1  0
  1  2  2  0
  2 11  1  0
 11 10  2  0
  4  3  2  0
  3  1  1  0
 17 18  2  0
 18 19  1  0
 19 20  2  0
 20 21  1  0
 21 22  2  0
 22 17  1  0
 30 31  2  0
 31 32  1  0
 32 33  2  0
 33 34  1  0
 34 35  2  0
 35 30  1  0
  8  9  2  0
  9 13  1  0
 13 14  2  0
 14 15  1  0
 15  7  2  0
  4  5  1  0
  5  6  2  0
  6  7  1  0
  7  8  1  0
  8 10  1  0
 10  4  1  0
M  END
$$$$
O14757_PocketFlow_idx-in-all-generaetd-393
     RDKit          3D

 35 40  0  0  0  0  0  0  0  0999 V2000
   -0.6395   -2.0713   41.4947 C   0  0  0  0  0  0  0  0  0  0  0  0
    0.1859   -1.1027   41.5970 C   0  0  0  0  0  0  0  0  0  0  0  0
    1.5858   -1.4431   41.9548 C   0  0  0  0  0  0  0  0  0  0  0  0
   -0.3290   -3.4217   41.4987 C   0  0  0  0  0  0  0  0  0  0  0  0
    1.8734   -2.7956   42.1741 C   0  0  0  0  0  0  0  0  0  0  0  0
    0.8724   -3.7449   42.0341 C   0  0  0  0  0  0  0  0  0  0  0  0
    2.6019   -0.4572   42.2191 C   0  0  0  0  0  0  0  0  0  0  0  0
    3.8719   -0.7666   42.7314 C   0  0  0  0  0  0  0  0  0  0  0  0
    4.1944   -2.0040   43.2736 C   0  0  0  0  0  0  0  0  0  0  0  0
    3.0863   -3.0363   42.9971 C   0  0  0  0  0  0  0  0  0  0  0  0
    4.8582    0.1588   42.9392 N   0  0  0  0  0  0  0  0  0  0  0  0
   -1.9856   -1.5743   40.9432 C   0  0  0  0  0  0  0  0  0  0  0  0
   -2.4226   -0.5036   41.1935 O   0  0  0  0  0  0  0  0  0  0  0  0
   -2.7932   -2.5118   40.4750 O   0  0  0  0  0  0  0  0  0  0  0  0
    5.3097   -2.3366   43.9672 C   0  0  0  0  0  0  0  0  0  0  0  0
    6.1560   -1.3447   44.5312 C   0  0  0  0  0  0  0  0  0  0  0  0
    5.9347   -0.0604   43.7651 C   0  0  0  0  0  0  0  0  0  0  0  0
    7.1138   -1.6658   45.3559 C   0  0  0  0  0  0  0  0  0  0  0  0
    7.2337   -2.8448   46.0985 C   0  0  0  0  0  0  0  0  0  0  0  0
    6.2682   -3.8490   46.1810 C   0  0  0  0  0  0  0  0  0  0  0  0
    6.3213   -4.7093   47.3217 C   0  0  0  0  0  0  0  0  0  0  0  0
    5.1158   -5.3841   47.7510 C   0  0  0  0  0  0  0  0  0  0  0  0
    4.1819   -5.3245   46.8046 C   0  0  0  0  0  0  0  0  0  0  0  0
    4.0649   -4.5680   45.6866 C   0  0  0  0  0  0  0  0  0  0  0  0
    5.1862   -3.7461   45.4223 C   0  0  0  0  0  0  0  0  0  0  0  0
    5.1917   -3.3326   44.2834 O   0  0  0  0  0  0  0  0  0  0  0  0
    7.4261   -4.5977   48.3525 C   0  0  0  0  0  0  0  0  0  0  0  0
    7.2492   -4.0355   49.4907 N   0  0  0  0  0  0  0  0  0  0  0  0
    8.2427   -3.5379   50.2987 C   0  0  0  0  0  0  0  0  0  0  0  0
    9.1320   -4.0154   50.6956 C   0  0  0  0  0  0  0  0  0  0  0  0
    8.6894   -5.1500   47.9797 C   0  0  0  0  0  0  0  0  0  0  0  0
   10.0827   -4.8248   49.8810 C   0  0  0  0  0  0  0  0  0  0  0  0
    9.6432   -5.1819   48.6070 C   0  0  1  0  0  0  0  0  0  0  0  0
    7.4916   -2.7055   51.2402 O   0  0  0  0  0  0  0  0  0  0  0  0
   10.8508   -6.0304   47.9369 C   0  0  0  0  0  0  0  0  0  0  0  0
  3  7  1  0
  7  8  1  0
  5 10  1  0
  9 10  1  0
  1 12  1  0
 12 13  2  0
 12 14  1  0
 16 18  1  0
 18 19  2  0
 19 20  1  0
 15 26  1  0
 25 26  1  0
 21 27  1  0
 27 28  1  0
 28 29  1  0
 29 30  2  0
 27 31  1  0
 30 32  1  0
 31 33  1  0
 32 33  1  0
 29 34  1  0
 33 35  1  1
  8  9  2  0
  9 15  1  0
 15 16  2  0
 16 17  1  0
 17 11  2  0
 11  8  1  0
  1  2  2  0
  2  3  1  0
  3  5  2  0
  5  6  1  0
  6  4  2  0
  4  1  1  0
 20 21  2  0
 21 22  1  0
 22 23  2  0
 23 24  1  0
 24 25  2  0
 25 20  1  0
M  END
$$$$
O14757_PocketFlow_idx-in-all-generaetd-394
     RDKit          3D

 35 37  0  0  0  0  0  0  0  0999 V2000
   -0.6395   -2.0713   41.4947 C   0  0  0  0  0  0  0  0  0  0  0  0
   -0.2671   -3.2464   41.6546 C   0  0  0  0  0  0  0  0  0  0  0  0
    0.2407   -0.9706   41.5952 C   0  0  0  0  0  0  0  0  0  0  0  0
    1.6195   -1.2958   41.8767 C   0  0  0  0  0  0  0  0  0  0  0  0
    2.6583   -0.3517   42.0703 C   0  0  0  0  0  0  0  0  0  0  0  0
    2.5631    0.9413   42.1730 C   0  0  0  0  0  0  0  0  0  0  0  0
    1.0554   -3.6946   41.9568 C   0  0  0  0  0  0  0  0  0  0  0  0
    1.9591   -2.6323   42.1018 C   0  0  0  0  0  0  0  0  0  0  0  0
    4.0076   -0.9335   42.2683 C   0  0  0  0  0  0  0  0  0  0  0  0
    5.0718   -0.0723   42.7141 C   0  0  0  0  0  0  0  0  0  0  0  0
   -2.0671   -1.7019   41.1877 C   0  0  0  0  0  0  0  0  0  0  0  0
   -2.5280   -0.5698   41.4744 O   0  0  0  0  0  0  0  0  0  0  0  0
   -2.8251   -2.6075   40.7580 O   0  0  0  0  0  0  0  0  0  0  0  0
    6.1307   -0.8072   43.3721 C   0  0  0  0  0  0  0  0  0  0  0  0
    5.7143   -1.9701   44.2891 C   0  0  0  0  0  0  0  0  0  0  0  0
    6.4534   -2.3075   45.4410 C   0  0  0  0  0  0  0  0  0  0  0  0
    5.9986   -3.4458   46.1400 C   0  0  0  0  0  0  0  0  0  0  0  0
    4.7065   -3.9425   45.8471 C   0  0  0  0  0  0  0  0  0  0  0  0
    4.2155   -5.0023   46.5966 C   0  0  0  0  0  0  0  0  0  0  0  0
    4.5265   -2.7325   44.2885 C   0  0  0  0  0  0  0  0  0  0  0  0
    3.9849   -3.5414   44.8825 C   0  0  0  0  0  0  0  0  0  0  0  0
    3.1596   -5.6666   46.3077 N   0  0  0  0  0  0  0  0  0  0  0  0
    4.9364   -5.4108   47.6947 O   0  0  0  0  0  0  0  0  0  0  0  0
    2.3555   -5.3374   45.2133 C   0  0  2  0  0  0  0  0  0  0  0  0
    2.7393   -4.1938   44.4999 C   0  0  0  0  0  0  0  0  0  0  0  0
    1.1476   -6.0480   45.0439 C   0  0  0  0  0  0  0  0  0  0  0  0
    0.0518   -5.5217   45.1858 O   0  0  0  0  0  0  0  0  0  0  0  0
    1.2104   -7.2564   44.6340 O   0  0  0  0  0  0  0  0  0  0  0  0
    7.8064   -1.7379   45.7218 C   0  0  1  0  0  0  0  0  0  0  0  0
    7.9654   -0.4696   45.9974 C   0  0  0  0  0  0  0  0  0  0  0  0
    8.7660   -2.7694   46.0248 C   0  0  0  0  0  0  0  0  0  0  0  0
    9.4325   -2.7858   47.2856 C   0  0  0  0  0  0  0  0  0  0  0  0
   10.1304   -3.6178   47.5059 C   0  0  0  0  0  0  0  0  0  0  0  0
   10.2635   -4.8700   46.7283 C   0  0  0  0  0  0  0  0  0  0  0  0
   11.2200   -5.8717   46.9792 C   0  0  0  0  0  0  0  0  0  0  0  0
  4  5  1  0
  5  6  2  0
  5  9  1  0
  9 10  1  0
  1 11  1  0
 11 12  2  0
 11 13  1  0
 10 14  1  0
 14 15  1  0
 18 19  1  0
 19 22  1  0
 19 23  2  0
 22 24  1  0
 21 25  1  0
 24 26  1  1
 26 27  1  0
 26 28  2  0
 16 29  1  0
 29 30  1  1
 29 31  1  0
 31 32  1  0
 32 33  2  3
 33 34  1  0
 34 35  1  0
 25 24  1  0
 15 16  2  0
 16 17  1  0
 17 18  2  0
 18 21  1  0
 21 20  2  0
 20 15  1  0
  1  2  2  0
  2  7  1  0
  7  8  2  0
  8  4  1  0
  4  3  2  0
  3  1  1  0
M  END
$$$$
O14757_PocketFlow_idx-in-all-generaetd-395
     RDKit          3D

  7  6  0  0  0  0  0  0  0  0999 V2000
    0.2881   -2.9111   42.4378 C   0  0  0  0  0  0  0  0  0  0  0  0
    1.3023   -2.0648   42.1981 C   0  0  0  0  0  0  0  0  0  0  0  0
    0.9971   -0.8647   41.5341 C   0  0  0  0  0  0  0  0  0  0  0  0
    0.6174   -4.1995   43.0267 C   0  0  0  0  0  0  0  0  0  0  0  0
   -0.3204   -5.1669   43.3478 C   0  0  0  0  0  0  0  0  0  0  0  0
    0.4037   -6.4720   43.4430 C   0  0  0  0  0  0  0  0  0  0  0  0
    2.0429   -0.0052   41.4260 N   0  0  0  0  0  0  0  0  0  0  0  0
  1  2  1  0
  2  3  2  3
  1  4  1  0
  4  5  1  0
  5  6  1  0
  3  7  1  0
M  END
$$$$
O14757_PocketFlow_idx-in-all-generaetd-396
     RDKit          3D

 13 12  0  0  0  0  0  0  0  0999 V2000
   -0.8794   -1.9236   41.9357 O   0  0  0  0  0  0  0  0  0  0  0  0
    0.3070   -1.6014   41.6735 C   0  0  2  0  0  0  0  0  0  0  0  0
    1.2548   -2.6723   41.5755 C   0  0  0  0  0  0  0  0  0  0  0  0
    0.4951   -3.8444   41.7629 C   0  0  0  0  0  0  0  0  0  0  0  0
   -0.0911   -4.2252   43.1202 C   0  0  0  0  0  0  0  0  0  0  0  0
    0.7582   -5.3888   43.6107 C   0  0  0  0  0  0  0  0  0  0  0  0
    0.7552   -0.3720   41.6077 N   0  0  0  0  0  0  0  0  0  0  0  0
    1.8862   -5.0821   44.4962 C   0  0  0  0  0  0  0  0  0  0  0  0
    2.6248   -6.1545   44.9917 C   0  0  0  0  0  0  0  0  0  0  0  0
    3.8378   -5.8502   45.5199 N   0  0  0  0  0  0  0  0  0  0  0  0
    4.1260   -4.5857   45.9433 C   0  0  0  0  0  0  0  0  0  0  0  0
    3.3698   -3.5145   45.4461 C   0  0  0  0  0  0  0  0  0  0  0  0
    2.2386   -3.7900   44.7580 C   0  0  0  0  0  0  0  0  0  0  0  0
  1  2  1  0
  2  3  1  0
  3  4  1  0
  4  5  1  0
  5  6  1  0
  2  7  1  1
  6  8  2  3
  8  9  1  0
  9 10  1  0
 10 11  2  3
 11 12  1  0
 12 13  1  0
M  END
$$$$
O14757_PocketFlow_idx-in-all-generaetd-397
     RDKit          3D

 35 38  0  0  0  0  0  0  0  0999 V2000
   -0.6395   -2.0713   41.4947 C   0  0  0  0  0  0  0  0  0  0  0  0
   -0.2671   -3.2464   41.6546 C   0  0  0  0  0  0  0  0  0  0  0  0
   -2.0053   -1.6706   41.3987 C   0  0  0  0  0  0  0  0  0  0  0  0
   -2.8330   -2.6263   40.7760 C   0  0  0  0  0  0  0  0  0  0  0  0
    1.1099   -3.6129   41.9114 C   0  0  0  0  0  0  0  0  0  0  0  0
    1.9434   -2.5225   42.1864 C   0  0  0  0  0  0  0  0  0  0  0  0
    1.4810   -1.1988   42.1414 C   0  0  0  0  0  0  0  0  0  0  0  0
    2.3811   -0.1092   42.3331 C   0  0  0  0  0  0  0  0  0  0  0  0
    0.1987   -0.9402   41.8399 C   0  0  0  0  0  0  0  0  0  0  0  0
    3.7762   -0.4119   42.7068 C   0  0  0  0  0  0  0  0  0  0  0  0
    4.7771    0.5738   42.9375 C   0  0  0  0  0  0  0  0  0  0  0  0
    6.0431   -0.1035   43.3526 C   0  0  0  0  0  0  0  0  0  0  0  0
    6.0102   -1.3940   43.9307 C   0  0  2  0  0  0  0  0  0  0  0  0
    4.1728   -1.6838   43.3515 C   0  0  1  0  0  0  0  0  0  0  0  0
    3.9292   -2.4711   44.1446 C   0  0  0  0  0  0  0  0  0  0  0  0
    4.8387   -3.1970   44.9892 C   0  0  0  0  0  0  0  0  0  0  0  0
    4.5381   -4.1494   45.9524 C   0  0  2  0  0  0  0  0  0  0  0  0
    6.0815   -2.3785   44.9419 C   0  0  0  0  0  0  0  0  0  0  0  0
    5.3570   -4.2788   47.1294 C   0  0  0  0  0  0  0  0  0  0  0  0
    3.5521   -5.1211   45.7016 C   0  0  0  0  0  0  0  0  0  0  0  0
    2.2152   -4.8400   45.5735 C   0  0  0  0  0  0  0  0  0  0  0  0
    1.1991   -5.7780   45.4325 C   0  0  2  0  0  0  0  0  0  0  0  0
   -0.1503   -5.3974   45.2773 C   0  0  0  0  0  0  0  0  0  0  0  0
    5.7847   -5.4846   47.7958 C   0  0  0  0  0  0  0  0  0  0  0  0
    6.3893   -5.4418   49.0634 C   0  0  0  0  0  0  0  0  0  0  0  0
    7.5052   -5.1571   49.0793 C   0  0  0  0  0  0  0  0  0  0  0  0
    8.1949   -4.6703   50.3700 C   0  0  0  0  0  0  0  0  0  0  0  0
   -1.0492   -6.2253   46.0499 C   0  0  0  0  0  0  0  0  0  0  0  0
   -1.2399   -7.5410   45.6511 C   0  0  1  0  0  0  0  0  0  0  0  0
    0.2580   -8.0660   45.6389 C   0  0  0  0  0  0  0  0  0  0  0  0
    1.3602   -7.2157   45.6203 C   0  0  0  0  0  0  0  0  0  0  0  0
   -2.2760   -8.2617   45.4515 C   0  0  0  0  0  0  0  0  0  0  0  0
   -2.3898   -8.4976   44.1021 F   0  0  0  0  0  0  0  0  0  0  0  0
   -2.2060   -9.5260   45.9649 F   0  0  0  0  0  0  0  0  0  0  0  0
   -3.4204   -7.7405   45.8372 F   0  0  0  0  0  0  0  0  0  0  0  0
  3  4  1  0
  7  8  1  0
  8 10  2  3
 10 11  1  0
 11 12  2  0
 12 13  1  0
 10 14  1  0
 13 14  1  0
 14 15  1  1
 15 16  2  0
 17 16  1  6
 13 18  1  1
 16 18  1  0
 17 19  1  0
 17 20  1  0
 20 21  2  3
 21 22  1  0
 22 23  1  1
 19 24  2  3
 24 25  1  0
 25 26  2  3
 26 27  1  0
 23 28  1  0
 28 29  1  0
 29 30  1  0
 22 31  1  0
 30 31  1  0
 29 32  1  1
 32 33  1  0
 32 34  1  0
 32 35  1  0
  3  1  1  0
  1  2  2  0
  2  5  1  0
  5  6  2  0
  6  7  1  0
  7  9  2  0
  9  1  1  0
M  END
$$$$
O14757_PocketFlow_idx-in-all-generaetd-398
     RDKit          3D

 18 20  0  0  0  0  0  0  0  0999 V2000
    0.2881   -2.9111   42.4378 C   0  0  0  0  0  0  0  0  0  0  0  0
   -0.0650   -2.5021   41.5798 C   0  0  0  0  0  0  0  0  0  0  0  0
    1.5584   -2.5265   43.0885 C   0  0  0  0  0  0  0  0  0  0  0  0
    2.2571   -1.5118   42.4661 C   0  0  0  0  0  0  0  0  0  0  0  0
    3.4613   -0.9848   43.0009 C   0  0  0  0  0  0  0  0  0  0  0  0
    4.0748    0.1381   42.4172 C   0  0  0  0  0  0  0  0  0  0  0  0
    0.4771   -1.3279   40.9323 C   0  0  0  0  0  0  0  0  0  0  0  0
    1.6783   -0.7963   41.4570 C   0  0  0  0  0  0  0  0  0  0  0  0
    4.2756   -1.7861   43.9411 C   0  0  0  0  0  0  0  0  0  0  0  0
    5.3354   -1.2577   44.6061 C   0  0  0  0  0  0  0  0  0  0  0  0
    5.8485   -2.0865   45.6854 C   0  0  0  0  0  0  0  0  0  0  0  0
    5.3640   -3.2418   45.7913 C   0  0  0  0  0  0  0  0  0  0  0  0
    4.2723   -3.7986   45.1884 C   0  0  0  0  0  0  0  0  0  0  0  0
    3.7111   -3.0140   44.2544 C   0  0  0  0  0  0  0  0  0  0  0  0
    2.4007   -3.4358   43.7549 C   0  0  0  0  0  0  0  0  0  0  0  0
    6.0419   -4.1680   46.9687 C   0  0  0  0  0  0  0  0  0  0  0  0
    7.1937   -4.0740   47.2142 O   0  0  0  0  0  0  0  0  0  0  0  0
    5.3049   -5.0454   47.5956 O   0  0  0  0  0  0  0  0  0  0  0  0
  5  6  1  0
 12 16  1  0
 16 17  2  0
 16 18  1  0
  4  5  2  0
  5  9  1  0
 14 15  1  0
 15  3  2  0
  9 10  2  0
 10 11  1  0
 11 12  2  0
 12 13  1  0
 13 14  2  0
 14  9  1  0
  1  2  2  0
  2  7  1  0
  7  8  2  0
  8  4  1  0
  4  3  1  0
  3  1  1  0
M  END
$$$$
O14757_PocketFlow_idx-in-all-generaetd-399
     RDKit          3D

 35 38  0  0  0  0  0  0  0  0999 V2000
   -0.6395   -2.0713   41.4947 C   0  0  0  0  0  0  0  0  0  0  0  0
    0.6719   -2.2449   41.7518 C   0  0  0  0  0  0  0  0  0  0  0  0
    1.5951   -1.1948   41.6106 C   0  0  0  0  0  0  0  0  0  0  0  0
    2.9587   -1.3961   42.0241 C   0  0  0  0  0  0  0  0  0  0  0  0
    3.8815   -0.3441   42.0598 C   0  0  0  0  0  0  0  0  0  0  0  0
    5.0972   -0.5585   42.8399 C   0  0  0  0  0  0  0  0  0  0  0  0
    5.2535   -1.6826   43.6335 C   0  0  0  0  0  0  0  0  0  0  0  0
    4.2210   -2.6732   43.6342 C   0  0  0  0  0  0  0  0  0  0  0  0
    3.0784   -2.4692   42.9029 C   0  0  0  0  0  0  0  0  0  0  0  0
   -1.1795   -0.7742   41.2956 C   0  0  0  0  0  0  0  0  0  0  0  0
   -0.1812    0.2862   41.2441 C   0  0  0  0  0  0  0  0  0  0  0  0
    1.0972    0.1030   41.4782 C   0  0  0  0  0  0  0  0  0  0  0  0
    4.3734   -3.8935   44.4412 C   0  0  0  0  0  0  0  0  0  0  0  0
    3.8161   -4.1755   45.3832 N   0  0  0  0  0  0  0  0  0  0  0  0
    4.0107   -3.7126   46.5480 C   0  0  0  0  0  0  0  0  0  0  0  0
    2.6430   -5.0374   45.2206 C   0  0  0  0  0  0  0  0  0  0  0  0
    1.3647   -4.5885   45.4167 C   0  0  0  0  0  0  0  0  0  0  0  0
    0.2458   -5.3404   45.4124 C   0  0  0  0  0  0  0  0  0  0  0  0
    0.4056   -6.5843   44.6626 C   0  0  0  0  0  0  0  0  0  0  0  0
    1.6834   -7.0718   44.5380 C   0  0  0  0  0  0  0  0  0  0  0  0
    2.8249   -6.3663   44.7825 C   0  0  0  0  0  0  0  0  0  0  0  0
   -0.7772   -7.3639   44.4196 C   0  0  0  0  0  0  0  0  0  0  0  0
   -1.4230   -7.1821   43.2789 O   0  0  0  0  0  0  0  0  0  0  0  0
   -1.3152   -8.1627   45.2931 O   0  0  0  0  0  0  0  0  0  0  0  0
    5.2956   -4.3043   47.1890 C   0  0  0  0  0  0  0  0  0  0  0  0
    5.7553   -4.0851   48.3480 C   0  0  0  0  0  0  0  0  0  0  0  0
    6.9799   -4.7241   48.8240 C   0  0  0  0  0  0  0  0  0  0  0  0
    7.4175   -4.8769   49.8144 C   0  0  0  0  0  0  0  0  0  0  0  0
    8.6152   -5.5959   50.1342 C   0  0  0  0  0  0  0  0  0  0  0  0
    9.2164   -6.2747   49.1112 C   0  0  0  0  0  0  0  0  0  0  0  0
    8.6925   -6.1870   47.8583 C   0  0  0  0  0  0  0  0  0  0  0  0
    7.5558   -5.4207   47.6195 C   0  0  0  0  0  0  0  0  0  0  0  0
   -2.5450   -0.4879   41.1027 C   0  0  0  0  0  0  0  0  0  0  0  0
   -3.3536   -1.4283   40.6564 N   0  0  0  0  0  0  0  0  0  0  0  0
   -3.0641    0.6524   41.2936 O   0  0  0  0  0  0  0  0  0  0  0  0
  3  4  1  0
  8 13  1  0
 13 14  1  0
 14 15  1  0
 14 16  1  0
 19 22  1  0
 22 23  1  0
 22 24  2  0
 15 25  1  0
 25 26  1  0
 10 33  1  0
 33 34  1  0
 33 35  2  0
 26 27  1  0
 27 28  2  0
 28 29  1  0
 29 30  2  0
 30 31  1  0
 31 32  2  0
 32 27  1  0
 16 17  2  0
 17 18  1  0
 18 19  2  0
 19 20  1  0
 20 21  2  0
 21 16  1  0
  1  2  2  0
  2  3  1  0
  3 12  2  0
 12 11  1  0
 11 10  2  0
 10  1  1  0
  4  5  2  0
  5  6  1  0
  6  7  2  0
  7  8  1  0
  8  9  2  0
  9  4  1  0
M  END
$$$$
O14757_PocketFlow_idx-in-all-generaetd-400
     RDKit          3D

 15 16  0  0  0  0  0  0  0  0999 V2000
    0.0138   -2.7927   42.5918 N   0  0  0  0  0  0  0  0  0  0  0  0
   -0.1707   -2.5494   41.4965 C   0  0  0  0  0  0  0  0  0  0  0  0
    1.3170   -2.6905   43.0184 C   0  0  0  0  0  0  0  0  0  0  0  0
    2.0255   -1.8901   42.0563 C   0  0  0  0  0  0  0  0  0  0  0  0
    3.2787   -1.2699   42.2324 C   0  0  0  0  0  0  0  0  0  0  0  0
    1.0167   -1.8522   41.1177 N   0  0  0  0  0  0  0  0  0  0  0  0
    3.7472   -0.9292   43.2442 C   0  0  0  0  0  0  0  0  0  0  0  0
    5.1037   -0.3978   43.3544 C   0  0  0  0  0  0  0  0  0  0  0  0
    1.9173   -3.1901   44.2484 C   0  0  0  0  0  0  0  0  0  0  0  0
    1.1968   -4.1239   44.9675 C   0  0  0  0  0  0  0  0  0  0  0  0
    0.0743   -4.1165   45.3520 C   0  0  0  0  0  0  0  0  0  0  0  0
   -0.4661   -5.1109   46.2648 C   0  0  0  0  0  0  0  0  0  0  0  0
   -0.5347   -6.2489   45.9695 N   0  0  0  0  0  0  0  0  0  0  0  0
    0.6045   -6.7861   45.2380 C   0  0  0  0  0  0  0  0  0  0  0  0
    1.4382   -5.7151   44.5742 C   0  0  0  0  0  0  0  0  0  0  0  0
  1  2  2  0
  1  3  1  0
  3  4  2  0
  4  5  1  0
  2  6  1  0
  4  6  1  0
  5  7  2  3
  7  8  1  0
  3  9  1  0
  9 10  1  0
 10 11  2  0
 11 12  1  0
 12 13  2  0
 13 14  1  0
 14 15  2  0
 15 10  1  0
M  END
$$$$
O14757_PocketFlow_idx-in-all-generaetd-401
     RDKit          3D

 16 17  0  0  0  0  0  0  0  0999 V2000
   -0.6395   -2.0713   41.4947 C   0  0  0  0  0  0  0  0  0  0  0  0
    0.1859   -1.1027   41.5970 C   0  0  0  0  0  0  0  0  0  0  0  0
   -0.2410   -3.3795   41.5297 C   0  0  0  0  0  0  0  0  0  0  0  0
    1.6125   -1.3641   41.8466 C   0  0  0  0  0  0  0  0  0  0  0  0
    1.9568   -2.7213   42.1561 C   0  0  0  0  0  0  0  0  0  0  0  0
    0.9568   -3.6932   42.0424 C   0  0  0  0  0  0  0  0  0  0  0  0
    2.5419   -0.3107   42.1030 C   0  0  0  0  0  0  0  0  0  0  0  0
    2.3867    0.9886   41.8171 C   0  0  0  0  0  0  0  0  0  0  0  0
    3.8983   -0.7519   42.5674 C   0  0  0  0  0  0  0  0  0  0  0  0
    4.8951    0.2540   42.8988 C   0  0  0  0  0  0  0  0  0  0  0  0
    3.4226    1.8751   42.2942 N   0  0  0  0  0  0  0  0  0  0  0  0
    4.5775    1.3950   42.6980 C   0  0  0  0  0  0  0  0  0  0  0  0
   -2.0550   -1.7745   41.0702 C   0  0  0  0  0  0  0  0  0  0  0  0
   -2.8096   -2.6217   40.5778 O   0  0  0  0  0  0  0  0  0  0  0  0
   -2.5752   -0.5795   41.5333 N   0  0  0  0  0  0  0  0  0  0  0  0
   -3.8339   -0.0445   41.0550 C   0  0  0  0  0  0  0  0  0  0  0  0
  4  7  1  0
  1 13  1  0
 13 14  2  0
 13 15  1  0
 15 16  1  0
  1  2  2  0
  2  4  1  0
  4  5  2  0
  5  6  1  0
  6  3  2  0
  3  1  1  0
  7  8  2  0
  8 11  1  0
 11 12  2  0
 12 10  1  0
 10  9  2  0
  9  7  1  0
M  END
$$$$
O14757_PocketFlow_idx-in-all-generaetd-402
     RDKit          3D

 35 39  0  0  0  0  0  0  0  0999 V2000
   -0.6395   -2.0713   41.4947 C   0  0  0  0  0  0  0  0  0  0  0  0
   -0.2671   -3.2464   41.6546 C   0  0  0  0  0  0  0  0  0  0  0  0
    0.2277   -0.9875   41.6495 C   0  0  0  0  0  0  0  0  0  0  0  0
    1.6284   -1.2752   41.8841 C   0  0  0  0  0  0  0  0  0  0  0  0
    2.6421   -0.3335   42.0825 C   0  0  0  0  0  0  0  0  0  0  0  0
    3.5603   -0.4309   43.0629 C   0  0  0  0  0  0  0  0  0  0  0  0
    3.9985   -1.7918   43.4175 C   0  0  0  0  0  0  0  0  0  0  0  0
    5.0719   -2.0253   44.2722 C   0  0  0  0  0  0  0  0  0  0  0  0
    5.2273   -3.2586   44.9090 C   0  0  0  0  0  0  0  0  0  0  0  0
    1.1092   -3.6098   42.0178 C   0  0  0  0  0  0  0  0  0  0  0  0
    1.9930   -2.5484   42.2746 C   0  0  0  0  0  0  0  0  0  0  0  0
    3.1152   -2.7630   43.0735 C   0  0  0  0  0  0  0  0  0  0  0  0
    6.2376   -3.4073   45.9281 C   0  0  0  0  0  0  0  0  0  0  0  0
    6.2234   -4.3558   46.9268 C   0  0  0  0  0  0  0  0  0  0  0  0
    4.9298   -5.0486   47.0300 C   0  0  0  0  0  0  0  0  0  0  0  0
    3.9496   -4.9006   46.0555 C   0  0  0  0  0  0  0  0  0  0  0  0
    4.1057   -3.9554   45.0436 C   0  0  0  0  0  0  0  0  0  0  0  0
    3.0281   -3.7920   44.1116 C   0  0  0  0  0  0  0  0  0  0  0  0
   -2.0399   -1.7176   41.1244 C   0  0  0  0  0  0  0  0  0  0  0  0
   -2.8211   -2.5954   40.6713 O   0  0  0  0  0  0  0  0  0  0  0  0
   -2.4905   -0.4422   41.2837 N   0  0  0  0  0  0  0  0  0  0  0  0
    7.5583   -2.6136   45.8537 C   0  0  0  0  0  0  0  0  0  0  0  0
    7.6493   -1.3184   45.3316 C   0  0  0  0  0  0  0  0  0  0  0  0
    8.7203   -3.2196   46.3670 C   0  0  0  0  0  0  0  0  0  0  0  0
    8.8689   -4.4900   46.8739 C   0  0  0  0  0  0  0  0  0  0  0  0
    8.0503   -5.1955   47.2933 C   0  0  0  0  0  0  0  0  0  0  0  0
    7.0945   -4.9826   47.9249 N   0  0  0  0  0  0  0  0  0  0  0  0
    6.4394   -5.5328   49.0515 C   0  0  0  0  0  0  0  0  0  0  0  0
   -3.8056    0.0198   40.9263 C   0  0  0  0  0  0  0  0  0  0  0  0
    6.2171   -6.9219   48.9593 C   0  0  0  0  0  0  0  0  0  0  0  0
    6.8824   -7.6628   49.9435 C   0  0  0  0  0  0  0  0  0  0  0  0
    6.1875   -8.8798   50.3963 C   0  0  0  0  0  0  0  0  0  0  0  0
    4.8867   -8.8369   50.2809 C   0  0  0  0  0  0  0  0  0  0  0  0
    4.4021   -8.9876   48.9201 C   0  0  0  0  0  0  0  0  0  0  0  0
    4.5430   -7.8956   47.9687 C   0  0  0  0  0  0  0  0  0  0  0  0
  1 19  1  0
 19 20  2  0
 19 21  1  0
 13 22  1  0
 22 23  2  0
 22 24  1  0
 24 25  1  0
 25 26  2  0
 14 27  1  0
 26 27  1  0
 27 28  1  0
 21 29  1  0
 28 30  1  0
 30 31  1  0
 31 32  1  0
 32 33  1  0
 33 34  1  0
 34 35  1  0
  9 13  2  0
 13 14  1  0
 14 15  2  0
 15 16  1  0
 16 17  2  0
  1  2  2  0
  2 10  1  0
 10 11  2  0
  4  3  2  0
  3  1  1  0
  4  5  1  0
  5  6  2  0
  6  7  1  0
 12 11  1  0
 11  4  1  0
  7  8  2  0
  8  9  1  0
  9 17  1  0
 17 18  1  0
 18 12  2  0
 12  7  1  0
M  END
$$$$
O14757_PocketFlow_idx-in-all-generaetd-403
     RDKit          3D

 24 26  0  0  0  0  0  0  0  0999 V2000
   -0.6395   -2.0713   41.4947 C   0  0  0  0  0  0  0  0  0  0  0  0
   -0.2671   -3.2464   41.6546 C   0  0  0  0  0  0  0  0  0  0  0  0
    0.2277   -0.9875   41.6495 C   0  0  0  0  0  0  0  0  0  0  0  0
    1.6284   -1.2752   41.8841 C   0  0  0  0  0  0  0  0  0  0  0  0
    2.6421   -0.3335   42.0825 C   0  0  0  0  0  0  0  0  0  0  0  0
    3.8980   -0.6935   42.5214 C   0  0  0  0  0  0  0  0  0  0  0  0
    4.0258   -1.9928   43.1167 C   0  0  0  0  0  0  0  0  0  0  0  0
    2.9002   -2.8588   43.1741 C   0  0  0  0  0  0  0  0  0  0  0  0
    1.6919   -2.4236   42.6757 C   0  0  0  0  0  0  0  0  0  0  0  0
    0.7600   -3.4946   42.3928 C   0  0  0  0  0  0  0  0  0  0  0  0
    5.2761    0.2921   42.5977 Cl  0  0  0  0  0  0  0  0  0  0  0  0
    3.0297   -4.0009   44.0959 C   0  0  0  0  0  0  0  0  0  0  0  0
    3.2980   -4.0023   45.8141 P   0  0  1  0  0  0  0  0  0  0  0  0
    4.0124   -2.8827   46.2278 O   0  0  0  0  0  0  0  0  0  0  0  0
    2.1661   -4.5830   46.5115 O   0  0  0  0  0  0  0  0  0  0  0  0
    4.4421   -5.1131   45.7067 O   0  0  0  0  0  0  0  0  0  0  0  0
   -1.9740   -1.6798   41.1543 N   0  0  0  0  0  0  0  0  0  0  0  0
   -2.5161   -0.4643   41.3274 C   0  0  0  0  0  0  0  0  0  0  0  0
   -3.8230   -0.2436   40.8390 C   0  0  0  0  0  0  0  0  0  0  0  0
   -2.6778   -2.5155   40.2673 C   0  0  0  0  0  0  0  0  0  0  0  0
   -3.9036   -2.2890   39.8935 N   0  0  0  0  0  0  0  0  0  0  0  0
   -4.4241   -1.1700   40.1492 N   0  0  0  0  0  0  0  0  0  0  0  0
    2.2114   -5.0371   47.4596 F   0  0  0  0  0  0  0  0  0  0  0  0
    5.1889   -2.2997   43.6887 F   0  0  0  0  0  0  0  0  0  0  0  0
  6 11  1  0
  8 12  1  0
 12 13  1  0
 13 14  2  0
 13 15  1  0
 13 16  1  6
  1 17  1  0
 17 18  1  0
 17 20  1  0
 20 21  1  0
 21 22  1  0
 15 23  1  0
  7 24  1  0
 18 19  1  0
 19 22  1  0
  1  2  2  0
  2 10  1  0
 10  9  2  0
  4  3  2  0
  3  1  1  0
  4  5  1  0
  5  6  2  0
  6  7  1  0
  7  8  2  0
  8  9  1  0
  9  4  1  0
M  END
$$$$
O14757_PocketFlow_idx-in-all-generaetd-404
     RDKit          3D

 21 23  0  0  0  0  0  0  0  0999 V2000
    0.2881   -2.9111   42.4378 C   0  0  0  0  0  0  0  0  0  0  0  0
    1.3023   -2.0648   42.1981 C   0  0  0  0  0  0  0  0  0  0  0  0
    0.9971   -0.8647   41.5341 C   0  0  0  0  0  0  0  0  0  0  0  0
    0.5525   -4.0790   43.0426 O   0  0  0  0  0  0  0  0  0  0  0  0
   -0.3126   -0.6513   41.2796 N   0  0  0  0  0  0  0  0  0  0  0  0
   -0.9632   -2.4552   41.9999 C   0  0  0  0  0  0  0  0  0  0  0  0
   -1.2234   -1.3596   41.4600 C   0  0  0  0  0  0  0  0  0  0  0  0
    1.8259    0.1749   41.3954 N   0  0  0  0  0  0  0  0  0  0  0  0
   -2.4942   -1.0004   41.1059 N   0  0  0  0  0  0  0  0  0  0  0  0
    2.6388   -2.3266   42.7411 C   0  0  0  0  0  0  0  0  0  0  0  0
    3.6199   -1.2499   42.5952 C   0  0  0  0  0  0  0  0  0  0  0  0
    3.1519   -0.0072   41.9662 C   0  0  0  0  0  0  0  0  0  0  0  0
    4.8991   -1.3144   43.1146 C   0  0  0  0  0  0  0  0  0  0  0  0
    5.4979   -0.1777   43.6754 C   0  0  0  0  0  0  0  0  0  0  0  0
    5.3389   -2.5834   43.5298 C   0  0  0  0  0  0  0  0  0  0  0  0
    5.2420   -3.0084   44.9176 C   0  0  0  0  0  0  0  0  0  0  0  0
    6.3521   -2.4058   45.7559 C   0  0  0  0  0  0  0  0  0  0  0  0
    4.3869   -3.9200   45.4377 C   0  0  0  0  0  0  0  0  0  0  0  0
    4.4654   -4.2901   46.8045 C   0  0  0  0  0  0  0  0  0  0  0  0
    6.5208   -2.9833   47.0529 C   0  0  0  0  0  0  0  0  0  0  0  0
    5.6026   -3.8224   47.6057 C   0  0  0  0  0  0  0  0  0  0  0  0
  1  2  1  0
  1  4  2  0
  3  5  1  0
  1  6  1  0
  5  7  1  0
  6  7  1  0
  7  9  1  0
 11 13  1  0
 13 14  2  0
 13 15  1  0
 15 16  1  0
  2  3  2  0
  3  8  1  0
  8 12  2  0
 12 11  1  0
 11 10  2  0
 10  2  1  0
 16 17  2  0
 17 20  1  0
 20 21  2  0
 21 19  1  0
 19 18  2  0
 18 16  1  0
M  END
$$$$
O14757_PocketFlow_idx-in-all-generaetd-405
     RDKit          3D

 32 34  0  0  0  0  0  0  0  0999 V2000
   -0.8794   -1.9236   41.9357 O   0  0  0  0  0  0  0  0  0  0  0  0
    0.3182   -2.2442   41.7073 C   0  0  0  0  0  0  0  0  0  0  0  0
    1.3766   -1.3498   41.6019 C   0  0  0  0  0  0  0  0  0  0  0  0
    1.0656   -0.0447   41.5628 C   0  0  0  0  0  0  0  0  0  0  0  0
    0.4877   -3.7031   41.5313 C   0  0  0  0  0  0  0  0  0  0  0  0
    2.3128    0.8212   41.7908 C   0  0  0  0  0  0  0  0  0  0  0  0
    3.2903    0.1438   42.6757 C   0  0  0  0  0  0  0  0  0  0  0  0
    3.5748   -1.1237   42.7493 C   0  0  0  0  0  0  0  0  0  0  0  0
    2.4172   -1.9321   42.4551 C   0  0  0  0  0  0  0  0  0  0  0  0
    4.7014   -1.5775   43.5119 C   0  0  0  0  0  0  0  0  0  0  0  0
    4.8733   -1.5847   44.8165 C   0  0  0  0  0  0  0  0  0  0  0  0
    5.9477   -2.1143   45.5214 C   0  0  0  0  0  0  0  0  0  0  0  0
    5.9025   -3.2038   46.3036 C   0  0  0  0  0  0  0  0  0  0  0  0
    4.7479   -3.8861   46.7080 C   0  0  0  0  0  0  0  0  0  0  0  0
    4.5026   -5.0129   45.9927 C   0  0  0  0  0  0  0  0  0  0  0  0
    3.2766   -4.9094   45.1919 C   0  0  0  0  0  0  0  0  0  0  0  0
    2.5160   -6.1183   44.9664 C   0  0  0  0  0  0  0  0  0  0  0  0
    2.6151   -7.1335   45.6178 C   0  0  0  0  0  0  0  0  0  0  0  0
    3.8211   -7.3566   46.5189 C   0  0  0  0  0  0  0  0  0  0  0  0
    4.2133   -6.1687   47.1111 C   0  0  0  0  0  0  0  0  0  0  0  0
    7.2192   -3.7141   46.8017 C   0  0  0  0  0  0  0  0  0  0  0  0
    7.9068   -3.1645   47.7577 C   0  0  0  0  0  0  0  0  0  0  0  0
    8.9968   -3.3341   48.2953 C   0  0  0  0  0  0  0  0  0  0  0  0
    9.7912   -4.3764   48.1317 C   0  0  0  0  0  0  0  0  0  0  0  0
    9.2295   -5.2168   46.9869 C   0  0  0  0  0  0  0  0  0  0  0  0
    7.9872   -4.8592   46.3596 C   0  0  0  0  0  0  0  0  0  0  0  0
    7.2274   -1.4034   45.0888 C   0  0  0  0  0  0  0  0  0  0  0  0
   -1.8723   -1.8539   40.9879 C   0  0  0  0  0  0  0  0  0  0  0  0
    3.9467   -8.6091   47.2474 C   0  0  0  0  0  0  0  0  0  0  0  0
    3.6181   -9.6150   46.4932 F   0  0  0  0  0  0  0  0  0  0  0  0
    4.6005   -9.0729   48.0757 F   0  0  0  0  0  0  0  0  0  0  0  0
    0.8181   -4.1556   40.5167 O   0  0  0  0  0  0  0  0  0  0  0  0
  1  2  1  0
  2  3  1  0
  2  5  1  0
  8 10  1  0
 10 11  1  0
 11 12  2  3
 12 13  1  0
 13 14  1  0
 14 15  1  0
 13 21  1  0
 12 27  1  0
  1 28  1  0
 19 29  1  0
 29 30  1  0
 29 31  1  0
  5 32  2  0
 15 16  2  0
 16 17  1  0
 17 18  2  0
 18 19  1  0
 19 20  2  0
 20 15  1  0
  3  4  2  0
  4  6  1  0
  6  7  2  0
  7  8  1  0
  8  9  2  0
  9  3  1  0
 21 22  2  0
 22 23  1  0
 23 24  2  0
 24 25  1  0
 25 26  2  0
 26 21  1  0
M  END
$$$$
O14757_PocketFlow_idx-in-all-generaetd-406
     RDKit          3D

 24 27  0  0  0  0  0  0  0  0999 V2000
    0.2881   -2.9111   42.4378 C   0  0  0  0  0  0  0  0  0  0  0  0
    1.1784   -3.4293   42.9321 C   0  0  0  0  0  0  0  0  0  0  0  0
    1.2340   -4.4107   43.9123 C   0  0  1  0  0  0  0  0  0  0  0  0
    2.2208   -4.4317   44.9351 C   0  0  0  0  0  0  0  0  0  0  0  0
    3.3567   -3.5729   44.7214 C   0  0  2  0  0  0  0  0  0  0  0  0
    3.3959   -2.6565   43.7337 C   0  0  0  0  0  0  0  0  0  0  0  0
    4.5318   -1.8040   43.5640 C   0  0  0  0  0  0  0  0  0  0  0  0
    4.4358   -0.5851   42.8508 C   0  0  0  0  0  0  0  0  0  0  0  0
    2.3801   -2.5277   42.9477 C   0  0  0  0  0  0  0  0  0  0  0  0
    3.1967   -0.3471   42.1851 C   0  0  0  0  0  0  0  0  0  0  0  0
    2.1962   -1.2482   42.2224 C   0  0  0  0  0  0  0  0  0  0  0  0
    0.8683   -1.2923   41.5986 C   0  0  0  0  0  0  0  0  0  0  0  0
    0.2168   -5.3353   43.9341 N   0  0  0  0  0  0  0  0  0  0  0  0
   -0.0444   -6.1931   44.9072 C   0  0  0  0  0  0  0  0  0  0  0  0
   -0.3726   -5.7751   46.0063 C   0  0  0  0  0  0  0  0  0  0  0  0
   -0.4153   -4.7343   46.3712 O   0  0  0  0  0  0  0  0  0  0  0  0
   -0.7226   -6.7198   47.0065 O   0  0  0  0  0  0  0  0  0  0  0  0
    5.7475   -1.9955   44.4140 C   0  0  0  0  0  0  0  0  0  0  0  0
    6.6641   -1.1527   44.7083 C   0  0  0  0  0  0  0  0  0  0  0  0
    7.8355   -1.4894   45.4671 C   0  0  0  0  0  0  0  0  0  0  0  0
    7.7770   -2.5088   46.2910 C   0  0  0  0  0  0  0  0  0  0  0  0
    6.6416   -3.4473   46.1633 C   0  0  0  0  0  0  0  0  0  0  0  0
    5.6264   -3.1760   45.2868 C   0  0  0  0  0  0  0  0  0  0  0  0
    4.5137   -3.8911   45.5313 C   0  0  0  0  0  0  0  0  0  0  0  0
  1  2  2  0
  2  3  1  0
  3  4  1  0
  4  5  1  0
  5  6  1  0
  2  9  1  0
  1 12  1  0
 11 12  1  0
  3 13  1  1
 13 14  1  0
 14 15  1  0
 15 16  2  0
 15 17  1  0
  7 18  1  0
  5 24  1  6
 18 19  2  0
 19 20  1  0
 20 21  2  0
 21 22  1  0
 22 23  2  0
 23 18  1  0
  6  7  2  0
  7  8  1  0
  8 10  2  0
 10 11  1  0
 11  9  2  0
  9  6  1  0
M  END
$$$$
O14757_PocketFlow_idx-in-all-generaetd-407
     RDKit          3D

 35 40  0  0  0  0  0  0  0  0999 V2000
   -0.6395   -2.0713   41.4947 C   0  0  0  0  0  0  0  0  0  0  0  0
    0.6719   -2.2449   41.7518 C   0  0  2  0  0  0  0  0  0  0  0  0
    1.5951   -1.1948   41.6106 C   0  0  1  0  0  0  0  0  0  0  0  0
    1.2208    0.0789   41.5217 C   0  0  0  0  0  0  0  0  0  0  0  0
   -1.5615   -3.1145   41.4646 C   0  0  0  0  0  0  0  0  0  0  0  0
    2.2435    0.9409   41.5668 N   0  0  0  0  0  0  0  0  0  0  0  0
   -0.8995   -4.3311   41.4340 N   0  0  0  0  0  0  0  0  0  0  0  0
    0.4547   -3.8849   41.7477 C   0  0  0  0  0  0  0  0  0  0  0  0
    2.9715   -1.3953   41.9064 C   0  0  2  0  0  0  0  0  0  0  0  0
    3.6089   -2.5465   42.3808 C   0  0  0  0  0  0  0  0  0  0  0  0
    3.5162   -0.0335   41.9738 C   0  0  0  0  0  0  0  0  0  0  0  0
    3.9987   -2.5362   43.8550 C   0  0  0  0  0  0  0  0  0  0  0  0
    4.2771   -3.7574   44.5028 C   0  0  0  0  0  0  0  0  0  0  0  0
    4.7567   -3.6938   45.8038 C   0  0  0  0  0  0  0  0  0  0  0  0
    4.7782   -4.7742   46.7231 C   0  0  0  0  0  0  0  0  0  0  0  0
    4.1549   -5.9162   46.2462 C   0  0  0  0  0  0  0  0  0  0  0  0
    3.6215   -5.9684   44.9164 C   0  0  0  0  0  0  0  0  0  0  0  0
    3.5839   -4.8596   44.1384 C   0  0  0  0  0  0  0  0  0  0  0  0
    5.3692   -2.3540   46.3058 C   0  0  0  0  0  0  0  0  0  0  0  0
    5.2484   -1.2068   45.4773 C   0  0  0  0  0  0  0  0  0  0  0  0
    4.6615   -1.3178   44.2739 C   0  0  0  0  0  0  0  0  0  0  0  0
    4.4795    0.6410   42.2300 O   0  0  0  0  0  0  0  0  0  0  0  0
    5.3350   -4.7080   47.8981 O   0  0  0  0  0  0  0  0  0  0  0  0
    6.5900   -4.2361   48.2046 C   0  0  2  0  0  0  0  0  0  0  0  0
    6.8778   -4.4348   49.6445 C   0  0  0  0  0  0  0  0  0  0  0  0
    7.9613   -4.9412   49.8846 O   0  0  0  0  0  0  0  0  0  0  0  0
    8.8110   -5.1204   48.9480 C   0  0  0  0  0  0  0  0  0  0  0  0
    8.7438   -4.4200   48.2240 C   0  0  0  0  0  0  0  0  0  0  0  0
    7.3808   -3.1606   47.8213 C   0  0  0  0  0  0  0  0  0  0  0  0
    9.3959   -4.5268   46.7202 C   0  0  0  0  0  0  0  0  0  0  0  0
   10.2264   -5.5507   46.5017 C   0  0  0  0  0  0  0  0  0  0  0  0
    9.8741   -6.0103   49.1521 C   0  0  0  0  0  0  0  0  0  0  0  0
   10.6159   -6.2824   47.7891 C   0  0  0  0  0  0  0  0  0  0  0  0
   10.1426   -6.8980   50.2001 C   0  0  0  0  0  0  0  0  0  0  0  0
   10.7120   -6.3284   51.1869 C   0  0  0  0  0  0  0  0  0  0  0  0
  2  1  1  6
  2  3  1  0
  3  4  1  1
  1  5  1  0
  4  6  2  0
  5  7  2  0
  2  8  1  0
  7  8  1  0
  3  9  1  0
  9 10  1  1
  6 11  1  0
  9 11  1  0
 10 12  1  0
 11 22  2  0
 15 23  1  0
 24 23  1  1
 24 25  1  0
 25 26  1  0
 26 27  1  0
 24 29  1  0
 28 29  1  0
 32 34  1  0
 34 35  1  0
 27 28  2  0
 28 30  1  0
 30 31  2  0
 31 33  1  0
 33 32  2  0
 32 27  1  0
 14 15  1  0
 15 16  2  0
 16 17  1  0
 17 18  2  0
 18 13  1  0
 12 13  1  0
 13 14  2  0
 14 19  1  0
 19 20  2  0
 20 21  1  0
 21 12  2  0
M  END
$$$$
O14757_PocketFlow_idx-in-all-generaetd-408
     RDKit          3D

 22 25  0  0  0  0  0  0  0  0999 V2000
   -0.6395   -2.0713   41.4947 C   0  0  0  0  0  0  0  0  0  0  0  0
   -0.2671   -3.2464   41.6546 C   0  0  0  0  0  0  0  0  0  0  0  0
   -1.9911   -1.6663   41.2869 C   0  0  0  0  0  0  0  0  0  0  0  0
   -2.8197   -2.6218   40.7055 C   0  0  0  0  0  0  0  0  0  0  0  0
    1.0882   -3.6261   41.9223 C   0  0  0  0  0  0  0  0  0  0  0  0
    1.9507   -2.5381   42.2089 C   0  0  0  0  0  0  0  0  0  0  0  0
    3.2151   -2.7632   42.8041 C   0  0  0  0  0  0  0  0  0  0  0  0
    3.9699   -1.6102   43.1798 C   0  0  1  0  0  0  0  0  0  0  0  0
    5.1857   -1.6535   43.9097 C   0  0  0  0  0  0  0  0  0  0  0  0
    5.9394   -0.4819   44.0953 C   0  0  0  0  0  0  0  0  0  0  0  0
    1.4515   -1.1993   42.1048 C   0  0  0  0  0  0  0  0  0  0  0  0
    0.1629   -0.9327   41.7378 C   0  0  0  0  0  0  0  0  0  0  0  0
   -4.0952   -2.1679   40.2251 C   0  0  0  0  0  0  0  0  0  0  0  0
   -4.4561   -0.8069   40.3523 C   0  0  0  0  0  0  0  0  0  0  0  0
   -3.5940    0.0960   40.9253 C   0  0  0  0  0  0  0  0  0  0  0  0
   -2.3336   -0.2994   41.3464 C   0  0  0  0  0  0  0  0  0  0  0  0
    7.0969   -0.6508   44.6752 C   0  0  0  0  0  0  0  0  0  0  0  0
    7.5435   -1.8901   45.3649 C   0  0  0  0  0  0  0  0  0  0  0  0
    6.6517   -2.9376   45.2554 C   0  0  0  0  0  0  0  0  0  0  0  0
    5.5082   -2.8170   44.5600 C   0  0  0  0  0  0  0  0  0  0  0  0
    3.5939   -0.2936   42.6023 C   0  0  0  0  0  0  0  0  0  0  0  0
    2.3499   -0.0800   42.2776 C   0  0  0  0  0  0  0  0  0  0  0  0
  1  3  1  0
  6  7  1  0
  7  8  1  0
  8  9  1  6
  8 21  1  0
 11 22  1  0
 21 22  1  0
  9 10  2  0
 10 17  1  0
 17 18  2  0
 18 19  1  0
 19 20  2  0
 20  9  1  0
  1  2  2  0
  2  5  1  0
  5  6  2  0
  6 11  1  0
 11 12  2  0
 12  1  1  0
  3  4  2  0
  4 13  1  0
 13 14  2  0
 14 15  1  0
 15 16  2  0
 16  3  1  0
M  END
$$$$
O14757_PocketFlow_idx-in-all-generaetd-409
     RDKit          3D

  9  9  0  0  0  0  0  0  0  0999 V2000
   -0.6395   -2.0713   41.4947 C   0  0  0  0  0  0  0  0  0  0  0  0
   -0.2671   -3.2464   41.6546 C   0  0  0  0  0  0  0  0  0  0  0  0
   -2.0053   -1.6706   41.3987 C   0  0  0  0  0  0  0  0  0  0  0  0
   -2.5557   -1.6478   40.3873 C   0  0  0  0  0  0  0  0  0  0  0  0
    1.1240   -3.6570   41.6686 C   0  0  0  0  0  0  0  0  0  0  0  0
    2.0045   -2.6219   41.9196 C   0  0  0  0  0  0  0  0  0  0  0  0
    0.3840   -1.0612   41.8027 C   0  0  0  0  0  0  0  0  0  0  0  0
    1.6210   -1.3121   41.9217 C   0  0  0  0  0  0  0  0  0  0  0  0
   -4.0597   -1.5827   40.3577 C   0  0  0  0  0  0  0  0  0  0  0  0
  3  4  1  0
  4  9  1  0
  3  1  1  0
  1  2  2  0
  2  5  1  0
  5  6  2  0
  6  8  1  0
  8  7  2  0
  7  1  1  0
M  END
$$$$
O14757_PocketFlow_idx-in-all-generaetd-410
     RDKit          3D

 22 23  0  0  0  0  0  0  0  0999 V2000
   -0.6395   -2.0713   41.4947 C   0  0  0  0  0  0  0  0  0  0  0  0
    0.6719   -2.2449   41.7518 C   0  0  0  0  0  0  0  0  0  0  0  0
    1.3815   -1.6359   42.7231 C   0  0  0  0  0  0  0  0  0  0  0  0
    2.9063   -1.6298   42.5164 C   0  0  1  0  0  0  0  0  0  0  0  0
    3.6438   -0.4184   42.6239 C   0  0  0  0  0  0  0  0  0  0  0  0
    4.9943   -0.4734   43.1177 C   0  0  0  0  0  0  0  0  0  0  0  0
   -1.0733   -0.7417   41.6399 C   0  0  0  0  0  0  0  0  0  0  0  0
    5.3914   -1.6143   43.8445 C   0  0  1  0  0  0  0  0  0  0  0  0
    4.6016   -2.7820   43.8759 C   0  0  1  0  0  0  0  0  0  0  0  0
    4.9713   -3.9334   44.5918 C   0  0  0  0  0  0  0  0  0  0  0  0
    3.2791   -2.7572   43.2992 C   0  0  0  0  0  0  0  0  0  0  0  0
    4.3017   -4.1694   45.4595 F   0  0  0  0  0  0  0  0  0  0  0  0
    6.2600   -3.6852   45.1853 F   0  0  0  0  0  0  0  0  0  0  0  0
   -2.3459   -0.5266   41.3199 N   0  0  0  0  0  0  0  0  0  0  0  0
   -3.0797   -1.4085   40.7577 C   0  0  0  0  0  0  0  0  0  0  0  0
   -2.6876   -2.5102   40.3950 N   0  0  0  0  0  0  0  0  0  0  0  0
   -1.4733   -2.9415   40.8686 C   0  0  0  0  0  0  0  0  0  0  0  0
   -4.3321   -0.9859   40.3083 N   0  0  0  0  0  0  0  0  0  0  0  0
    4.8188   -4.9951   43.8371 F   0  0  0  0  0  0  0  0  0  0  0  0
    3.2209    0.6251   42.0307 O   0  0  0  0  0  0  0  0  0  0  0  0
    1.2439   -3.2367   41.0512 O   0  0  0  0  0  0  0  0  0  0  0  0
    6.5826   -1.5556   44.4170 O   0  0  0  0  0  0  0  0  0  0  0  0
  1  2  1  0
  2  3  1  0
  4  3  1  1
  4  5  1  0
  5  6  1  0
  6  8  1  0
  9 10  1  1
  4 11  1  0
  9 11  1  0
 10 12  1  0
 10 13  1  0
 15 18  1  0
 10 19  1  0
  5 20  2  0
  2 21  2  0
  8 22  1  6
  9  8  1  0
  1  7  2  0
  7 14  1  0
 14 15  2  0
 15 16  1  0
 16 17  2  0
 17  1  1  0
M  END
$$$$
O14757_PocketFlow_idx-in-all-generaetd-411
     RDKit          3D

 35 37  0  0  0  0  0  0  0  0999 V2000
   -0.6395   -2.0713   41.4947 C   0  0  0  0  0  0  0  0  0  0  0  0
    0.1859   -1.1027   41.5970 C   0  0  0  0  0  0  0  0  0  0  0  0
    1.5836   -1.3270   41.4670 C   0  0  0  0  0  0  0  0  0  0  0  0
   -0.2462   -3.3905   41.2409 C   0  0  0  0  0  0  0  0  0  0  0  0
    2.0075   -2.6977   41.3341 C   0  0  0  0  0  0  0  0  0  0  0  0
    1.0655   -3.6470   41.1373 C   0  0  0  0  0  0  0  0  0  0  0  0
    2.5048   -0.3416   41.6826 N   0  0  0  0  0  0  0  0  0  0  0  0
    3.5415   -0.3915   42.5684 C   0  0  0  0  0  0  0  0  0  0  0  0
    4.4549    0.6015   42.5204 N   0  0  0  0  0  0  0  0  0  0  0  0
    3.9074   -1.5013   43.1989 N   0  0  0  0  0  0  0  0  0  0  0  0
    5.0456   -1.2370   43.9277 C   0  0  2  0  0  0  0  0  0  0  0  0
    5.4577    0.0756   43.4820 C   0  0  0  0  0  0  0  0  0  0  0  0
    5.7576   -2.0663   44.8361 C   0  0  0  0  0  0  0  0  0  0  0  0
    5.1822   -3.3088   45.2799 C   0  0  0  0  0  0  0  0  0  0  0  0
    5.8678   -4.0184   46.2356 C   0  0  0  0  0  0  0  0  0  0  0  0
    7.1367   -3.6108   46.7323 C   0  0  0  0  0  0  0  0  0  0  0  0
    7.6914   -2.3768   46.2293 C   0  0  0  0  0  0  0  0  0  0  0  0
    7.0437   -1.6482   45.3316 C   0  0  0  0  0  0  0  0  0  0  0  0
    7.8561   -4.3315   47.7748 C   0  0  0  0  0  0  0  0  0  0  0  0
    7.1744   -4.5610   48.9579 C   0  0  0  0  0  0  0  0  0  0  0  0
    6.1687   -5.0797   49.2191 C   0  0  0  0  0  0  0  0  0  0  0  0
    6.1609   -6.3218   48.9794 C   0  0  0  0  0  0  0  0  0  0  0  0
    6.8568   -7.2688   49.2958 N   0  0  0  0  0  0  0  0  0  0  0  0
    6.7118   -8.3332   49.7488 C   0  0  0  0  0  0  0  0  0  0  0  0
    5.3461   -8.6929   50.0179 C   0  0  0  0  0  0  0  0  0  0  0  0
    4.7905   -8.2554   51.2104 C   0  0  0  0  0  0  0  0  0  0  0  0
    4.4367   -9.3146   52.2035 C   0  0  0  0  0  0  0  0  0  0  0  0
    3.1319   -9.9119   51.9461 C   0  0  0  0  0  0  0  0  0  0  0  0
    2.1906   -9.2322   51.3834 C   0  0  0  0  0  0  0  0  0  0  0  0
    0.9838  -10.0685   50.9135 C   0  0  0  0  0  0  0  0  0  0  0  0
    0.3868   -9.7147   49.7403 C   0  0  0  0  0  0  0  0  0  0  0  0
   -0.9374  -10.1084   49.4108 C   0  0  0  0  0  0  0  0  0  0  0  0
   -1.6300   -9.5223   48.3532 C   0  0  0  0  0  0  0  0  0  0  0  0
   -1.1122   -8.6633   47.7175 C   0  0  0  0  0  0  0  0  0  0  0  0
   -1.7503   -7.9912   46.5387 C   0  0  0  0  0  0  0  0  0  0  0  0
  3  7  1  0
  7  8  1  0
  8  9  1  0
  8 10  2  0
 10 11  1  0
  9 12  1  0
 11 12  1  0
 11 13  1  6
 16 19  1  0
 19 20  1  0
 20 21  2  3
 21 22  1  0
 22 23  1  0
 23 24  1  0
 24 25  1  0
 25 26  1  0
 26 27  1  0
 27 28  1  0
 28 29  1  0
 29 30  1  0
 30 31  1  0
 31 32  2  3
 32 33  1  0
 33 34  2  3
 34 35  1  0
 13 14  2  0
 14 15  1  0
 15 16  2  0
 16 17  1  0
 17 18  2  0
 18 13  1  0
  1  2  2  0
  2  3  1  0
  3  5  2  0
  5  6  1  0
  6  4  2  0
  4  1  1  0
M  END
$$$$
O14757_PocketFlow_idx-in-all-generaetd-412
     RDKit          3D

 16 16  0  0  0  0  0  0  0  0999 V2000
   -0.6395   -2.0713   41.4947 C   0  0  0  0  0  0  0  0  0  0  0  0
    0.6719   -2.2449   41.7518 C   0  0  0  0  0  0  0  0  0  0  0  0
    1.5850   -1.2291   41.6969 C   0  0  0  0  0  0  0  0  0  0  0  0
    2.9399   -1.4295   42.0894 C   0  0  0  0  0  0  0  0  0  0  0  0
    3.8491   -0.3564   42.1331 C   0  0  0  0  0  0  0  0  0  0  0  0
    5.0990   -0.5225   42.8597 C   0  0  0  0  0  0  0  0  0  0  0  0
    5.2785   -1.6417   43.6837 C   0  0  0  0  0  0  0  0  0  0  0  0
    4.2973   -2.6425   43.7179 C   0  0  0  0  0  0  0  0  0  0  0  0
    4.4804   -3.7960   44.4892 C   0  0  0  0  0  0  0  0  0  0  0  0
    3.1391   -2.5358   42.8840 C   0  0  0  0  0  0  0  0  0  0  0  0
   -1.5489   -3.1669   41.5163 C   0  0  0  0  0  0  0  0  0  0  0  0
   -0.9366   -4.3719   41.5756 N   0  0  0  0  0  0  0  0  0  0  0  0
    5.1081   -3.7616   45.7754 C   0  0  0  0  0  0  0  0  0  0  0  0
    4.6391   -4.6336   46.8491 C   0  0  0  0  0  0  0  0  0  0  0  0
    3.8589   -5.6207   46.5907 C   0  0  0  0  0  0  0  0  0  0  0  0
    3.2331   -5.7397   45.3054 C   0  0  0  0  0  0  0  0  0  0  0  0
  1  2  2  3
  2  3  1  0
  3  4  1  0
  1 11  1  0
 11 12  2  3
  9 13  1  0
 13 14  2  3
 14 15  1  0
 15 16  2  0
  9  8  1  0
  4  5  2  0
  5  6  1  0
  6  7  2  0
  7  8  1  0
  8 10  2  0
 10  4  1  0
M  END
$$$$
O14757_PocketFlow_idx-in-all-generaetd-413
     RDKit          3D

 23 26  0  0  0  0  0  0  0  0999 V2000
   -0.6395   -2.0713   41.4947 C   0  0  0  0  0  0  0  0  0  0  0  0
   -0.2671   -3.2464   41.6546 C   0  0  0  0  0  0  0  0  0  0  0  0
    0.2407   -0.9706   41.5952 C   0  0  0  0  0  0  0  0  0  0  0  0
    1.6195   -1.2958   41.8767 C   0  0  0  0  0  0  0  0  0  0  0  0
    2.6583   -0.3517   42.0703 C   0  0  0  0  0  0  0  0  0  0  0  0
    3.9275   -0.7702   42.5387 C   0  0  0  0  0  0  0  0  0  0  0  0
    4.9444    0.0409   42.9168 C   0  0  0  0  0  0  0  0  0  0  0  0
    1.0282   -3.6847   42.0176 C   0  0  0  0  0  0  0  0  0  0  0  0
    1.9403   -2.6206   42.1877 C   0  0  0  0  0  0  0  0  0  0  0  0
   -1.9740   -1.7933   41.1166 N   0  0  0  0  0  0  0  0  0  0  0  0
    5.9833   -0.5501   43.6762 C   0  0  0  0  0  0  0  0  0  0  0  0
    5.8061   -1.8064   44.3875 C   0  0  0  0  0  0  0  0  0  0  0  0
    4.7009   -2.5495   44.0081 C   0  0  0  0  0  0  0  0  0  0  0  0
    3.7977   -2.0270   43.2702 C   0  0  0  0  0  0  0  0  0  0  0  0
    2.7756   -2.8312   42.8823 N   0  0  0  0  0  0  0  0  0  0  0  0
    6.7030   -2.3563   45.3687 C   0  0  0  0  0  0  0  0  0  0  0  0
    6.4482   -3.5226   46.0722 C   0  0  0  0  0  0  0  0  0  0  0  0
    7.2362   -3.9118   47.1606 C   0  0  0  0  0  0  0  0  0  0  0  0
    6.7229   -4.8125   48.1076 C   0  0  0  0  0  0  0  0  0  0  0  0
    7.3328   -5.1154   49.3269 C   0  0  0  0  0  0  0  0  0  0  0  0
    8.4612   -4.4227   49.7336 C   0  0  0  0  0  0  0  0  0  0  0  0
    9.0261   -3.5058   48.7958 C   0  0  0  0  0  0  0  0  0  0  0  0
    8.4191   -3.1820   47.5530 C   0  0  0  0  0  0  0  0  0  0  0  0
  1 10  1  0
 12 16  1  0
 16 17  2  3
 17 18  1  0
  1  2  2  0
  2  8  1  0
  8  9  2  0
  4  3  2  0
  3  1  1  0
  4  5  1  0
  5  6  2  0
 14 15  2  0
 15  9  1  0
  9  4  1  0
  6  7  1  0
  7 11  2  0
 11 12  1  0
 12 13  2  0
 13 14  1  0
 14  6  1  0
 18 19  2  0
 19 20  1  0
 20 21  2  0
 21 22  1  0
 22 23  2  0
 23 18  1  0
M  END
$$$$
O14757_PocketFlow_idx-in-all-generaetd-414
     RDKit          3D

 35 39  0  0  0  0  0  0  0  0999 V2000
   -0.6395   -2.0713   41.4947 C   0  0  0  0  0  0  0  0  0  0  0  0
    0.1859   -1.1027   41.5970 C   0  0  0  0  0  0  0  0  0  0  0  0
    1.5836   -1.3270   41.4670 C   0  0  0  0  0  0  0  0  0  0  0  0
   -0.2462   -3.3905   41.2409 C   0  0  0  0  0  0  0  0  0  0  0  0
    2.5675   -0.3472   41.7943 C   0  0  0  0  0  0  0  0  0  0  0  0
    3.8546   -0.6776   42.2362 C   0  0  0  0  0  0  0  0  0  0  0  0
    4.7317    0.3221   42.6999 C   0  0  0  0  0  0  0  0  0  0  0  0
    1.1458   -3.6433   41.1533 C   0  0  0  0  0  0  0  0  0  0  0  0
    2.0281   -2.5909   41.2669 C   0  0  0  0  0  0  0  0  0  0  0  0
   -2.0244   -1.8756   41.6054 O   0  0  0  0  0  0  0  0  0  0  0  0
    5.8950   -0.2245   43.4112 C   0  0  0  0  0  0  0  0  0  0  0  0
    5.8306   -1.4026   44.2000 C   0  0  0  0  0  0  0  0  0  0  0  0
    4.8052   -2.3473   43.8639 C   0  0  0  0  0  0  0  0  0  0  0  0
    3.7393   -1.9065   43.0253 C   0  0  0  0  0  0  0  0  0  0  0  0
    6.9219   -1.7611   45.0540 C   0  0  0  0  0  0  0  0  0  0  0  0
    8.1004   -1.1036   45.3238 C   0  0  0  0  0  0  0  0  0  0  0  0
    9.0105   -1.5807   46.3055 C   0  0  0  0  0  0  0  0  0  0  0  0
    8.7426   -2.7598   46.9622 C   0  0  0  0  0  0  0  0  0  0  0  0
    6.7584   -3.0276   45.8380 C   0  0  0  0  0  0  0  0  0  0  0  0
    7.6305   -3.4833   46.7149 C   0  0  0  0  0  0  0  0  0  0  0  0
    9.7655   -3.2156   47.9529 C   0  0  2  0  0  0  0  0  0  0  0  0
   10.2540   -2.6247   48.8010 C   0  0  0  0  0  0  0  0  0  0  0  0
   11.1616   -3.0122   49.8674 C   0  0  0  0  0  0  0  0  0  0  0  0
   11.4310   -2.1487   51.0090 C   0  0  0  0  0  0  0  0  0  0  0  0
   10.9769   -0.8066   51.0428 C   0  0  0  0  0  0  0  0  0  0  0  0
   10.1374   -0.3371   50.0281 C   0  0  0  0  0  0  0  0  0  0  0  0
    9.8151   -1.1525   49.0600 C   0  0  0  0  0  0  0  0  0  0  0  0
   10.8374   -3.9723   47.1507 C   0  0  0  0  0  0  0  0  0  0  0  0
   11.7928   -3.5908   46.4275 C   0  0  0  0  0  0  0  0  0  0  0  0
   10.5412   -5.4372   47.1590 C   0  0  0  0  0  0  0  0  0  0  0  0
   11.3404   -6.2845   46.3469 C   0  0  0  0  0  0  0  0  0  0  0  0
   12.7282   -4.4403   45.7572 C   0  0  0  0  0  0  0  0  0  0  0  0
   12.4256   -5.7848   45.7270 C   0  0  0  0  0  0  0  0  0  0  0  0
   -2.5084   -0.7675   40.9895 C   0  0  0  0  0  0  0  0  0  0  0  0
   11.2772    0.1037   52.1940 C   0  0  0  0  0  0  0  0  0  0  0  0
  3  5  1  0
  1 10  1  0
 12 15  1  0
 21 18  1  6
 21 28  1  0
 10 34  1  0
 25 35  1  0
 21 22  1  0
  5  6  1  0
  1  2  2  0
  2  3  1  0
  3  9  2  0
  9  8  1  0
  8  4  2  0
  4  1  1  0
 22 23  2  0
 23 24  1  0
 24 25  2  0
 25 26  1  0
 26 27  2  0
 27 22  1  0
  6  7  2  0
  7 11  1  0
 11 12  2  0
 12 13  1  0
 13 14  2  0
 14  6  1  0
 28 29  2  0
 29 32  1  0
 32 33  2  0
 33 31  1  0
 31 30  2  0
 30 28  1  0
 15 16  2  0
 16 17  1  0
 17 18  2  0
 18 20  1  0
 20 19  2  0
 19 15  1  0
M  END
$$$$
O14757_PocketFlow_idx-in-all-generaetd-415
     RDKit          3D

 34 37  0  0  0  0  0  0  0  0999 V2000
   -0.6395   -2.0713   41.4947 C   0  0  0  0  0  0  0  0  0  0  0  0
    0.1859   -1.1027   41.5970 C   0  0  0  0  0  0  0  0  0  0  0  0
    1.5858   -1.4431   41.9548 C   0  0  0  0  0  0  0  0  0  0  0  0
    1.6955   -2.6772   42.6484 C   0  0  0  0  0  0  0  0  0  0  0  0
    0.9703   -2.9873   43.5503 C   0  0  0  0  0  0  0  0  0  0  0  0
    1.4970   -4.2602   44.3153 C   0  0  0  0  0  0  0  0  0  0  0  0
    0.6607   -5.1620   44.9867 C   0  0  0  0  0  0  0  0  0  0  0  0
    0.9392   -6.4550   44.9647 C   0  0  0  0  0  0  0  0  0  0  0  0
   -0.0281   -7.3727   45.4536 C   0  0  0  0  0  0  0  0  0  0  0  0
   -1.2549   -6.9272   45.8062 C   0  0  0  0  0  0  0  0  0  0  0  0
   -2.2131   -7.9134   46.1788 C   0  0  0  0  0  0  0  0  0  0  0  0
   -0.5536   -3.1905   42.4933 C   0  0  0  0  0  0  0  0  0  0  0  0
    2.6021   -0.4281   41.7303 C   0  0  0  0  0  0  0  0  0  0  0  0
    3.2898    0.1035   42.9188 C   0  0  0  0  0  0  0  0  0  0  0  0
    4.7749    0.3836   42.7019 C   0  0  0  0  0  0  0  0  0  0  0  0
   -1.8934   -8.9488   46.8030 C   0  0  0  0  0  0  0  0  0  0  0  0
   -0.5106   -9.4001   46.7104 C   0  0  0  0  0  0  0  0  0  0  0  0
    0.4006   -8.5712   46.0838 C   0  0  0  0  0  0  0  0  0  0  0  0
   -2.0586   -2.0363   41.1400 C   0  0  0  0  0  0  0  0  0  0  0  0
    5.4823   -0.9482   43.0695 C   0  0  0  0  0  0  0  0  0  0  0  0
    5.9322   -1.0706   44.4565 C   0  0  0  0  0  0  0  0  0  0  0  0
    6.1388   -2.4037   44.9990 C   0  0  0  0  0  0  0  0  0  0  0  0
    7.0531   -2.6013   46.0923 C   0  0  0  0  0  0  0  0  0  0  0  0
    8.1804   -1.7946   46.2034 C   0  0  0  0  0  0  0  0  0  0  0  0
    9.0937   -2.0039   47.2499 C   0  0  0  0  0  0  0  0  0  0  0  0
    8.9153   -2.9803   48.1851 C   0  0  0  0  0  0  0  0  0  0  0  0
    7.7676   -3.8244   48.0245 C   0  0  0  0  0  0  0  0  0  0  0  0
    6.8914   -3.6666   46.9258 C   0  0  0  0  0  0  0  0  0  0  0  0
    5.2957   -3.4072   44.5939 C   0  0  0  0  0  0  0  0  0  0  0  0
   -0.0265  -10.8933   47.3808 Cl  0  0  0  0  0  0  0  0  0  0  0  0
   -2.6338   -0.9249   40.9332 O   0  0  0  0  0  0  0  0  0  0  0  0
   -2.6589   -3.0748   40.6539 O   0  0  0  0  0  0  0  0  0  0  0  0
    4.9426   -4.4734   45.4752 C   0  0  0  0  0  0  0  0  0  0  0  0
    5.8419   -4.6704   46.6348 C   0  0  0  0  0  0  0  0  0  0  0  0
  5  6  1  0
  6  7  1  0
  7  8  2  3
  8  9  1  0
  3 13  1  0
 13 14  1  0
 14 15  1  0
  1 19  1  0
 15 20  1  0
 20 21  1  0
 17 30  1  0
 19 31  2  0
 19 32  1  0
 21 22  1  0
  1  2  2  0
  2  3  1  0
  3  4  2  0
  4  5  1  0
  5 12  2  0
 12  1  1  0
 23 24  2  0
 24 25  1  0
 25 26  2  0
 26 27  1  0
 27 28  2  0
 22 23  1  0
 23 28  1  0
 28 34  1  0
 34 33  2  0
 33 29  1  0
 29 22  2  0
  9 10  2  0
 10 11  1  0
 11 16  2  0
 16 17  1  0
 17 18  2  0
 18  9  1  0
M  END
$$$$
O14757_PocketFlow_idx-in-all-generaetd-416
     RDKit          3D

 10 10  0  0  0  0  0  0  0  0999 V2000
   -0.6395   -2.0713   41.4947 C   0  0  0  0  0  0  0  0  0  0  0  0
    0.1859   -1.1027   41.5970 C   0  0  0  0  0  0  0  0  0  0  0  0
   -2.0077   -1.8651   41.2044 C   0  0  0  0  0  0  0  0  0  0  0  0
    1.5974   -1.2445   41.7640 C   0  0  0  0  0  0  0  0  0  0  0  0
    1.9873   -2.5402   42.2780 C   0  0  0  0  0  0  0  0  0  0  0  0
    0.9098   -3.5138   42.4627 C   0  0  0  0  0  0  0  0  0  0  0  0
   -0.3287   -3.2489   41.9834 C   0  0  0  0  0  0  0  0  0  0  0  0
   -2.9981   -1.8255   40.6225 N   0  0  0  0  0  0  0  0  0  0  0  0
    2.6702    0.0431   41.7889 Cl  0  0  0  0  0  0  0  0  0  0  0  0
    3.5013   -2.6561   43.0153 Cl  0  0  0  0  0  0  0  0  0  0  0  0
  1  3  1  0
  3  8  3  0
  4  9  1  0
  5 10  1  0
  1  2  2  0
  2  4  1  0
  4  5  2  0
  5  6  1  0
  6  7  2  0
  7  1  1  0
M  END
$$$$
O14757_PocketFlow_idx-in-all-generaetd-417
     RDKit          3D

 35 38  0  0  0  0  0  0  0  0999 V2000
    0.2881   -2.9111   42.4378 C   0  0  0  0  0  0  0  0  0  0  0  0
   -0.0650   -2.5021   41.5798 C   0  0  0  0  0  0  0  0  0  0  0  0
    1.5584   -2.5265   43.0885 C   0  0  0  0  0  0  0  0  0  0  0  0
    2.2571   -1.5118   42.4661 C   0  0  0  0  0  0  0  0  0  0  0  0
    1.6539   -0.8478   41.4018 C   0  0  0  0  0  0  0  0  0  0  0  0
    0.5161   -1.3208   40.9011 N   0  0  0  0  0  0  0  0  0  0  0  0
    3.5532   -1.1079   43.0463 C   0  0  0  0  0  0  0  0  0  0  0  0
    4.0273   -1.6419   44.2024 C   0  0  0  0  0  0  0  0  0  0  0  0
    3.4033   -2.8897   44.6618 C   0  0  0  0  0  0  0  0  0  0  0  0
    2.2079   -3.3173   44.1631 C   0  0  0  0  0  0  0  0  0  0  0  0
    1.7222   -4.5253   44.7424 C   0  0  0  0  0  0  0  0  0  0  0  0
    0.6737   -4.3318   45.3687 F   0  0  0  0  0  0  0  0  0  0  0  0
    2.6394   -5.0816   45.6046 F   0  0  0  0  0  0  0  0  0  0  0  0
    1.4605   -5.4998   43.7911 F   0  0  0  0  0  0  0  0  0  0  0  0
    4.2456    0.1022   42.5237 C   0  0  0  0  0  0  0  0  0  0  0  0
   -1.3426   -2.6855   41.1971 F   0  0  0  0  0  0  0  0  0  0  0  0
    3.8214    0.8000   41.8083 O   0  0  0  0  0  0  0  0  0  0  0  0
    5.4665    0.2563   43.0799 O   0  0  0  0  0  0  0  0  0  0  0  0
    3.9456   -3.4578   45.7309 O   0  0  0  0  0  0  0  0  0  0  0  0
    5.1705   -2.9281   46.3062 C   0  0  0  0  0  0  0  0  0  0  0  0
    6.2456   -2.4524   45.6009 C   0  0  0  0  0  0  0  0  0  0  0  0
    7.1616   -1.5636   46.0826 C   0  0  0  0  0  0  0  0  0  0  0  0
    8.3957   -2.1327   46.5949 C   0  0  0  0  0  0  0  0  0  0  0  0
    9.4460   -1.2390   46.9853 C   0  0  0  0  0  0  0  0  0  0  0  0
    8.6373   -3.5189   46.6533 C   0  0  0  0  0  0  0  0  0  0  0  0
    9.8799   -4.0240   47.0607 C   0  0  0  0  0  0  0  0  0  0  0  0
   10.6847   -1.7702   47.4341 C   0  0  0  0  0  0  0  0  0  0  0  0
   10.9054   -3.1365   47.4362 C   0  0  0  0  0  0  0  0  0  0  0  0
   10.2845   -5.4497   47.0423 C   0  0  0  0  0  0  0  0  0  0  0  0
   11.2117   -5.9037   46.3916 N   0  0  0  0  0  0  0  0  0  0  0  0
   11.4742   -7.2464   46.3001 C   0  0  0  0  0  0  0  0  0  0  0  0
    9.2696   -6.3626   47.3723 N   0  0  0  0  0  0  0  0  0  0  0  0
    9.4298   -7.6506   47.3761 C   0  0  0  0  0  0  0  0  0  0  0  0
    8.4417   -8.5727   47.8471 C   0  0  0  0  0  0  0  0  0  0  0  0
   10.5752   -8.1878   46.7258 C   0  0  0  0  0  0  0  0  0  0  0  0
 10 11  1  0
 11 12  1  0
 11 13  1  0
 11 14  1  0
  7 15  1  0
  2 16  1  0
 15 17  2  0
 15 18  1  0
  9 19  1  0
 19 20  1  0
 20 21  2  3
 21 22  1  0
 26 29  1  0
 33 34  1  0
 22 23  1  0
  4  7  2  0
  7  8  1  0
  8  9  2  0
  9 10  1  0
 10  3  2  0
  1  2  2  0
  2  6  1  0
  6  5  2  0
  5  4  1  0
  4  3  1  0
  3  1  1  0
 23 24  2  0
 24 27  1  0
 27 28  2  0
 28 26  1  0
 26 25  2  0
 25 23  1  0
 29 30  2  0
 30 31  1  0
 31 35  2  0
 35 33  1  0
 33 32  2  0
 32 29  1  0
M  END
$$$$
O14757_PocketFlow_idx-in-all-generaetd-418
     RDKit          3D

 20 22  0  0  0  0  0  0  0  0999 V2000
   -0.6395   -2.0713   41.4947 C   0  0  0  0  0  0  0  0  0  0  0  0
    0.6719   -2.2449   41.7518 C   0  0  0  0  0  0  0  0  0  0  0  0
    1.5951   -1.1948   41.6106 C   0  0  0  0  0  0  0  0  0  0  0  0
    2.9587   -1.3961   42.0240 C   0  0  0  0  0  0  0  0  0  0  0  0
    3.1652   -2.3460   43.1085 C   0  0  0  0  0  0  0  0  0  0  0  0
    4.5010   -2.4269   43.6771 C   0  0  0  0  0  0  0  0  0  0  0  0
    5.3513   -1.3399   43.5095 C   0  0  0  0  0  0  0  0  0  0  0  0
   -1.5182   -3.1745   41.5008 C   0  0  0  0  0  0  0  0  0  0  0  0
   -0.8573   -4.4481   41.5228 C   0  0  0  0  0  0  0  0  0  0  0  0
    5.0262   -0.3059   42.6537 C   0  0  0  0  0  0  0  0  0  0  0  0
    3.7577   -0.2348   42.1156 C   0  0  0  0  0  0  0  0  0  0  0  0
    0.3708   -4.6289   42.0229 C   0  0  0  0  0  0  0  0  0  0  0  0
    1.2245   -3.5058   42.0554 C   0  0  0  0  0  0  0  0  0  0  0  0
    2.4726   -3.5919   42.8007 C   0  0  0  0  0  0  0  0  0  0  0  0
    5.0515   -3.4791   44.5125 C   0  0  0  0  0  0  0  0  0  0  0  0
    4.5798   -3.5070   45.8320 C   0  0  0  0  0  0  0  0  0  0  0  0
    4.3969   -4.6855   46.5570 C   0  0  0  0  0  0  0  0  0  0  0  0
    5.2545   -5.4732   45.8911 F   0  0  0  0  0  0  0  0  0  0  0  0
    3.1182   -5.1013   46.4975 F   0  0  0  0  0  0  0  0  0  0  0  0
    4.8360   -4.5633   47.8219 F   0  0  0  0  0  0  0  0  0  0  0  0
  6 15  1  0
 15 16  1  0
 16 17  1  0
 17 18  1  0
 17 19  1  0
 17 20  1  0
  5  6  1  0
  6  7  2  0
  7 10  1  0
 10 11  2  0
 11  4  1  0
  2  3  1  0
  3  4  2  0
  4  5  1  0
  5 14  2  0
 14 13  1  0
  1  2  2  0
  2 13  1  0
 13 12  2  0
 12  9  1  0
  9  8  2  0
  8  1  1  0
M  END
$$$$
O14757_PocketFlow_idx-in-all-generaetd-419
     RDKit          3D

 35 38  0  0  0  0  0  0  0  0999 V2000
   -0.6395   -2.0713   41.4947 C   0  0  0  0  0  0  0  0  0  0  0  0
    0.1859   -1.1027   41.5970 C   0  0  0  0  0  0  0  0  0  0  0  0
    1.5836   -1.3270   41.4669 C   0  0  0  0  0  0  0  0  0  0  0  0
   -0.2462   -3.3905   41.2409 C   0  0  0  0  0  0  0  0  0  0  0  0
    2.0075   -2.6977   41.3340 C   0  0  0  0  0  0  0  0  0  0  0  0
    1.0655   -3.6470   41.1373 C   0  0  0  0  0  0  0  0  0  0  0  0
    2.5627   -0.2735   41.7330 C   0  0  0  0  0  0  0  0  0  0  0  0
    3.7051   -0.4897   42.6417 C   0  0  0  0  0  0  0  0  0  0  0  0
    3.7467   -1.5690   43.5215 C   0  0  0  0  0  0  0  0  0  0  0  0
    4.8690   -1.7138   44.3861 C   0  0  0  0  0  0  0  0  0  0  0  0
    6.0172   -0.9355   44.1268 C   0  0  0  0  0  0  0  0  0  0  0  0
    4.8194    0.3522   42.5306 C   0  0  0  0  0  0  0  0  0  0  0  0
    5.9242    0.1197   43.3488 C   0  0  0  0  0  0  0  0  0  0  0  0
    4.8773   -2.9752   45.2267 C   0  0  0  0  0  0  0  0  0  0  0  0
    3.9843   -3.9641   45.2572 C   0  0  0  0  0  0  0  0  0  0  0  0
    4.1375   -4.9802   46.1446 C   0  0  0  0  0  0  0  0  0  0  0  0
    5.1862   -4.8962   47.1377 C   0  0  0  0  0  0  0  0  0  0  0  0
    6.0339   -3.8098   47.1817 C   0  0  0  0  0  0  0  0  0  0  0  0
    5.9551   -2.8520   46.2705 C   0  0  0  0  0  0  0  0  0  0  0  0
   -2.0224   -1.8220   41.5365 O   0  0  0  0  0  0  0  0  0  0  0  0
    7.1194   -3.8230   48.2017 C   0  0  2  0  0  0  0  0  0  0  0  0
    6.7529   -3.9466   49.4255 O   0  0  0  0  0  0  0  0  0  0  0  0
    8.3993   -3.5544   47.8980 N   0  0  0  0  0  0  0  0  0  0  0  0
    9.3712   -3.5025   48.7048 C   0  0  0  0  0  0  0  0  0  0  0  0
   10.5978   -3.6812   48.2685 C   0  0  0  0  0  0  0  0  0  0  0  0
   10.8273   -3.6124   46.8849 C   0  0  0  0  0  0  0  0  0  0  0  0
    9.7084   -3.7090   46.0096 C   0  0  0  0  0  0  0  0  0  0  0  0
    8.5894   -3.7138   46.5037 C   0  0  0  0  0  0  0  0  0  0  0  0
   -2.6872   -1.3198   40.4591 C   0  0  0  0  0  0  0  0  0  0  0  0
    3.0610   -4.0083   44.3553 O   0  0  0  0  0  0  0  0  0  0  0  0
    1.8561   -4.7016   44.7734 C   0  0  0  0  0  0  0  0  0  0  0  0
    1.7670   -5.9471   44.6665 C   0  0  0  0  0  0  0  0  0  0  0  0
    0.5013   -6.5994   44.8004 C   0  0  0  0  0  0  0  0  0  0  0  0
   -0.1239   -7.1483   43.8063 C   0  0  0  0  0  0  0  0  0  0  0  0
   -1.5396   -7.6055   43.9412 C   0  0  0  0  0  0  0  0  0  0  0  0
  3  7  1  0
  7  8  1  0
 10 14  1  0
  1 20  1  0
 18 21  1  0
 21 22  1  1
 21 23  1  0
 23 24  1  0
 25 26  1  0
 26 27  1  0
 23 28  1  0
 27 28  1  0
 20 29  1  0
 15 30  1  0
 30 31  1  0
 31 32  2  3
 32 33  1  0
 33 34  2  3
 34 35  1  0
 24 25  1  0
 14 15  2  0
 15 16  1  0
 16 17  2  0
 17 18  1  0
 18 19  2  0
 19 14  1  0
  1  2  2  0
  2  3  1  0
  3  5  2  0
  5  6  1  0
  6  4  2  0
  4  1  1  0
  8  9  2  0
  9 10  1  0
 10 11  2  0
 11 13  1  0
 13 12  2  0
 12  8  1  0
M  END
$$$$
O14757_PocketFlow_idx-in-all-generaetd-420
     RDKit          3D

 17 17  0  0  0  0  0  0  0  0999 V2000
   -0.6395   -2.0713   41.4947 C   0  0  0  0  0  0  0  0  0  0  0  0
    0.1859   -1.1027   41.5970 C   0  0  0  0  0  0  0  0  0  0  0  0
    1.5836   -1.3270   41.4670 C   0  0  0  0  0  0  0  0  0  0  0  0
   -0.2462   -3.3905   41.2409 C   0  0  0  0  0  0  0  0  0  0  0  0
    2.0075   -2.6977   41.3341 C   0  0  0  0  0  0  0  0  0  0  0  0
    1.0655   -3.6470   41.1373 C   0  0  0  0  0  0  0  0  0  0  0  0
    2.4818   -0.3899   41.6447 F   0  0  0  0  0  0  0  0  0  0  0  0
   -2.0303   -1.8328   41.6063 O   0  0  0  0  0  0  0  0  0  0  0  0
   -2.8001   -1.9615   40.4981 C   0  0  0  0  0  0  0  0  0  0  0  0
   -3.9231   -1.0480   40.5061 C   0  0  0  0  0  0  0  0  0  0  0  0
   -3.8045   -0.0337   41.2585 O   0  0  0  0  0  0  0  0  0  0  0  0
   -5.0745   -1.3856   40.0904 O   0  0  0  0  0  0  0  0  0  0  0  0
   -3.1140    1.2318   40.7065 C   0  0  0  0  0  0  0  0  0  0  0  0
   -2.8302   -2.9613   39.7857 O   0  0  0  0  0  0  0  0  0  0  0  0
   -4.3059    2.1579   40.4637 C   0  0  0  0  0  0  0  0  0  0  0  0
   -4.8494    2.5214   41.5494 O   0  0  0  0  0  0  0  0  0  0  0  0
   -4.3773    2.6096   39.3841 O   0  0  0  0  0  0  0  0  0  0  0  0
  3  7  1  0
  1  8  1  0
  8  9  1  0
  9 10  1  0
 10 11  1  0
 10 12  2  0
 11 13  1  0
  9 14  2  0
 13 15  1  0
 15 16  1  0
 15 17  2  0
  1  2  2  0
  2  3  1  0
  3  5  2  0
  5  6  1  0
  6  4  2  0
  4  1  1  0
M  END
$$$$
O14757_PocketFlow_idx-in-all-generaetd-421
     RDKit          3D

 11 11  0  0  0  0  0  0  0  0999 V2000
   -0.6395   -2.0713   41.4947 C   0  0  0  0  0  0  0  0  0  0  0  0
   -0.2671   -3.2464   41.6546 C   0  0  0  0  0  0  0  0  0  0  0  0
    0.2277   -0.9875   41.6495 C   0  0  0  0  0  0  0  0  0  0  0  0
    1.6284   -1.2752   41.8841 C   0  0  0  0  0  0  0  0  0  0  0  0
    1.8971   -2.6873   42.1685 C   0  0  0  0  0  0  0  0  0  0  0  0
    3.2056   -2.9302   42.7434 C   0  0  0  0  0  0  0  0  0  0  0  0
    0.9813   -3.6325   42.0216 C   0  0  0  0  0  0  0  0  0  0  0  0
    4.0270   -1.8367   43.1221 C   0  0  0  0  0  0  0  0  0  0  0  0
    5.1680   -2.0417   43.9076 C   0  0  0  0  0  0  0  0  0  0  0  0
    5.9534   -0.9123   44.3036 C   0  0  0  0  0  0  0  0  0  0  0  0
    5.5786    0.2097   43.8029 N   0  0  0  0  0  0  0  0  0  0  0  0
  5  6  1  0
  6  8  2  3
  8  9  1  0
  9 10  1  0
 10 11  1  0
  1  2  2  0
  2  7  1  0
  7  5  2  0
  5  4  1  0
  4  3  2  0
  3  1  1  0
M  END
$$$$
O14757_PocketFlow_idx-in-all-generaetd-422
     RDKit          3D

 33 37  0  0  0  0  0  0  0  0999 V2000
   -0.6395   -2.0713   41.4947 C   0  0  0  0  0  0  0  0  0  0  0  0
   -0.2671   -3.2464   41.6546 C   0  0  0  0  0  0  0  0  0  0  0  0
    0.2277   -0.9875   41.6495 C   0  0  0  0  0  0  0  0  0  0  0  0
    1.6284   -1.2752   41.8841 C   0  0  0  0  0  0  0  0  0  0  0  0
    2.6421   -0.3335   42.0825 C   0  0  0  0  0  0  0  0  0  0  0  0
    3.8980   -0.6935   42.5215 C   0  0  0  0  0  0  0  0  0  0  0  0
    4.0537   -1.9942   43.1141 C   0  0  0  0  0  0  0  0  0  0  0  0
    2.9046   -2.8528   43.1593 C   0  0  0  0  0  0  0  0  0  0  0  0
    1.6962   -2.4158   42.6618 C   0  0  0  0  0  0  0  0  0  0  0  0
    0.7792   -3.4973   42.3933 C   0  0  0  0  0  0  0  0  0  0  0  0
    4.9935    0.0964   42.5619 N   0  0  0  0  0  0  0  0  0  0  0  0
   -1.8523   -1.7250   41.0066 F   0  0  0  0  0  0  0  0  0  0  0  0
    2.8196   -3.7542   44.3569 C   0  0  2  0  0  0  0  0  0  0  0  0
    4.0517   -4.1129   44.9830 C   0  0  0  0  0  0  0  0  0  0  0  0
    4.1398   -4.1405   46.2510 C   0  0  0  0  0  0  0  0  0  0  0  0
    5.4080   -4.2877   46.9556 C   0  0  0  0  0  0  0  0  0  0  0  0
    6.5315   -3.5240   46.5445 C   0  0  0  0  0  0  0  0  0  0  0  0
    7.8204   -3.7243   47.1175 C   0  0  0  0  0  0  0  0  0  0  0  0
    7.9499   -4.5597   48.2097 C   0  0  0  0  0  0  0  0  0  0  0  0
    6.8093   -5.1707   48.6912 C   0  0  0  0  0  0  0  0  0  0  0  0
    5.5717   -5.0571   48.1230 C   0  0  0  0  0  0  0  0  0  0  0  0
    8.9424   -2.9685   46.5319 C   0  0  0  0  0  0  0  0  0  0  0  0
    8.8361   -1.5875   46.2759 C   0  0  0  0  0  0  0  0  0  0  0  0
   10.2370   -3.5728   46.5967 C   0  0  0  0  0  0  0  0  0  0  0  0
   11.3814   -2.8631   46.3696 C   0  0  0  0  0  0  0  0  0  0  0  0
   11.2931   -1.4574   46.0798 C   0  0  0  0  0  0  0  0  0  0  0  0
   10.0228   -0.8419   46.0953 C   0  0  0  0  0  0  0  0  0  0  0  0
    2.0836   -5.0576   44.0501 C   0  0  0  0  0  0  0  0  0  0  0  0
    0.8205   -4.9879   44.0982 C   0  0  0  0  0  0  0  0  0  0  0  0
    0.9474   -4.1980   43.6339 C   0  0  2  0  0  0  0  0  0  0  0  0
   -0.2273   -3.4453   44.2813 O   0  0  0  0  0  0  0  0  0  0  0  0
   -0.3305   -3.5752   45.8018 C   0  0  0  0  0  0  0  0  0  0  0  0
    0.0403   -4.7473   46.4803 C   0  0  0  0  0  0  0  0  0  0  0  0
  6 11  1  0
  1 12  1  0
  8 13  1  0
 13 14  1  6
 14 15  2  3
 15 16  1  0
 18 22  1  0
 13 28  1  0
 28 29  2  0
 10 30  1  0
 29 30  1  0
 30 31  1  1
 31 32  1  0
 32 33  1  0
  1  2  2  0
  2 10  1  0
 10  9  2  0
  4  3  2  0
  3  1  1  0
 16 17  2  0
 17 18  1  0
 18 19  2  0
 19 20  1  0
 20 21  2  0
 21 16  1  0
 22 23  2  0
 23 27  1  0
 27 26  2  0
 26 25  1  0
 25 24  2  0
 24 22  1  0
  4  5  1  0
  5  6  2  0
  6  7  1  0
  7  8  2  0
  8  9  1  0
  9  4  1  0
M  END
$$$$
O14757_PocketFlow_idx-in-all-generaetd-423
     RDKit          3D

 35 38  0  0  0  0  0  0  0  0999 V2000
   -0.6395   -2.0713   41.4947 C   0  0  0  0  0  0  0  0  0  0  0  0
    0.1859   -1.1027   41.5970 C   0  0  0  0  0  0  0  0  0  0  0  0
    1.5836   -1.3270   41.4669 C   0  0  0  0  0  0  0  0  0  0  0  0
   -0.2462   -3.3905   41.2409 C   0  0  0  0  0  0  0  0  0  0  0  0
    2.3477   -1.2946   42.4061 C   0  0  0  0  0  0  0  0  0  0  0  0
    2.7729   -2.4267   43.1219 C   0  0  0  0  0  0  0  0  0  0  0  0
    3.9041   -2.4167   44.0670 C   0  0  0  0  0  0  0  0  0  0  0  0
    4.5712   -1.2218   44.2757 C   0  0  0  0  0  0  0  0  0  0  0  0
    4.3259   -0.1595   43.4273 C   0  0  0  0  0  0  0  0  0  0  0  0
    3.3207   -0.1444   42.5129 C   0  0  0  0  0  0  0  0  0  0  0  0
    4.1289   -3.6014   44.8700 C   0  0  0  0  0  0  0  0  0  0  0  0
    5.1563   -3.6850   45.6680 C   0  0  0  0  0  0  0  0  0  0  0  0
    5.2998   -4.8041   46.5549 C   0  0  0  0  0  0  0  0  0  0  0  0
    4.3598   -5.8073   46.5083 C   0  0  0  0  0  0  0  0  0  0  0  0
    3.3022   -4.7246   45.0700 C   0  0  0  0  0  0  0  0  0  0  0  0
    3.3955   -5.7588   45.7284 C   0  0  0  0  0  0  0  0  0  0  0  0
    2.4306   -6.8914   45.6177 C   0  0  0  0  0  0  0  0  0  0  0  0
    2.7959   -8.0217   45.7993 O   0  0  0  0  0  0  0  0  0  0  0  0
    1.1263   -6.6178   45.5758 N   0  0  0  0  0  0  0  0  0  0  0  0
    0.1062   -7.6158   45.5324 C   0  0  0  0  0  0  0  0  0  0  0  0
   -0.6672   -7.7936   46.4374 C   0  0  0  0  0  0  0  0  0  0  0  0
   -1.7930   -8.6833   46.3868 C   0  0  0  0  0  0  0  0  0  0  0  0
   -2.3454   -9.2673   47.4875 C   0  0  0  0  0  0  0  0  0  0  0  0
   -3.5136   -9.8712   47.4126 C   0  0  0  0  0  0  0  0  0  0  0  0
   -4.3052   -9.8618   46.2734 C   0  0  0  0  0  0  0  0  0  0  0  0
   -3.7832   -9.2328   45.1471 C   0  0  0  0  0  0  0  0  0  0  0  0
   -2.5345   -8.5403   45.2064 C   0  0  0  0  0  0  0  0  0  0  0  0
   -4.5338   -9.1457   43.8332 C   0  0  0  0  0  0  0  0  0  0  0  0
   -5.6878   -9.7940   43.6496 C   0  0  0  0  0  0  0  0  0  0  0  0
   -4.2253   -8.0083   42.9459 C   0  0  0  0  0  0  0  0  0  0  0  0
   -6.3436   -9.7172   42.4452 C   0  0  0  0  0  0  0  0  0  0  0  0
   -4.9740   -7.9093   41.8471 N   0  0  0  0  0  0  0  0  0  0  0  0
   -6.0075   -8.6735   41.5823 C   0  0  0  0  0  0  0  0  0  0  0  0
   -2.1120   -1.8887   41.5711 C   0  0  0  0  0  0  0  0  0  0  0  0
   -2.5268   -0.7245   41.8265 O   0  0  0  0  0  0  0  0  0  0  0  0
  1  2  1  0
  2  3  2  3
  1  4  1  0
  3  5  1  0
  7 11  1  0
 16 17  1  0
 17 18  2  0
 17 19  1  0
 19 20  1  0
 20 21  1  0
 26 28  1  0
  1 34  1  0
 34 35  2  0
 21 22  1  0
 22 23  2  0
 23 24  1  0
 24 25  2  0
 25 26  1  0
 26 27  2  0
 27 22  1  0
 11 12  2  0
 12 13  1  0
 13 14  2  0
 14 16  1  0
 16 15  2  0
 15 11  1  0
  5  6  2  0
  6  7  1  0
  7  8  2  0
  8  9  1  0
  9 10  2  0
 10  5  1  0
 28 29  2  0
 29 31  1  0
 31 33  2  0
 33 32  1  0
 32 30  2  0
 30 28  1  0
M  END
$$$$
O14757_PocketFlow_idx-in-all-generaetd-424
     RDKit          3D

 29 32  0  0  0  0  0  0  0  0999 V2000
   -0.6395   -2.0713   41.4947 C   0  0  0  0  0  0  0  0  0  0  0  0
    0.1859   -1.1027   41.5970 C   0  0  0  0  0  0  0  0  0  0  0  0
    1.5836   -1.3270   41.4669 C   0  0  0  0  0  0  0  0  0  0  0  0
   -0.2462   -3.3905   41.2409 C   0  0  0  0  0  0  0  0  0  0  0  0
    2.5788   -0.3160   41.7511 C   0  0  0  0  0  0  0  0  0  0  0  0
    3.8805   -0.6481   42.0316 C   0  0  0  0  0  0  0  0  0  0  0  0
    4.1518   -0.7742   43.4347 C   0  0  0  0  0  0  0  0  0  0  0  0
    5.5320   -1.0529   43.7958 C   0  0  0  0  0  0  0  0  0  0  0  0
    1.1622   -3.6140   41.1662 C   0  0  0  0  0  0  0  0  0  0  0  0
    2.0281   -2.6018   41.3337 C   0  0  0  0  0  0  0  0  0  0  0  0
    5.7595   -1.7902   45.0243 C   0  0  0  0  0  0  0  0  0  0  0  0
    5.6113   -3.1097   45.0954 C   0  0  0  0  0  0  0  0  0  0  0  0
    4.3753   -3.6979   44.7934 C   0  0  0  0  0  0  0  0  0  0  0  0
    3.3375   -3.2968   44.4287 C   0  0  0  0  0  0  0  0  0  0  0  0
    2.1639   -4.0782   44.3063 C   0  0  0  0  0  0  0  0  0  0  0  0
    2.2041   -5.3734   44.7115 C   0  0  0  0  0  0  0  0  0  0  0  0
    3.3854   -5.9483   45.1300 C   0  0  0  0  0  0  0  0  0  0  0  0
    4.4260   -5.1747   45.2652 C   0  0  0  0  0  0  0  0  0  0  0  0
    0.9389   -6.1819   44.5616 C   0  0  2  0  0  0  0  0  0  0  0  0
    0.0134   -6.1122   43.6432 N   0  0  0  0  0  0  0  0  0  0  0  0
    0.2905   -6.4724   45.9019 C   0  0  0  0  0  0  0  0  0  0  0  0
   -0.8376   -7.3659   45.7159 C   0  0  0  0  0  0  0  0  0  0  0  0
   -1.3742   -7.9188   46.9653 C   0  0  0  0  0  0  0  0  0  0  0  0
   -2.7138   -8.3811   46.8018 C   0  0  0  0  0  0  0  0  0  0  0  0
   -3.0178   -8.7378   45.6568 C   0  0  0  0  0  0  0  0  0  0  0  0
   -2.5037   -8.2856   44.4077 C   0  0  0  0  0  0  0  0  0  0  0  0
   -1.2967   -7.6174   44.5183 C   0  0  0  0  0  0  0  0  0  0  0  0
   -0.8367   -6.9305   43.4513 N   0  0  0  0  0  0  0  0  0  0  0  0
   -2.0065   -1.8510   41.5978 O   0  0  0  0  0  0  0  0  0  0  0  0
  3  5  1  0
  5  6  1  0
  6  7  1  0
  7  8  1  0
  8 11  1  0
 11 12  1  0
 12 13  1  0
 19 16  1  1
 19 20  1  0
 19 21  1  0
 21 22  1  0
 20 28  1  0
 27 28  1  0
  1 29  1  0
 13 14  2  0
 14 15  1  0
 15 16  2  0
 16 17  1  0
 17 18  2  0
 18 13  1  0
 22 23  2  0
 23 24  1  0
 24 25  2  0
 25 26  1  0
 26 27  2  0
 27 22  1  0
  1  2  2  0
  2  3  1  0
  3 10  2  0
 10  9  1  0
  9  4  2  0
  4  1  1  0
M  END
$$$$
O14757_PocketFlow_idx-in-all-generaetd-425
     RDKit          3D

 35 38  0  0  0  0  0  0  0  0999 V2000
   -0.6395   -2.0713   41.4947 C   0  0  0  0  0  0  0  0  0  0  0  0
    0.6719   -2.2449   41.7518 C   0  0  0  0  0  0  0  0  0  0  0  0
    1.5951   -1.1948   41.6106 C   0  0  2  0  0  0  0  0  0  0  0  0
    2.8936   -1.2860   42.2441 C   0  0  0  0  0  0  0  0  0  0  0  0
    3.7940   -0.2219   42.2897 C   0  0  0  0  0  0  0  0  0  0  0  0
   -1.5784   -3.1018   41.3985 C   0  0  0  0  0  0  0  0  0  0  0  0
    4.9967   -0.3723   43.0615 C   0  0  0  0  0  0  0  0  0  0  0  0
    5.2691   -1.5132   43.7867 C   0  0  0  0  0  0  0  0  0  0  0  0
    4.3008   -2.5888   43.7317 C   0  0  0  0  0  0  0  0  0  0  0  0
    3.1152   -2.4074   43.0118 C   0  0  0  0  0  0  0  0  0  0  0  0
   -3.0910   -2.7086   40.8345 Cl  0  0  0  0  0  0  0  0  0  0  0  0
    4.5506   -3.8195   44.4620 C   0  0  0  0  0  0  0  0  0  0  0  0
    4.0470   -4.9371   44.0424 O   0  0  0  0  0  0  0  0  0  0  0  0
    5.4138   -3.8346   45.4797 O   0  0  0  0  0  0  0  0  0  0  0  0
    4.8496   -3.4568   46.7350 C   0  0  0  0  0  0  0  0  0  0  0  0
    0.8882    0.0820   41.7209 C   0  0  0  0  0  0  0  0  0  0  0  0
   -1.0116   -0.6716   41.3363 C   0  0  0  0  0  0  0  0  0  0  0  0
   -0.3365    0.2802   41.4086 N   0  0  0  0  0  0  0  0  0  0  0  0
    5.9128   -3.5887   47.7684 C   0  0  0  0  0  0  0  0  0  0  0  0
    5.7739   -4.7009   48.7001 C   0  0  0  0  0  0  0  0  0  0  0  0
    6.9217   -4.8265   49.5752 C   0  0  0  0  0  0  0  0  0  0  0  0
    7.9480   -3.9347   49.6364 C   0  0  0  0  0  0  0  0  0  0  0  0
    8.0920   -3.0174   48.6162 C   0  0  0  0  0  0  0  0  0  0  0  0
    7.0851   -2.8832   47.6696 C   0  0  0  0  0  0  0  0  0  0  0  0
    9.0314   -4.0781   50.6279 C   0  0  2  0  0  0  0  0  0  0  0  0
    8.8498   -3.4996   51.6960 O   0  0  0  0  0  0  0  0  0  0  0  0
   10.2262   -4.2129   50.2706 N   0  0  0  0  0  0  0  0  0  0  0  0
   11.1350   -4.4048   51.1071 C   0  0  0  0  0  0  0  0  0  0  0  0
   -1.1228   -4.2756   41.4431 O   0  0  0  0  0  0  0  0  0  0  0  0
    6.8865   -1.5770   44.7030 Br  0  0  0  0  0  0  0  0  0  0  0  0
   12.4253   -4.2672   50.6694 C   0  0  0  0  0  0  0  0  0  0  0  0
   13.3925   -4.1926   51.2672 C   0  0  0  0  0  0  0  0  0  0  0  0
   13.3908   -4.4996   52.7353 C   0  0  0  0  0  0  0  0  0  0  0  0
   12.1233   -4.7216   53.2929 C   0  0  0  0  0  0  0  0  0  0  0  0
   10.9494   -4.6161   52.4641 C   0  0  0  0  0  0  0  0  0  0  0  0
  1  2  1  0
  2  3  1  0
  3  4  1  1
  1  6  2  3
  6 11  1  0
  9 12  1  0
 12 13  2  0
 12 14  1  0
 14 15  1  0
  3 16  1  0
  1 17  1  0
 16 18  1  0
 17 18  1  0
 15 19  1  0
 22 25  1  0
 25 26  1  1
 25 27  1  0
 27 28  1  0
  6 29  1  0
  8 30  1  0
  4  5  2  0
  5  7  1  0
  7  8  2  0
  8  9  1  0
  9 10  2  0
 10  4  1  0
 28 31  2  0
 31 32  1  0
 32 33  2  0
 33 34  1  0
 34 35  2  0
 35 28  1  0
 19 20  2  0
 20 21  1  0
 21 22  2  0
 22 23  1  0
 23 24  2  0
 24 19  1  0
M  END
$$$$
O14757_PocketFlow_idx-in-all-generaetd-426
     RDKit          3D

 24 25  0  0  0  0  0  0  0  0999 V2000
    0.2881   -2.9111   42.4378 C   0  0  0  0  0  0  0  0  0  0  0  0
    1.1784   -3.4293   42.9321 C   0  0  0  0  0  0  0  0  0  0  0  0
    2.4507   -2.7243   42.9621 C   0  0  0  0  0  0  0  0  0  0  0  0
    2.5762   -1.5430   42.3314 C   0  0  0  0  0  0  0  0  0  0  0  0
    0.2682   -1.7017   41.6882 C   0  0  0  0  0  0  0  0  0  0  0  0
    1.4524   -1.0424   41.6523 C   0  0  0  0  0  0  0  0  0  0  0  0
    3.6477   -3.1887   43.7399 C   0  0  0  0  0  0  0  0  0  0  0  0
    3.6644   -4.4752   44.3967 C   0  0  0  0  0  0  0  0  0  0  0  0
    4.7737   -4.7144   45.1974 C   0  0  0  0  0  0  0  0  0  0  0  0
    4.6704   -2.2959   44.0475 C   0  0  0  0  0  0  0  0  0  0  0  0
    5.7248   -2.6150   44.8931 C   0  0  0  0  0  0  0  0  0  0  0  0
    5.7820   -3.8521   45.4797 C   0  0  0  0  0  0  0  0  0  0  0  0
   -1.0972   -1.0066   40.9153 Cl  0  0  0  0  0  0  0  0  0  0  0  0
    6.8600   -1.6328   45.1247 C   0  0  0  0  0  0  0  0  0  0  0  0
    7.8407   -2.1096   45.7279 F   0  0  0  0  0  0  0  0  0  0  0  0
    6.3928   -0.5779   45.8909 F   0  0  0  0  0  0  0  0  0  0  0  0
    7.1374   -1.0193   43.9504 F   0  0  0  0  0  0  0  0  0  0  0  0
    1.6365    0.1203   41.0122 F   0  0  0  0  0  0  0  0  0  0  0  0
    1.1030   -4.5560   43.6705 F   0  0  0  0  0  0  0  0  0  0  0  0
    3.6769   -0.8097   42.2933 O   0  0  0  0  0  0  0  0  0  0  0  0
    3.6590    0.5079   42.0623 C   0  0  0  0  0  0  0  0  0  0  0  0
    4.8477    1.1602   42.3581 O   0  0  0  0  0  0  0  0  0  0  0  0
    2.6633    1.0729   41.7029 O   0  0  0  0  0  0  0  0  0  0  0  0
    1.9329    1.6981   42.7834 C   0  0  0  0  0  0  0  0  0  0  0  0
  3  7  1  0
  5 13  1  0
 11 14  1  0
 14 15  1  0
 14 16  1  0
 14 17  1  0
  6 18  1  0
  2 19  1  0
  4 20  1  0
 20 21  1  0
 21 22  2  0
 21 23  1  0
 23 24  1  0
  1  2  2  0
  2  3  1  0
  3  4  2  0
  4  6  1  0
  6  5  2  0
  5  1  1  0
  7  8  2  0
  8  9  1  0
  9 12  2  0
 12 11  1  0
 11 10  2  0
 10  7  1  0
M  END
$$$$
O14757_PocketFlow_idx-in-all-generaetd-427
     RDKit          3D

 10 10  0  0  0  0  0  0  0  0999 V2000
    0.2881   -2.9111   42.4378 C   0  0  0  0  0  0  0  0  0  0  0  0
    1.1784   -3.4293   42.9321 C   0  0  0  0  0  0  0  0  0  0  0  0
    2.4696   -2.7231   42.8997 C   0  0  0  0  0  0  0  0  0  0  0  0
    2.5030   -1.5255   42.2764 C   0  0  0  0  0  0  0  0  0  0  0  0
    0.1935   -1.7432   41.7018 C   0  0  0  0  0  0  0  0  0  0  0  0
    1.3684   -1.0498   41.6173 C   0  0  0  0  0  0  0  0  0  0  0  0
    3.6499   -3.1645   43.6843 C   0  0  0  0  0  0  0  0  0  0  0  0
    4.6958   -2.3137   44.1079 C   0  0  0  0  0  0  0  0  0  0  0  0
    4.7883   -0.9822   43.8062 C   0  0  0  0  0  0  0  0  0  0  0  0
    4.2522   -0.1830   42.7833 C   0  0  0  0  0  0  0  0  0  0  0  0
  3  7  1  0
  7  8  2  3
  8  9  1  0
  9 10  2  0
  1  2  2  0
  2  3  1  0
  3  4  2  0
  4  6  1  0
  6  5  2  0
  5  1  1  0
M  END
$$$$
O14757_PocketFlow_idx-in-all-generaetd-428
     RDKit          3D

 16 16  0  0  0  0  0  0  0  0999 V2000
   -0.6395   -2.0713   41.4947 C   0  0  0  0  0  0  0  0  0  0  0  0
    0.1859   -1.1027   41.5970 C   0  0  0  0  0  0  0  0  0  0  0  0
    1.5836   -1.3270   41.4670 C   0  0  0  0  0  0  0  0  0  0  0  0
   -0.2462   -3.3905   41.2409 C   0  0  0  0  0  0  0  0  0  0  0  0
    2.3477   -1.2946   42.4061 C   0  0  0  0  0  0  0  0  0  0  0  0
    3.4036   -0.3247   42.5566 C   0  0  0  0  0  0  0  0  0  0  0  0
    4.5039   -0.4848   43.4699 C   0  0  0  0  0  0  0  0  0  0  0  0
    4.7147   -1.6153   44.1872 C   0  0  0  0  0  0  0  0  0  0  0  0
    3.7629   -2.6659   44.0187 C   0  0  0  0  0  0  0  0  0  0  0  0
    2.6640   -2.5119   43.1170 C   0  0  0  0  0  0  0  0  0  0  0  0
    5.8703   -1.8088   45.0205 C   0  0  0  0  0  0  0  0  0  0  0  0
    5.8457   -2.3545   46.2445 C   0  0  0  0  0  0  0  0  0  0  0  0
    4.5973   -2.7116   46.8099 C   0  0  0  0  0  0  0  0  0  0  0  0
    3.6757   -3.4028   45.9764 C   0  0  0  0  0  0  0  0  0  0  0  0
    3.8125   -3.9806   44.4970 C   0  0  0  0  0  0  0  0  0  0  0  0
    3.4783   -3.6638   43.9413 F   0  0  0  0  0  0  0  0  0  0  0  0
  1  2  1  0
  2  3  2  3
  1  4  1  0
  3  5  1  0
  8 11  1  0
 11 12  1  0
 12 13  2  3
 13 14  1  0
 14 15  1  0
 15 16  1  0
  5  6  2  0
  6  7  1  0
  7  8  2  0
  8  9  1  0
  9 10  2  0
 10  5  1  0
M  END
$$$$
O14757_PocketFlow_idx-in-all-generaetd-429
     RDKit          3D

 33 35  0  0  0  0  0  0  0  0999 V2000
   -0.6395   -2.0713   41.4947 C   0  0  0  0  0  0  0  0  0  0  0  0
    0.6719   -2.2449   41.7518 C   0  0  0  0  0  0  0  0  0  0  0  0
    1.5951   -1.1948   41.6106 C   0  0  0  0  0  0  0  0  0  0  0  0
    2.9587   -1.3961   42.0240 C   0  0  0  0  0  0  0  0  0  0  0  0
    3.8815   -0.3441   42.0598 C   0  0  0  0  0  0  0  0  0  0  0  0
    5.0972   -0.5585   42.8399 C   0  0  0  0  0  0  0  0  0  0  0  0
    5.2418   -1.6670   43.6610 C   0  0  0  0  0  0  0  0  0  0  0  0
    4.2343   -2.6445   43.6677 C   0  0  0  0  0  0  0  0  0  0  0  0
    3.0537   -2.4403   42.9427 C   0  0  0  0  0  0  0  0  0  0  0  0
   -1.4996   -3.1789   41.5449 C   0  0  0  0  0  0  0  0  0  0  0  0
   -2.5863   -3.0214   40.7025 C   0  0  0  0  0  0  0  0  0  0  0  0
   -3.1607   -1.7115   40.6268 C   0  0  0  0  0  0  0  0  0  0  0  0
   -2.3875   -0.5953   40.9240 C   0  0  0  0  0  0  0  0  0  0  0  0
   -1.0958   -0.7552   41.2978 C   0  0  0  0  0  0  0  0  0  0  0  0
    4.3746   -3.8582   44.4717 C   0  0  0  0  0  0  0  0  0  0  0  0
    4.9360   -3.8338   45.7698 C   0  0  0  0  0  0  0  0  0  0  0  0
    4.8714   -4.9812   46.6478 C   0  0  0  0  0  0  0  0  0  0  0  0
    5.4648   -4.8698   47.8860 C   0  0  0  0  0  0  0  0  0  0  0  0
    6.2572   -3.7196   48.2218 C   0  0  0  0  0  0  0  0  0  0  0  0
    6.4189   -2.7218   47.3027 C   0  0  0  0  0  0  0  0  0  0  0  0
    5.7724   -2.7509   46.1280 C   0  0  0  0  0  0  0  0  0  0  0  0
    6.9354   -3.7126   49.5499 C   0  0  0  0  0  0  0  0  0  0  0  0
    8.0674   -3.7027   49.5359 O   0  0  0  0  0  0  0  0  0  0  0  0
    6.1256   -3.6115   50.5499 O   0  0  0  0  0  0  0  0  0  0  0  0
   -4.4711   -1.2946   40.0431 C   0  0  0  0  0  0  0  0  0  0  0  0
    1.3859   -0.0486   40.7941 C   0  0  0  0  0  0  0  0  0  0  0  0
    8.8317   -3.2925   50.6816 C   0  0  0  0  0  0  0  0  0  0  0  0
    9.7895   -4.0310   51.1680 C   0  0  0  0  0  0  0  0  0  0  0  0
    9.9130   -5.1195   50.8785 C   0  0  0  0  0  0  0  0  0  0  0  0
   10.9866   -6.0246   51.4050 C   0  0  0  0  0  0  0  0  0  0  0  0
   11.0745   -7.4114   51.0582 C   0  0  0  0  0  0  0  0  0  0  0  0
   10.1112   -7.8913   50.1380 C   0  0  0  0  0  0  0  0  0  0  0  0
    9.0850   -7.1249   49.6165 C   0  0  0  0  0  0  0  0  0  0  0  0
  1  2  1  0
  2  3  2  3
  3  4  1  0
  8 15  1  0
 19 22  1  0
 22 23  1  0
 22 24  2  0
 12 25  1  0
  3 26  1  0
 23 27  1  0
 27 28  1  0
 28 29  2  3
 29 30  1  0
 30 31  2  3
 31 32  1  0
 32 33  2  0
 15 16  1  0
  1 10  2  0
 10 11  1  0
 11 12  2  0
 12 13  1  0
 13 14  2  0
 14  1  1  0
 16 17  2  0
 17 18  1  0
 18 19  2  0
 19 20  1  0
 20 21  2  0
 21 16  1  0
  4  5  2  0
  5  6  1  0
  6  7  2  0
  7  8  1  0
  8  9  2  0
  9  4  1  0
M  END
$$$$
O14757_PocketFlow_idx-in-all-generaetd-430
     RDKit          3D

 35 37  0  0  0  0  0  0  0  0999 V2000
   -0.6395   -2.0713   41.4947 C   0  0  2  0  0  0  0  0  0  0  0  0
    0.6719   -2.2449   41.7518 C   0  0  0  0  0  0  0  0  0  0  0  0
    1.3815   -1.6359   42.7231 C   0  0  0  0  0  0  0  0  0  0  0  0
   -1.3884   -2.9047   40.6798 C   0  0  0  0  0  0  0  0  0  0  0  0
    2.8449   -1.5590   42.5246 C   0  0  0  0  0  0  0  0  0  0  0  0
    3.6429   -1.2822   43.6223 C   0  0  1  0  0  0  0  0  0  0  0  0
    4.1688   -2.2705   44.5006 C   0  0  0  0  0  0  0  0  0  0  0  0
    5.2079   -1.9685   45.3979 C   0  0  0  0  0  0  0  0  0  0  0  0
    5.6500   -2.9713   46.2718 C   0  0  0  0  0  0  0  0  0  0  0  0
    6.8056   -2.8039   47.0591 C   0  0  0  0  0  0  0  0  0  0  0  0
    7.2192   -3.8585   47.9436 C   0  0  0  0  0  0  0  0  0  0  0  0
    8.3911   -3.8081   48.6838 C   0  0  0  0  0  0  0  0  0  0  0  0
    3.7833   -3.6207   44.6106 C   0  0  0  0  0  0  0  0  0  0  0  0
    4.2345   -4.5872   45.4107 C   0  0  0  0  0  0  0  0  0  0  0  0
    5.2664   -4.2479   46.2826 C   0  0  0  0  0  0  0  0  0  0  0  0
    9.2141   -2.6865   48.5057 C   0  0  0  0  0  0  0  0  0  0  0  0
    8.9845   -1.7745   47.4424 C   0  0  0  0  0  0  0  0  0  0  0  0
    7.8448   -1.8551   46.7281 C   0  0  0  0  0  0  0  0  0  0  0  0
    4.2106    0.0637   43.5829 C   0  0  0  0  0  0  0  0  0  0  0  0
   -2.6940   -2.5961   40.5520 N   0  0  0  0  0  0  0  0  0  0  0  0
    3.8099   -5.9723   45.4337 C   0  0  0  0  0  0  0  0  0  0  0  0
    3.6977   -6.6820   46.4642 N   0  0  0  0  0  0  0  0  0  0  0  0
    2.9779   -6.3495   44.4589 O   0  0  0  0  0  0  0  0  0  0  0  0
   -3.0512   -1.3644   40.9854 C   0  0  0  0  0  0  0  0  0  0  0  0
   -1.5312   -0.8998   41.6763 C   0  0  0  0  0  0  0  0  0  0  0  0
    3.7193   -8.0742   46.5815 C   0  0  0  0  0  0  0  0  0  0  0  0
    2.8493   -8.5275   47.4826 C   0  0  0  0  0  0  0  0  0  0  0  0
    2.2121   -9.6754   46.9605 C   0  0  0  0  0  0  0  0  0  0  0  0
    1.1237   -9.5348   46.6940 O   0  0  0  0  0  0  0  0  0  0  0  0
    2.8284  -10.8093   46.8074 O   0  0  0  0  0  0  0  0  0  0  0  0
   10.5092   -2.5322   49.2877 C   0  0  0  0  0  0  0  0  0  0  0  0
   10.2802   -1.9124   50.5614 C   0  0  0  0  0  0  0  0  0  0  0  0
   10.6163   -2.3252   51.5101 C   0  0  0  0  0  0  0  0  0  0  0  0
   10.3024   -1.6878   52.9106 C   0  0  0  0  0  0  0  0  0  0  0  0
    9.5971   -0.4963   52.8896 C   0  0  0  0  0  0  0  0  0  0  0  0
  1  2  1  0
  2  3  2  3
  1  4  1  6
  3  5  1  0
  5  6  1  0
  6  7  1  0
  9 10  1  0
  6 19  1  6
  4 20  1  0
 14 21  1  0
 21 22  1  0
 21 23  2  0
 20 24  2  0
  1 25  1  0
 24 25  1  0
 22 26  1  0
 26 27  1  0
 27 28  1  0
 28 29  2  0
 28 30  1  0
 16 31  1  0
 31 32  1  0
 32 33  2  3
 33 34  1  0
 34 35  2  0
  7  8  2  0
  8  9  1  0
  9 15  2  0
 15 14  1  0
 14 13  2  0
 13  7  1  0
 10 11  2  0
 11 12  1  0
 12 16  2  0
 16 17  1  0
 17 18  2  0
 18 10  1  0
M  END
$$$$
O14757_PocketFlow_idx-in-all-generaetd-431
     RDKit          3D

 22 24  0  0  0  0  0  0  0  0999 V2000
    0.2881   -2.9111   42.4378 C   0  0  0  0  0  0  0  0  0  0  0  0
    1.3023   -2.0648   42.1981 C   0  0  0  0  0  0  0  0  0  0  0  0
    0.9971   -0.8647   41.5341 C   0  0  0  0  0  0  0  0  0  0  0  0
   -0.9708   -2.7453   41.8195 C   0  0  0  0  0  0  0  0  0  0  0  0
   -1.2332   -1.5945   41.2416 C   0  0  0  0  0  0  0  0  0  0  0  0
   -0.2530   -0.6553   41.0989 N   0  0  0  0  0  0  0  0  0  0  0  0
    2.1004   -0.0717   41.6314 N   0  0  0  0  0  0  0  0  0  0  0  0
    2.6020   -2.0948   42.6598 N   0  0  0  0  0  0  0  0  0  0  0  0
    3.5773   -1.3649   42.7431 C   0  0  0  0  0  0  0  0  0  0  0  0
    3.2546   -0.1199   42.1088 C   0  0  0  0  0  0  0  0  0  0  0  0
    4.7537   -1.5868   43.2472 N   0  0  0  0  0  0  0  0  0  0  0  0
    5.0743   -1.2998   44.5784 C   0  0  0  0  0  0  0  0  0  0  0  0
    6.3231   -1.8712   45.0861 C   0  0  0  0  0  0  0  0  0  0  0  0
    6.4912   -3.0783   45.8085 C   0  0  0  0  0  0  0  0  0  0  0  0
    5.3742   -3.7326   46.2803 C   0  0  0  0  0  0  0  0  0  0  0  0
    5.5734   -4.7378   47.2894 C   0  0  0  0  0  0  0  0  0  0  0  0
    6.8567   -4.8313   47.8459 C   0  0  0  0  0  0  0  0  0  0  0  0
    7.9640   -4.1049   47.3898 C   0  0  0  0  0  0  0  0  0  0  0  0
    7.7685   -3.1469   46.3619 C   0  0  0  0  0  0  0  0  0  0  0  0
   -2.4532   -1.2642   40.7915 N   0  0  0  0  0  0  0  0  0  0  0  0
    4.0628   -3.5671   45.7674 C   0  0  0  0  0  0  0  0  0  0  0  0
    0.5606   -4.1106   43.0600 O   0  0  0  0  0  0  0  0  0  0  0  0
  9 11  1  0
 11 12  1  0
 12 13  1  0
  5 20  1  0
 15 21  1  0
  1 22  1  0
 13 14  1  0
  3  7  1  0
  7 10  2  0
 10  9  1  0
  9  8  2  0
  8  2  1  0
  1  2  2  0
  2  3  1  0
  3  6  2  0
  6  5  1  0
  5  4  2  0
  4  1  1  0
 14 15  2  0
 15 16  1  0
 16 17  2  0
 17 18  1  0
 18 19  2  0
 19 14  1  0
M  END
$$$$
O14757_PocketFlow_idx-in-all-generaetd-432
     RDKit          3D

  9  9  0  0  0  0  0  0  0  0999 V2000
   -0.6395   -2.0713   41.4947 C   0  0  0  0  0  0  0  0  0  0  0  0
    0.6719   -2.2449   41.7518 C   0  0  0  0  0  0  0  0  0  0  0  0
    1.1287   -3.3339   42.4778 C   0  0  0  0  0  0  0  0  0  0  0  0
    2.4060   -3.3351   43.0418 C   0  0  0  0  0  0  0  0  0  0  0  0
    2.8579   -4.2212   44.0684 C   0  0  0  0  0  0  0  0  0  0  0  0
    4.1059   -4.0433   44.7351 C   0  0  0  0  0  0  0  0  0  0  0  0
    4.8702   -2.9091   44.3847 C   0  0  0  0  0  0  0  0  0  0  0  0
    4.3829   -1.9779   43.4584 C   0  0  0  0  0  0  0  0  0  0  0  0
    3.1528   -2.0574   42.9070 C   0  0  0  0  0  0  0  0  0  0  0  0
  1  2  1  0
  2  3  2  3
  3  4  1  0
  4  5  2  0
  5  6  1  0
  6  7  2  0
  7  8  1  0
  8  9  2  0
  9  4  1  0
M  END
$$$$
O14757_PocketFlow_idx-in-all-generaetd-433
     RDKit          3D

  8  7  0  0  0  0  0  0  0  0999 V2000
   -0.8413   -1.9048   41.7918 F   0  0  0  0  0  0  0  0  0  0  0  0
    0.3337   -2.3483   41.5607 C   0  0  0  0  0  0  0  0  0  0  0  0
    0.2040   -3.5139   41.0946 F   0  0  0  0  0  0  0  0  0  0  0  0
    1.5125   -1.7351   41.6828 C   0  0  0  0  0  0  0  0  0  0  0  0
    1.7182   -0.4419   41.3945 C   0  0  0  0  0  0  0  0  0  0  0  0
    2.8811    0.3083   41.8213 C   0  0  0  0  0  0  0  0  0  0  0  0
    3.9093   -0.3776   42.4966 C   0  0  0  0  0  0  0  0  0  0  0  0
    3.6930   -1.7428   42.9106 C   0  0  0  0  0  0  0  0  0  0  0  0
  1  2  1  0
  2  3  1  0
  2  4  1  0
  4  5  2  3
  5  6  1  0
  6  7  2  3
  7  8  1  0
M  END
$$$$
O14757_PocketFlow_idx-in-all-generaetd-434
     RDKit          3D

 35 36  0  0  0  0  0  0  0  0999 V2000
   -0.6395   -2.0713   41.4947 C   0  0  0  0  0  0  0  0  0  0  0  0
    0.1859   -1.1027   41.5970 C   0  0  0  0  0  0  0  0  0  0  0  0
    1.5858   -1.4431   41.9548 C   0  0  0  0  0  0  0  0  0  0  0  0
   -0.3290   -3.4217   41.4987 C   0  0  0  0  0  0  0  0  0  0  0  0
    1.8734   -2.7956   42.1741 C   0  0  0  0  0  0  0  0  0  0  0  0
    0.8724   -3.7449   42.0341 C   0  0  0  0  0  0  0  0  0  0  0  0
    2.6003   -0.4579   42.2422 C   0  0  0  0  0  0  0  0  0  0  0  0
    3.8739   -0.7830   42.7289 C   0  0  0  0  0  0  0  0  0  0  0  0
    4.8238    0.2207   42.9930 C   0  0  0  0  0  0  0  0  0  0  0  0
   -2.0894   -1.7442   41.0426 C   0  0  0  0  0  0  0  0  0  0  0  0
   -2.8377   -2.5893   40.5464 O   0  0  0  0  0  0  0  0  0  0  0  0
   -2.5042   -0.5289   41.2738 O   0  0  0  0  0  0  0  0  0  0  0  0
    4.2587   -2.0998   42.9755 C   0  0  0  0  0  0  0  0  0  0  0  0
    5.3687   -2.2654   43.9350 C   0  0  0  0  0  0  0  0  0  0  0  0
    5.2238   -1.9767   45.2296 C   0  0  0  0  0  0  0  0  0  0  0  0
    4.9685   -3.0544   46.1744 C   0  0  0  0  0  0  0  0  0  0  0  0
    5.8087   -3.2322   47.2371 C   0  0  0  0  0  0  0  0  0  0  0  0
    3.8414   -3.8837   45.8381 C   0  0  0  0  0  0  0  0  0  0  0  0
    5.5915   -4.4700   48.0394 C   0  0  0  0  0  0  0  0  0  0  0  0
    6.4330   -4.6026   49.2227 C   0  0  0  0  0  0  0  0  0  0  0  0
    6.8516   -5.9353   49.4897 C   0  0  0  0  0  0  0  0  0  0  0  0
    7.8967   -6.2105   49.9926 C   0  0  0  0  0  0  0  0  0  0  0  0
    8.1797   -7.6444   50.3253 C   0  0  0  0  0  0  0  0  0  0  0  0
    7.2057   -8.5919   50.0664 C   0  0  0  0  0  0  0  0  0  0  0  0
    5.9963   -8.2145   49.5089 C   0  0  0  0  0  0  0  0  0  0  0  0
    5.7615   -6.8584   49.2286 C   0  0  0  0  0  0  0  0  0  0  0  0
    3.8468   -4.7050   44.7257 C   0  0  0  0  0  0  0  0  0  0  0  0
    2.9192   -5.8203   44.6512 C   0  0  0  0  0  0  0  0  0  0  0  0
    1.7153   -5.7324   45.2792 C   0  0  0  0  0  0  0  0  0  0  0  0
    0.9510   -6.8331   45.6043 C   0  0  0  0  0  0  0  0  0  0  0  0
   -0.5319   -6.7173   45.2734 C   0  0  0  0  0  0  0  0  0  0  0  0
   -1.3997   -7.7592   45.6186 C   0  0  0  0  0  0  0  0  0  0  0  0
   -1.8376   -7.6855   46.8302 C   0  0  0  0  0  0  0  0  0  0  0  0
   -3.0225   -8.6299   47.1042 C   0  0  0  0  0  0  0  0  0  0  0  0
   -3.0698   -9.5614   46.1658 C   0  0  0  0  0  0  0  0  0  0  0  0
  3  7  1  0
  7  8  2  3
  8  9  1  0
  1 10  1  0
 10 11  2  0
 10 12  1  0
  8 13  1  0
 13 14  1  0
 14 15  1  0
 15 16  1  0
 16 17  2  3
 16 18  1  0
 17 19  1  0
 19 20  1  0
 20 21  1  0
 18 27  1  0
 27 28  2  3
 28 29  1  0
 29 30  2  3
 30 31  1  0
 31 32  1  0
 32 33  1  0
 33 34  1  0
 34 35  1  0
  1  2  2  0
  2  3  1  0
  3  5  2  0
  5  6  1  0
  6  4  2  0
  4  1  1  0
 21 22  2  0
 22 23  1  0
 23 24  2  0
 24 25  1  0
 25 26  2  0
 26 21  1  0
M  END
$$$$
O14757_PocketFlow_idx-in-all-generaetd-435
     RDKit          3D

 30 34  0  0  0  0  0  0  0  0999 V2000
   -0.6395   -2.0713   41.4947 C   0  0  0  0  0  0  0  0  0  0  0  0
   -0.2671   -3.2464   41.6546 C   0  0  0  0  0  0  0  0  0  0  0  0
    0.2277   -0.9875   41.6495 C   0  0  0  0  0  0  0  0  0  0  0  0
    1.6284   -1.2752   41.8841 C   0  0  0  0  0  0  0  0  0  0  0  0
    1.8971   -2.6873   42.1685 C   0  0  0  0  0  0  0  0  0  0  0  0
    0.9380   -3.6379   42.0922 C   0  0  0  0  0  0  0  0  0  0  0  0
    2.5827   -0.2858   42.1122 C   0  0  0  0  0  0  0  0  0  0  0  0
    3.8936   -0.5691   42.6035 C   0  0  0  0  0  0  0  0  0  0  0  0
    4.8813    0.4358   42.7715 C   0  0  0  0  0  0  0  0  0  0  0  0
   -2.0707   -1.7520   41.0734 C   0  0  0  0  0  0  0  0  0  0  0  0
   -2.6711   -0.5996   41.3421 N   0  0  0  0  0  0  0  0  0  0  0  0
   -2.7398   -2.5671   40.3221 O   0  0  0  0  0  0  0  0  0  0  0  0
    4.2097   -1.8638   43.0795 C   0  0  0  0  0  0  0  0  0  0  0  0
    5.3363   -1.9144   44.0039 C   0  0  0  0  0  0  0  0  0  0  0  0
    6.2135   -0.9279   44.2474 C   0  0  0  0  0  0  0  0  0  0  0  0
    5.9103    0.2406   43.6402 N   0  0  0  0  0  0  0  0  0  0  0  0
    7.2918   -1.1002   44.9509 N   0  0  0  0  0  0  0  0  0  0  0  0
    7.5367   -2.2577   45.7631 C   0  0  0  0  0  0  0  0  0  0  0  0
    6.5005   -3.3028   45.7068 C   0  0  0  0  0  0  0  0  0  0  0  0
    5.4512   -3.1661   44.8331 C   0  0  0  0  0  0  0  0  0  0  0  0
    8.6741   -2.2103   46.4484 N   0  0  0  0  0  0  0  0  0  0  0  0
    9.0321   -3.2606   47.3010 C   0  0  0  0  0  0  0  0  0  0  0  0
    8.5605   -4.0103   47.8980 C   0  0  0  0  0  0  0  0  0  0  0  0
    9.0545   -5.0319   48.7504 C   0  0  0  0  0  0  0  0  0  0  0  0
   10.4052   -5.0715   48.8648 C   0  0  0  0  0  0  0  0  0  0  0  0
   10.5971   -3.2095   47.4616 C   0  0  0  0  0  0  0  0  0  0  0  0
   11.1785   -4.1272   48.2466 C   0  0  0  0  0  0  0  0  0  0  0  0
    3.1629   -2.8926   42.8105 N   0  0  0  0  0  0  0  0  0  0  0  0
   -3.9069   -0.0681   40.8240 C   0  0  0  0  0  0  0  0  0  0  0  0
    9.4361   -0.9879   46.4937 C   0  0  0  0  0  0  0  0  0  0  0  0
  1 10  1  0
 10 11  1  0
 10 12  2  0
 18 21  1  0
 21 22  1  0
 11 29  1  0
 21 30  1  0
  5 28  1  0
 28 13  2  0
  8  7  2  0
  7  4  1  0
  1  2  2  0
  2  6  1  0
  6  5  2  0
  5  4  1  0
  4  3  2  0
  3  1  1  0
 22 23  2  0
 23 24  1  0
 24 25  2  0
 25 27  1  0
 27 26  2  0
 26 22  1  0
 15 17  2  0
 17 18  1  0
 18 19  2  0
 19 20  1  0
 20 14  2  0
  8  9  1  0
  9 16  2  0
 16 15  1  0
 15 14  1  0
 14 13  1  0
 13  8  1  0
M  END
$$$$
O14757_PocketFlow_idx-in-all-generaetd-436
     RDKit          3D

 11 11  0  0  0  0  0  0  0  0999 V2000
   -0.8794   -1.9236   41.9357 O   0  0  0  0  0  0  0  0  0  0  0  0
    0.3070   -1.6014   41.6735 C   0  0  1  0  0  0  0  0  0  0  0  0
    0.8076   -0.3104   41.6588 C   0  0  0  0  0  0  0  0  0  0  0  0
    2.1617   -0.1430   41.5642 C   0  0  0  0  0  0  0  0  0  0  0  0
    2.9846   -0.6822   42.4090 C   0  0  0  0  0  0  0  0  0  0  0  0
    2.7138   -2.0268   42.8403 C   0  0  0  0  0  0  0  0  0  0  0  0
    3.6373   -2.7887   43.5609 C   0  0  0  0  0  0  0  0  0  0  0  0
    4.8669   -2.1931   44.0420 C   0  0  0  0  0  0  0  0  0  0  0  0
    5.1765   -0.9155   43.6146 C   0  0  0  0  0  0  0  0  0  0  0  0
    4.3151   -0.1569   42.8116 C   0  0  0  0  0  0  0  0  0  0  0  0
    1.1271   -2.7923   41.4831 C   0  0  0  0  0  0  0  0  0  0  0  0
  1  2  1  0
  2  3  1  0
  3  4  2  3
  4  5  1  0
  2 11  1  1
  5  6  2  0
  6  7  1  0
  7  8  2  0
  8  9  1  0
  9 10  2  0
 10  5  1  0
M  END
$$$$
O14757_PocketFlow_idx-in-all-generaetd-437
     RDKit          3D

 29 32  0  0  0  0  0  0  0  0999 V2000
   -0.6395   -2.0713   41.4947 C   0  0  0  0  0  0  0  0  0  0  0  0
    0.6719   -2.2449   41.7518 C   0  0  1  0  0  0  0  0  0  0  0  0
    1.5951   -1.1948   41.6106 C   0  0  0  0  0  0  0  0  0  0  0  0
    2.8936   -1.2860   42.2441 C   0  0  0  0  0  0  0  0  0  0  0  0
    3.2021   -2.2591   43.1862 C   0  0  0  0  0  0  0  0  0  0  0  0
    4.4778   -2.3024   43.8362 C   0  0  0  0  0  0  0  0  0  0  0  0
    4.7426   -3.3366   44.7696 C   0  0  0  0  0  0  0  0  0  0  0  0
    3.7781   -4.3783   44.8929 C   0  0  0  0  0  0  0  0  0  0  0  0
    2.4629   -3.4328   43.5383 C   0  0  0  0  0  0  0  0  0  0  0  0
    2.6117   -4.3408   44.3879 C   0  0  0  0  0  0  0  0  0  0  0  0
    0.9834   -3.3323   42.8393 C   0  0  0  0  0  0  0  0  0  0  0  0
    5.4510   -1.2287   43.6367 C   0  0  0  0  0  0  0  0  0  0  0  0
    1.6210   -5.3727   44.6954 C   0  0  0  0  0  0  0  0  0  0  0  0
    1.8046   -6.6243   44.6301 C   0  0  0  0  0  0  0  0  0  0  0  0
    0.8096   -7.5774   45.0480 C   0  0  0  0  0  0  0  0  0  0  0  0
   -0.5541   -7.0569   45.1436 C   0  0  0  0  0  0  0  0  0  0  0  0
   -0.7238   -5.6444   45.2575 C   0  0  0  0  0  0  0  0  0  0  0  0
    0.3519   -4.7773   45.0320 C   0  0  0  0  0  0  0  0  0  0  0  0
   -1.6139   -7.9661   45.2437 C   0  0  0  0  0  0  0  0  0  0  0  0
   -2.4124   -8.1276   44.1763 O   0  0  0  0  0  0  0  0  0  0  0  0
   -1.9364   -8.7885   46.3747 C   0  0  0  0  0  0  0  0  0  0  0  0
   -2.9478   -9.6338   46.4362 C   0  0  0  0  0  0  0  0  0  0  0  0
   -1.2744   -0.9712   41.4884 O   0  0  0  0  0  0  0  0  0  0  0  0
   -1.4449   -3.1500   41.3831 O   0  0  0  0  0  0  0  0  0  0  0  0
    4.9967   -0.0357   43.0547 C   0  0  0  0  0  0  0  0  0  0  0  0
    3.7794   -0.0817   42.2502 C   0  0  0  0  0  0  0  0  0  0  0  0
   -3.2866  -10.1833   47.6031 C   0  0  0  0  0  0  0  0  0  0  0  0
   -2.5197   -9.8905   48.7899 C   0  0  0  0  0  0  0  0  0  0  0  0
   -1.4086   -9.0349   48.6881 C   0  0  0  0  0  0  0  0  0  0  0  0
  2  1  1  1
  2  3  1  0
  3  4  1  0
  2 11  1  0
  9 11  1  0
 10 13  1  0
 16 19  1  0
 19 20  1  0
 19 21  1  0
 21 22  2  3
  1 23  2  0
  1 24  1  0
 22 27  1  0
 27 28  2  3
 28 29  1  0
  4  5  2  0
  6 12  2  0
 12 25  1  0
 25 26  2  0
 26  4  1  0
 13 14  2  0
 14 15  1  0
 15 16  2  0
 16 17  1  0
 17 18  2  0
 18 13  1  0
  5  6  1  0
  6  7  1  0
  7  8  2  0
  8 10  1  0
 10  9  2  0
  9  5  1  0
M  END
$$$$
O14757_PocketFlow_idx-in-all-generaetd-438
     RDKit          3D

 19 20  0  0  0  0  0  0  0  0999 V2000
   -0.6395   -2.0713   41.4947 C   0  0  0  0  0  0  0  0  0  0  0  0
   -0.2671   -3.2464   41.6546 C   0  0  0  0  0  0  0  0  0  0  0  0
    0.2407   -0.9706   41.5952 C   0  0  0  0  0  0  0  0  0  0  0  0
    1.6195   -1.2958   41.8767 C   0  0  0  0  0  0  0  0  0  0  0  0
    1.9162   -2.6816   42.2016 C   0  0  0  0  0  0  0  0  0  0  0  0
    0.9422   -3.6324   42.1156 C   0  0  0  0  0  0  0  0  0  0  0  0
    2.7442   -0.4528   42.1125 C   0  0  0  0  0  0  0  0  0  0  0  0
    3.9659   -0.7365   42.6276 C   0  0  0  0  0  0  0  0  0  0  0  0
    5.0205    0.1702   42.7812 C   0  0  0  0  0  0  0  0  0  0  0  0
   -2.2817   -1.6825   40.9799 Cl  0  0  0  0  0  0  0  0  0  0  0  0
    3.9668   -1.7348   43.6904 C   0  0  0  0  0  0  0  0  0  0  0  0
    3.9135   -2.8957   43.7357 C   0  0  0  0  0  0  0  0  0  0  0  0
    2.5523   -3.3756   43.2337 C   0  0  0  0  0  0  0  0  0  0  0  0
    4.6247   -3.9269   44.4299 C   0  0  0  0  0  0  0  0  0  0  0  0
    5.7761   -3.5022   44.8164 F   0  0  0  0  0  0  0  0  0  0  0  0
    4.3776   -5.0970   44.4112 F   0  0  0  0  0  0  0  0  0  0  0  0
    5.8980    0.0032   43.6750 O   0  0  0  0  0  0  0  0  0  0  0  0
    5.1478    1.0624   41.8581 O   0  0  0  0  0  0  0  0  0  0  0  0
   -1.1752   -4.2459   41.3895 O   0  0  0  0  0  0  0  0  0  0  0  0
  4  7  1  0
  7  8  2  0
  8  9  1  0
  1 10  1  0
  8 11  1  0
 11 12  2  0
  5 13  1  0
 12 13  1  0
 12 14  1  0
 14 15  1  0
 14 16  1  0
  9 17  2  0
  9 18  1  0
  2 19  1  0
  1  2  2  0
  2  6  1  0
  6  5  2  0
  5  4  1  0
  4  3  2  0
  3  1  1  0
M  END
$$$$
O14757_PocketFlow_idx-in-all-generaetd-439
     RDKit          3D

 16 18  0  0  0  0  0  0  0  0999 V2000
    0.0138   -2.7927   42.5918 N   0  0  0  0  0  0  0  0  0  0  0  0
    1.0651   -2.2375   42.1679 C   0  0  0  0  0  0  0  0  0  0  0  0
    0.8947   -1.0867   41.3479 C   0  0  0  0  0  0  0  0  0  0  0  0
    2.1078   -0.3090   41.2076 C   0  0  0  0  0  0  0  0  0  0  0  0
    2.8351   -0.0188   42.4223 C   0  0  0  0  0  0  0  0  0  0  0  0
    3.7748   -1.1053   42.8081 C   0  0  0  0  0  0  0  0  0  0  0  0
    4.9414   -0.6947   43.6308 C   0  0  0  0  0  0  0  0  0  0  0  0
    5.7245   -1.6627   44.2290 C   0  0  0  0  0  0  0  0  0  0  0  0
    5.2135   -3.0000   44.4003 C   0  0  0  0  0  0  0  0  0  0  0  0
    3.9487   -3.2781   43.7761 C   0  0  0  0  0  0  0  0  0  0  0  0
    3.2404   -2.3051   43.1248 C   0  0  0  0  0  0  0  0  0  0  0  0
    2.2644   -2.5331   42.8404 C   0  0  0  0  0  0  0  0  0  0  0  0
    6.9281   -1.3358   44.7507 F   0  0  0  0  0  0  0  0  0  0  0  0
    0.0464   -4.1652   42.7354 C   0  0  0  0  0  0  0  0  0  0  0  0
    1.8227   -3.8836   43.3934 N   0  0  0  0  0  0  0  0  0  0  0  0
    1.0334   -4.8078   43.4434 C   0  0  0  0  0  0  0  0  0  0  0  0
  2  3  1  0
  3  4  1  0
  4  5  1  0
  5  6  1  0
 11 12  1  0
  8 13  1  0
  1  2  2  0
  2 12  1  0
 12 15  2  0
 15 16  1  0
 16 14  2  0
 14  1  1  0
  6  7  2  0
  7  8  1  0
  8  9  2  0
  9 10  1  0
 10 11  2  0
 11  6  1  0
M  END
$$$$
O14757_PocketFlow_idx-in-all-generaetd-440
     RDKit          3D

 32 36  0  0  0  0  0  0  0  0999 V2000
    0.2881   -2.9111   42.4378 C   0  0  0  0  0  0  0  0  0  0  0  0
    1.3023   -2.0648   42.1981 C   0  0  0  0  0  0  0  0  0  0  0  0
    2.5313   -2.2887   42.6989 C   0  0  0  0  0  0  0  0  0  0  0  0
    3.5918   -1.3644   42.5325 C   0  0  0  0  0  0  0  0  0  0  0  0
    4.9074   -1.6090   43.1723 C   0  0  0  0  0  0  0  0  0  0  0  0
    5.7416   -0.6023   43.5479 C   0  0  0  0  0  0  0  0  0  0  0  0
    0.5361   -4.0298   43.2741 C   0  0  0  0  0  0  0  0  0  0  0  0
    1.6942   -4.1075   44.0138 C   0  0  0  0  0  0  0  0  0  0  0  0
    2.7644   -3.2024   43.7822 C   0  0  0  0  0  0  0  0  0  0  0  0
    1.8340   -5.1757   45.0451 C   0  0  2  0  0  0  0  0  0  0  0  0
    2.7016   -4.8982   46.0317 C   0  0  0  0  0  0  0  0  0  0  0  0
    1.1782   -6.3703   44.9429 C   0  0  0  0  0  0  0  0  0  0  0  0
    0.0712   -6.6383   45.9511 C   0  0  0  0  0  0  0  0  0  0  0  0
   -0.6335   -7.6170   45.7482 C   0  0  0  0  0  0  0  0  0  0  0  0
   -2.0572   -7.5556   46.0797 C   0  0  0  0  0  0  0  0  0  0  0  0
   -2.9437   -8.4465   45.5301 C   0  0  0  0  0  0  0  0  0  0  0  0
   -3.2064   -8.2309   44.0551 C   0  0  0  0  0  0  0  0  0  0  0  0
   -4.4674   -8.6312   43.5153 C   0  0  0  0  0  0  0  0  0  0  0  0
   -5.1852   -9.5929   44.2217 C   0  0  0  0  0  0  0  0  0  0  0  0
   -4.0683   -8.9468   46.2002 C   0  0  0  0  0  0  0  0  0  0  0  0
   -5.0660   -9.5832   45.5824 N   0  0  0  0  0  0  0  0  0  0  0  0
   -0.9988   -2.8115   41.6958 C   0  0  0  0  0  0  0  0  0  0  0  0
   -1.5594   -1.6563   41.6078 O   0  0  0  0  0  0  0  0  0  0  0  0
    6.7554   -0.9020   44.4445 C   0  0  0  0  0  0  0  0  0  0  0  0
    6.7904   -2.1690   45.1990 C   0  0  0  0  0  0  0  0  0  0  0  0
    5.7371   -3.0859   44.8807 C   0  0  0  0  0  0  0  0  0  0  0  0
    4.8425   -2.7890   43.9582 C   0  0  0  0  0  0  0  0  0  0  0  0
    3.7240   -3.3976   44.4803 N   0  0  0  0  0  0  0  0  0  0  0  0
    3.9289   -4.1152   45.6491 C   0  0  2  0  0  0  0  0  0  0  0  0
    5.0134   -4.1622   46.2496 O   0  0  0  0  0  0  0  0  0  0  0  0
    6.2829   -4.3425   44.6837 F   0  0  0  0  0  0  0  0  0  0  0  0
    5.5137   -4.2486   47.3400 C   0  0  0  0  0  0  0  0  0  0  0  0
  3  4  1  0
  4  5  1  0
  8 10  1  0
 10 11  1  0
 10 12  1  6
 12 13  1  0
 13 14  2  3
 14 15  1  0
 15 16  1  0
  1 22  1  0
 22 23  2  0
  9 28  1  0
 27 28  1  0
 11 29  1  0
 28 29  1  0
 29 30  1  6
 26 31  1  0
 30 32  1  0
  1  2  2  0
  2  3  1  0
  3  9  2  0
  9  8  1  0
  8  7  2  0
  7  1  1  0
  5  6  2  0
  6 24  1  0
 24 25  2  0
 25 26  1  0
 26 27  2  0
 27  5  1  0
 16 17  2  0
 17 18  1  0
 18 19  2  0
 19 21  1  0
 21 20  2  0
 20 16  1  0
M  END
$$$$
O14757_PocketFlow_idx-in-all-generaetd-441
     RDKit          3D

 20 21  0  0  0  0  0  0  0  0999 V2000
   -0.6395   -2.0713   41.4947 C   0  0  0  0  0  0  0  0  0  0  0  0
   -0.2671   -3.2464   41.6546 C   0  0  0  0  0  0  0  0  0  0  0  0
    0.2277   -0.9875   41.6495 C   0  0  0  0  0  0  0  0  0  0  0  0
    1.6284   -1.2752   41.8841 C   0  0  0  0  0  0  0  0  0  0  0  0
    1.9209   -2.6657   42.2361 C   0  0  0  0  0  0  0  0  0  0  0  0
    3.1938   -2.8774   42.9001 C   0  0  0  0  0  0  0  0  0  0  0  0
    0.9832   -3.6161   42.1007 C   0  0  0  0  0  0  0  0  0  0  0  0
    3.9549   -1.8054   43.1446 C   0  0  0  0  0  0  0  0  0  0  0  0
    3.6998   -0.4856   42.6789 C   0  0  0  0  0  0  0  0  0  0  0  0
    2.4877   -0.2058   42.1923 C   0  0  0  0  0  0  0  0  0  0  0  0
    4.7124    0.4422   42.9245 N   0  0  0  0  0  0  0  0  0  0  0  0
   -1.8731   -1.7597   41.1023 F   0  0  0  0  0  0  0  0  0  0  0  0
    5.2434   -1.9922   43.7168 N   0  0  0  0  0  0  0  0  0  0  0  0
    5.6880   -2.9793   44.5428 C   0  0  0  0  0  0  0  0  0  0  0  0
    6.7459   -2.6346   45.4481 C   0  0  0  0  0  0  0  0  0  0  0  0
    7.1475   -3.5810   46.3976 C   0  0  0  0  0  0  0  0  0  0  0  0
    8.3781   -3.3620   47.1119 C   0  0  0  0  0  0  0  0  0  0  0  0
    9.0811   -2.1803   46.8658 C   0  0  0  0  0  0  0  0  0  0  0  0
    8.6606   -1.2484   45.9112 C   0  0  0  0  0  0  0  0  0  0  0  0
    7.5405   -1.4606   45.1962 C   0  0  0  0  0  0  0  0  0  0  0  0
  9 11  1  0
  1 12  1  0
  8 13  1  0
 13 14  1  0
 14 15  2  3
 15 16  1  0
 16 17  2  3
 17 18  1  0
 18 19  2  3
 19 20  1  0
  1  2  2  0
  2  7  1  0
  7  5  2  0
  4  3  2  0
  3  1  1  0
  4  5  1  0
  5  6  1  0
  6  8  2  0
  8  9  1  0
  9 10  2  0
 10  4  1  0
M  END
$$$$
O14757_PocketFlow_idx-in-all-generaetd-442
     RDKit          3D

 13 13  0  0  0  0  0  0  0  0999 V2000
   -0.8794   -1.9236   41.9357 O   0  0  0  0  0  0  0  0  0  0  0  0
    0.3182   -2.2442   41.7073 C   0  0  0  0  0  0  0  0  0  0  0  0
    1.3766   -1.3498   41.6019 C   0  0  0  0  0  0  0  0  0  0  0  0
    1.9368   -1.0086   42.7216 C   0  0  0  0  0  0  0  0  0  0  0  0
    3.1357   -0.0683   42.6358 C   0  0  0  0  0  0  0  0  0  0  0  0
    0.5049   -3.5596   41.8183 O   0  0  0  0  0  0  0  0  0  0  0  0
    4.3752   -0.3822   43.2065 C   0  0  0  0  0  0  0  0  0  0  0  0
    4.5808   -1.5588   43.9125 C   0  0  0  0  0  0  0  0  0  0  0  0
    5.5934   -1.6993   44.8736 C   0  0  0  0  0  0  0  0  0  0  0  0
    5.5800   -2.8199   45.7454 C   0  0  0  0  0  0  0  0  0  0  0  0
    4.6184   -3.8172   45.5914 C   0  0  0  0  0  0  0  0  0  0  0  0
    3.7507   -3.6737   44.8113 C   0  0  0  0  0  0  0  0  0  0  0  0
    3.5844   -2.5365   43.8822 C   0  0  0  0  0  0  0  0  0  0  0  0
  1  2  1  0
  2  3  1  0
  3  4  1  0
  4  5  1  0
  2  6  2  0
  5  7  1  0
  7  8  1  0
  8  9  2  0
  9 10  1  0
 10 11  2  0
 11 12  1  0
 12 13  2  0
 13  8  1  0
M  END
$$$$
O14757_PocketFlow_idx-in-all-generaetd-443
     RDKit          3D

 35 37  0  0  0  0  0  0  0  0999 V2000
    0.0138   -2.7927   42.5918 N   0  0  0  0  0  0  0  0  0  0  0  0
    1.1722   -3.1858   42.8673 C   0  0  0  0  0  0  0  0  0  0  0  0
    2.0106   -2.4736   43.6736 C   0  0  0  0  0  0  0  0  0  0  0  0
    3.0022   -3.1582   44.4022 C   0  0  0  0  0  0  0  0  0  0  0  0
    2.7765   -4.5175   44.8423 C   0  0  0  0  0  0  0  0  0  0  0  0
    1.6582   -5.1733   44.3343 C   0  0  0  0  0  0  0  0  0  0  0  0
    0.7750   -4.4320   43.5391 C   0  0  0  0  0  0  0  0  0  0  0  0
   -0.5269   -3.1759   41.3616 C   0  0  0  0  0  0  0  0  0  0  0  0
    4.2489   -2.4607   44.8645 C   0  0  0  0  0  0  0  0  0  0  0  0
    5.1151   -3.0464   45.8504 C   0  0  0  0  0  0  0  0  0  0  0  0
    6.2824   -2.3708   46.1735 C   0  0  0  0  0  0  0  0  0  0  0  0
    6.7586   -1.3855   45.2216 C   0  0  0  0  0  0  0  0  0  0  0  0
    4.8003   -1.4337   44.0565 C   0  0  0  0  0  0  0  0  0  0  0  0
    4.0836   -0.9046   42.9268 C   0  0  0  0  0  0  0  0  0  0  0  0
    6.1125   -0.9456   44.2655 C   0  0  0  0  0  0  0  0  0  0  0  0
    4.3680    0.5085   42.5793 C   0  0  0  0  0  0  0  0  0  0  0  0
    7.2037   -3.0183   47.2154 C   0  0  0  0  0  0  0  0  0  0  0  0
    6.7266   -3.9760   48.1204 C   0  0  0  0  0  0  0  0  0  0  0  0
    7.5156   -4.3556   49.2036 C   0  0  0  0  0  0  0  0  0  0  0  0
    8.7803   -3.9146   49.3548 C   0  0  0  0  0  0  0  0  0  0  0  0
    9.3385   -3.0890   48.3486 C   0  0  0  0  0  0  0  0  0  0  0  0
    8.5373   -2.5656   47.3032 C   0  0  0  0  0  0  0  0  0  0  0  0
   -1.8842   -2.6338   41.0861 C   0  0  0  0  0  0  0  0  0  0  0  0
   -2.0512   -1.2663   41.4917 C   0  0  0  0  0  0  0  0  0  0  0  0
   -1.0552   -0.5723   41.6312 O   0  0  0  0  0  0  0  0  0  0  0  0
   -3.2601   -0.8004   41.3689 O   0  0  0  0  0  0  0  0  0  0  0  0
    1.3901   -6.5522   44.7290 C   0  0  0  0  0  0  0  0  0  0  0  0
    0.8272   -6.7170   46.0747 C   0  0  0  0  0  0  0  0  0  0  0  0
   -0.5929   -7.0588   46.1007 C   0  0  0  0  0  0  0  0  0  0  0  0
   -0.9524   -7.3156   47.2791 O   0  0  0  0  0  0  0  0  0  0  0  0
   -1.2949   -7.2230   45.1153 O   0  0  0  0  0  0  0  0  0  0  0  0
    4.4673   -1.6340   41.6342 C   0  0  0  0  0  0  0  0  0  0  0  0
   10.6378   -2.5847   48.4765 N   0  0  0  0  0  0  0  0  0  0  0  0
   10.9316   -1.7780   49.4177 C   0  0  0  0  0  0  0  0  0  0  0  0
   10.2807   -1.1445   50.2634 C   0  0  0  0  0  0  0  0  0  0  0  0
  1  2  1  0
  1  8  1  0
  4  9  1  0
 13 14  1  0
 14 16  1  0
 11 17  1  0
  8 23  1  0
 23 24  1  0
 24 25  2  0
 24 26  1  0
  6 27  1  0
 27 28  1  0
 28 29  1  0
 29 30  2  0
 29 31  1  0
 14 32  1  0
 21 33  1  0
 33 34  1  0
 34 35  2  0
 17 18  2  0
 18 19  1  0
 19 20  2  0
 20 21  1  0
 21 22  2  0
 22 17  1  0
  2  3  2  0
  3  4  1  0
  4  5  2  0
  5  6  1  0
  6  7  2  0
  7  2  1  0
  9 10  2  0
 10 11  1  0
 11 12  2  0
 12 15  1  0
 15 13  2  0
 13  9  1  0
M  END
$$$$
O14757_PocketFlow_idx-in-all-generaetd-444
     RDKit          3D

 22 24  0  0  0  0  0  0  0  0999 V2000
   -0.6395   -2.0713   41.4947 C   0  0  0  0  0  0  0  0  0  0  0  0
   -0.2671   -3.2464   41.6546 C   0  0  0  0  0  0  0  0  0  0  0  0
    0.2407   -0.9706   41.5952 C   0  0  0  0  0  0  0  0  0  0  0  0
    1.6195   -1.2958   41.8767 C   0  0  0  0  0  0  0  0  0  0  0  0
    2.6583   -0.3517   42.0703 C   0  0  0  0  0  0  0  0  0  0  0  0
    3.9275   -0.7702   42.5387 C   0  0  0  0  0  0  0  0  0  0  0  0
    4.9444    0.0409   42.9168 C   0  0  0  0  0  0  0  0  0  0  0  0
    1.0282   -3.6847   42.0176 C   0  0  0  0  0  0  0  0  0  0  0  0
    1.9403   -2.6206   42.1877 C   0  0  0  0  0  0  0  0  0  0  0  0
   -1.9740   -1.7933   41.1166 N   0  0  0  0  0  0  0  0  0  0  0  0
    5.9833   -0.5502   43.6762 C   0  0  0  0  0  0  0  0  0  0  0  0
    5.8241   -1.8220   44.3305 C   0  0  0  0  0  0  0  0  0  0  0  0
    6.7539   -2.3451   45.1945 C   0  0  0  0  0  0  0  0  0  0  0  0
    6.5055   -3.5813   45.8674 C   0  0  0  0  0  0  0  0  0  0  0  0
    5.1735   -4.0608   45.7091 C   0  0  0  0  0  0  0  0  0  0  0  0
    4.2227   -3.4587   44.9422 C   0  0  0  0  0  0  0  0  0  0  0  0
    4.5098   -2.2918   44.2504 C   0  0  0  0  0  0  0  0  0  0  0  0
    3.5856   -1.8122   43.3454 C   0  0  0  0  0  0  0  0  0  0  0  0
    2.7075   -2.6984   43.0151 N   0  0  0  0  0  0  0  0  0  0  0  0
    3.2352   -1.6304   44.4076 O   0  0  0  0  0  0  0  0  0  0  0  0
    2.6273   -3.9973   43.6452 C   0  0  0  0  0  0  0  0  0  0  0  0
    3.4668   -3.6728   42.2654 C   0  0  0  0  0  0  0  0  0  0  0  0
  4  5  1  0
  1 10  1  0
  9 19  1  0
 18 20  1  0
 19 21  1  0
 19 22  1  0
  5  6  1  0
  1  2  2  0
  2  8  1  0
  8  9  2  0
  9  4  1  0
  4  3  2  0
  3  1  1  0
 12 13  1  0
 13 14  2  0
 14 15  1  0
 15 16  2  0
 16 17  1  0
  6  7  2  0
  7 11  1  0
 11 12  2  0
 12 17  1  0
 17 18  2  0
 18  6  1  0
M  END
$$$$
O14757_PocketFlow_idx-in-all-generaetd-445
     RDKit          3D

 34 38  0  0  0  0  0  0  0  0999 V2000
   -0.6395   -2.0713   41.4947 C   0  0  0  0  0  0  0  0  0  0  0  0
   -0.2671   -3.2464   41.6546 C   0  0  0  0  0  0  0  0  0  0  0  0
    0.2407   -0.9706   41.5952 C   0  0  0  0  0  0  0  0  0  0  0  0
    1.6195   -1.2958   41.8767 C   0  0  0  0  0  0  0  0  0  0  0  0
    1.9162   -2.6816   42.2016 C   0  0  0  0  0  0  0  0  0  0  0  0
    3.2242   -2.9142   42.7890 C   0  0  0  0  0  0  0  0  0  0  0  0
    0.9779   -3.6270   42.0792 C   0  0  0  0  0  0  0  0  0  0  0  0
    3.3951   -3.8582   43.8352 C   0  0  0  0  0  0  0  0  0  0  0  0
    4.2508   -3.6721   44.8770 C   0  0  0  0  0  0  0  0  0  0  0  0
    5.2473   -2.6351   44.8167 C   0  0  0  0  0  0  0  0  0  0  0  0
    5.0658   -1.6707   43.7661 C   0  0  0  0  0  0  0  0  0  0  0  0
    4.0702   -1.6857   42.9190 C   0  0  0  0  0  0  0  0  0  0  0  0
    6.3293   -2.5273   45.7723 C   0  0  0  0  0  0  0  0  0  0  0  0
    6.4300   -3.4887   46.8143 C   0  0  0  0  0  0  0  0  0  0  0  0
    7.5122   -3.4510   47.6916 C   0  0  0  0  0  0  0  0  0  0  0  0
    7.5013   -4.3820   48.8272 C   0  0  0  0  0  0  0  0  0  0  0  0
    6.2543   -4.9796   49.1338 C   0  0  0  0  0  0  0  0  0  0  0  0
    5.2130   -4.9274   48.2540 C   0  0  0  0  0  0  0  0  0  0  0  0
    5.2716   -4.1433   47.1994 C   0  0  0  0  0  0  0  0  0  0  0  0
    4.1662   -4.2949   46.2246 C   0  0  0  0  0  0  0  0  0  0  0  0
   -2.0492   -1.7385   41.0557 C   0  0  0  0  0  0  0  0  0  0  0  0
   -2.5505   -0.6044   41.3203 O   0  0  0  0  0  0  0  0  0  0  0  0
   -2.7576   -2.6250   40.5230 O   0  0  0  0  0  0  0  0  0  0  0  0
    5.9961   -0.6226   43.6733 N   0  0  0  0  0  0  0  0  0  0  0  0
    8.6657   -4.3785   49.7126 C   0  0  0  0  0  0  0  0  0  0  0  0
    9.0289   -5.4211   50.1121 O   0  0  0  0  0  0  0  0  0  0  0  0
    9.3819   -3.2012   49.8015 O   0  0  0  0  0  0  0  0  0  0  0  0
    3.1942   -5.0855   46.3546 O   0  0  0  0  0  0  0  0  0  0  0  0
    9.5711   -2.7248   51.1059 C   0  0  0  0  0  0  0  0  0  0  0  0
    8.5913   -2.5789   51.8219 C   0  0  0  0  0  0  0  0  0  0  0  0
    8.6660   -1.5001   52.8796 C   0  0  0  0  0  0  0  0  0  0  0  0
    9.8915   -0.9646   53.1937 C   0  0  0  0  0  0  0  0  0  0  0  0
   10.9508   -1.1306   52.3260 C   0  0  0  0  0  0  0  0  0  0  0  0
   10.7518   -1.8545   51.2363 C   0  0  0  0  0  0  0  0  0  0  0  0
  5  6  1  0
 10 13  1  0
  9 20  1  0
 19 20  1  0
  1 21  1  0
 21 22  2  0
 21 23  1  0
 11 24  1  0
 16 25  1  0
 25 26  2  0
 25 27  1  0
 20 28  2  0
 27 29  1  0
 13 14  1  0
  1  2  2  0
  2  7  1  0
  7  5  2  0
  5  4  1  0
  4  3  2  0
  3  1  1  0
 14 15  2  0
 15 16  1  0
 16 17  2  0
 17 18  1  0
 18 19  2  0
 19 14  1  0
  6  8  2  0
  8  9  1  0
  9 10  2  0
 10 11  1  0
 11 12  2  0
 12  6  1  0
 29 30  2  0
 30 31  1  0
 31 32  2  0
 32 33  1  0
 33 34  2  0
 34 29  1  0
M  END
$$$$
O14757_PocketFlow_idx-in-all-generaetd-446
     RDKit          3D

  8  8  0  0  0  0  0  0  0  0999 V2000
   -0.6395   -2.0713   41.4947 C   0  0  0  0  0  0  0  0  0  0  0  0
    0.1859   -1.1027   41.5970 C   0  0  0  0  0  0  0  0  0  0  0  0
    1.5836   -1.3270   41.4670 C   0  0  0  0  0  0  0  0  0  0  0  0
   -0.2462   -3.3905   41.2409 C   0  0  0  0  0  0  0  0  0  0  0  0
    2.0075   -2.6977   41.3341 C   0  0  0  0  0  0  0  0  0  0  0  0
    1.0655   -3.6470   41.1373 C   0  0  0  0  0  0  0  0  0  0  0  0
    2.7327   -0.1019   41.7587 Cl  0  0  0  0  0  0  0  0  0  0  0  0
   -2.5593   -1.5331   41.5253 Br  0  0  0  0  0  0  0  0  0  0  0  0
  3  7  1  0
  1  8  1  0
  1  2  2  0
  2  3  1  0
  3  5  2  0
  5  6  1  0
  6  4  2  0
  4  1  1  0
M  END
$$$$
O14757_PocketFlow_idx-in-all-generaetd-447
     RDKit          3D

 16 17  0  0  0  0  0  0  0  0999 V2000
   -0.8794   -1.9236   41.9357 O   0  0  0  0  0  0  0  0  0  0  0  0
    0.3182   -2.2442   41.7073 C   0  0  0  0  0  0  0  0  0  0  0  0
    1.3766   -1.3498   41.6019 C   0  0  0  0  0  0  0  0  0  0  0  0
    2.6423   -1.6963   42.1387 C   0  0  0  0  0  0  0  0  0  0  0  0
    2.7982   -2.6860   43.1645 C   0  0  0  0  0  0  0  0  0  0  0  0
    3.9993   -2.8900   43.8520 C   0  0  0  0  0  0  0  0  0  0  0  0
    5.0341   -1.8824   43.6370 C   0  0  0  0  0  0  0  0  0  0  0  0
    4.7859   -0.7912   42.8014 C   0  0  0  0  0  0  0  0  0  0  0  0
    3.5473   -0.6600   42.1796 C   0  0  0  0  0  0  0  0  0  0  0  0
    4.2062   -3.9920   44.7248 C   0  0  0  0  0  0  0  0  0  0  0  0
    4.7795   -3.8684   45.9932 C   0  0  0  0  0  0  0  0  0  0  0  0
    4.9565   -4.9708   46.8736 C   0  0  0  0  0  0  0  0  0  0  0  0
    4.2552   -6.1308   46.4518 C   0  0  0  0  0  0  0  0  0  0  0  0
    3.6747   -5.2530   44.4641 C   0  0  0  0  0  0  0  0  0  0  0  0
    3.7464   -6.2630   45.2571 C   0  0  0  0  0  0  0  0  0  0  0  0
    0.5342   -3.5160   42.0734 O   0  0  0  0  0  0  0  0  0  0  0  0
  1  2  1  0
  2  3  1  0
  3  4  1  0
  6 10  1  0
  2 16  2  0
 10 11  2  0
 11 12  1  0
 12 13  2  0
 13 15  1  0
 15 14  2  0
 14 10  1  0
  4  5  2  0
  5  6  1  0
  6  7  2  0
  7  8  1  0
  8  9  2  0
  9  4  1  0
M  END
$$$$
O14757_PocketFlow_idx-in-all-generaetd-448
     RDKit          3D

 21 23  0  0  0  0  0  0  0  0999 V2000
    0.2881   -2.9111   42.4378 C   0  0  0  0  0  0  0  0  0  0  0  0
    1.1784   -3.4293   42.9321 C   0  0  0  0  0  0  0  0  0  0  0  0
    2.4507   -2.7243   42.9621 C   0  0  0  0  0  0  0  0  0  0  0  0
    3.6020   -3.2282   43.7398 C   0  0  1  0  0  0  0  0  0  0  0  0
    4.7688   -2.4047   43.9090 C   0  0  0  0  0  0  0  0  0  0  0  0
    4.8764   -1.1559   43.2997 C   0  0  0  0  0  0  0  0  0  0  0  0
    3.7207   -0.7182   42.6174 C   0  0  0  0  0  0  0  0  0  0  0  0
    2.6629   -1.4415   42.4870 C   0  0  0  0  0  0  0  0  0  0  0  0
    0.3410   -1.7003   41.6845 C   0  0  0  0  0  0  0  0  0  0  0  0
    1.4887   -0.9391   41.7347 C   0  0  0  0  0  0  0  0  0  0  0  0
    3.5910   -4.5200   44.4112 C   0  0  0  0  0  0  0  0  0  0  0  0
    3.9522   -4.6296   45.7945 C   0  0  0  0  0  0  0  0  0  0  0  0
    4.1269   -5.9328   46.3553 C   0  0  0  0  0  0  0  0  0  0  0  0
   -0.9704   -1.1364   41.1811 C   0  0  0  0  0  0  0  0  0  0  0  0
   -1.8249   -1.2724   42.1528 F   0  0  0  0  0  0  0  0  0  0  0  0
    3.4107   -6.9487   45.8187 C   0  0  0  0  0  0  0  0  0  0  0  0
    2.3070   -6.7111   45.2441 C   0  0  0  0  0  0  0  0  0  0  0  0
    2.6239   -5.5690   44.1128 C   0  0  0  0  0  0  0  0  0  0  0  0
    3.8443    0.5380   42.0528 O   0  0  0  0  0  0  0  0  0  0  0  0
   -0.8686    0.2586   40.9933 F   0  0  0  0  0  0  0  0  0  0  0  0
   -1.4350   -1.7740   40.2095 F   0  0  0  0  0  0  0  0  0  0  0  0
  3  4  1  0
  4  5  1  0
  6  7  1  0
  7  8  1  0
  4 11  1  1
  9 14  1  0
 14 15  1  0
  7 19  2  0
 14 20  1  0
 14 21  1  0
  6  5  1  0
  1  2  2  0
  2  3  1  0
  3  8  2  0
  8 10  1  0
 10  9  2  0
  9  1  1  0
 11 12  2  0
 12 13  1  0
 13 16  2  0
 16 17  1  0
 17 18  2  0
 18 11  1  0
M  END
$$$$
O14757_PocketFlow_idx-in-all-generaetd-449
     RDKit          3D

 35 36  0  0  0  0  0  0  0  0999 V2000
   -0.6395   -2.0713   41.4947 C   0  0  0  0  0  0  0  0  0  0  0  0
    0.1859   -1.1027   41.5970 C   0  0  0  0  0  0  0  0  0  0  0  0
    1.5836   -1.3270   41.4670 C   0  0  0  0  0  0  0  0  0  0  0  0
   -0.2462   -3.3905   41.2409 C   0  0  0  0  0  0  0  0  0  0  0  0
    2.0578   -2.6838   41.5381 C   0  0  0  0  0  0  0  0  0  0  0  0
    1.0785   -3.6429   41.2820 C   0  0  0  0  0  0  0  0  0  0  0  0
   -2.0303   -1.7874   41.4534 N   0  0  0  0  0  0  0  0  0  0  0  0
    2.5507   -0.2326   41.7357 C   0  0  0  0  0  0  0  0  0  0  0  0
    3.2645   -0.1059   43.0112 C   0  0  0  0  0  0  0  0  0  0  0  0
    4.7189    0.0771   42.9290 C   0  0  0  0  0  0  0  0  0  0  0  0
    5.4256   -0.7405   43.8889 C   0  0  0  0  0  0  0  0  0  0  0  0
    4.8643   -1.3663   44.9740 C   0  0  0  0  0  0  0  0  0  0  0  0
    5.1896   -2.6833   45.2705 C   0  0  0  0  0  0  0  0  0  0  0  0
    4.3499   -3.7745   45.2653 C   0  0  0  0  0  0  0  0  0  0  0  0
    3.4797   -4.0278   45.8594 C   0  0  0  0  0  0  0  0  0  0  0  0
    2.5137   -5.1728   45.7099 C   0  0  0  0  0  0  0  0  0  0  0  0
    3.0978   -6.2876   45.1729 C   0  0  0  0  0  0  0  0  0  0  0  0
    2.1962   -7.3684   45.0085 C   0  0  0  0  0  0  0  0  0  0  0  0
    1.0530   -7.3125   45.8378 C   0  0  0  0  0  0  0  0  0  0  0  0
   -0.0687   -6.7816   45.2307 C   0  0  0  0  0  0  0  0  0  0  0  0
   -1.3602   -6.9741   45.8013 C   0  0  0  0  0  0  0  0  0  0  0  0
   -1.8177   -8.3541   45.6842 C   0  0  0  0  0  0  0  0  0  0  0  0
   -2.7860   -8.6234   45.4175 C   0  0  0  0  0  0  0  0  0  0  0  0
   -3.5654   -9.8714   45.6726 C   0  0  0  0  0  0  0  0  0  0  0  0
   -3.6451   -7.9001   44.3064 C   0  0  0  0  0  0  0  0  0  0  0  0
   -4.8794   -8.3720   43.8259 C   0  0  0  0  0  0  0  0  0  0  0  0
   -5.4240   -7.6422   42.7807 C   0  0  0  0  0  0  0  0  0  0  0  0
   -4.7339  -10.3153   45.1876 C   0  0  0  0  0  0  0  0  0  0  0  0
   -5.3662   -9.5358   44.2383 C   0  0  0  0  0  0  0  0  0  0  0  0
   -6.4837   -6.7433   43.1467 C   0  0  0  0  0  0  0  0  0  0  0  0
    6.5870   -2.7808   45.8228 C   0  0  0  0  0  0  0  0  0  0  0  0
    7.0452   -4.0439   46.3184 C   0  0  0  0  0  0  0  0  0  0  0  0
    7.8646   -3.9165   47.4549 C   0  0  0  0  0  0  0  0  0  0  0  0
    9.0870   -3.1948   47.3684 C   0  0  0  0  0  0  0  0  0  0  0  0
    8.9213   -2.0096   46.4665 C   0  0  0  0  0  0  0  0  0  0  0  0
  1  7  1  0
  3  8  1  0
  8  9  1  0
  9 10  1  0
 10 11  1  0
 11 12  1  0
 12 13  1  0
 13 14  2  3
 14 15  1  0
 15 16  2  3
 16 17  1  0
 17 18  1  0
 18 19  1  0
 19 20  1  0
 20 21  2  3
 21 22  1  0
 26 27  1  0
 27 30  1  0
 13 31  1  0
 31 32  2  3
 32 33  1  0
 33 34  2  3
 34 35  1  0
 22 23  1  0
  1  2  2  0
  2  3  1  0
  3  5  2  0
  5  6  1  0
  6  4  2  0
  4  1  1  0
 23 24  2  0
 24 28  1  0
 28 29  2  0
 29 26  1  0
 26 25  2  0
 25 23  1  0
M  END
$$$$
O14757_PocketFlow_idx-in-all-generaetd-450
     RDKit          3D

 22 25  0  0  0  0  0  0  0  0999 V2000
   -0.6395   -2.0713   41.4947 C   0  0  1  0  0  0  0  0  0  0  0  0
   -0.2671   -3.2464   41.6546 C   0  0  0  0  0  0  0  0  0  0  0  0
   -2.0053   -1.6706   41.3987 C   0  0  0  0  0  0  0  0  0  0  0  0
   -2.3187   -0.3966   41.5492 O   0  0  0  0  0  0  0  0  0  0  0  0
    0.6088   -3.5822   42.7432 C   0  0  0  0  0  0  0  0  0  0  0  0
    0.4310   -4.4360   43.8071 C   0  0  0  0  0  0  0  0  0  0  0  0
    1.5064   -4.4399   44.7944 C   0  0  0  0  0  0  0  0  0  0  0  0
    2.6619   -3.6504   44.6024 C   0  0  0  0  0  0  0  0  0  0  0  0
    1.9751   -2.8796   42.8969 C   0  0  0  0  0  0  0  0  0  0  0  0
    2.8779   -2.8477   43.7328 C   0  0  0  0  0  0  0  0  0  0  0  0
    4.0275   -1.9970   43.6452 C   0  0  2  0  0  0  0  0  0  0  0  0
    5.1814   -2.2685   44.5347 C   0  0  0  0  0  0  0  0  0  0  0  0
    5.1352   -3.4792   45.2733 C   0  0  0  0  0  0  0  0  0  0  0  0
    3.8829   -4.1312   45.4337 C   0  0  0  0  0  0  0  0  0  0  0  0
    4.1636   -0.8104   42.8211 C   0  0  2  0  0  0  0  0  0  0  0  0
    4.7829    0.2032   43.2594 Cl  0  0  0  0  0  0  0  0  0  0  0  0
   -2.9232   -2.4902   41.1584 O   0  0  0  0  0  0  0  0  0  0  0  0
    3.1386   -0.8967   41.8866 N   0  0  0  0  0  0  0  0  0  0  0  0
    2.0804   -1.7199   41.8720 C   0  0  2  0  0  0  0  0  0  0  0  0
    0.1967   -0.8199   41.7405 C   0  0  0  0  0  0  0  0  0  0  0  0
    1.0801   -0.6559   41.8286 C   0  0  0  0  0  0  0  0  0  0  0  0
    3.8572   -5.1165   46.3063 F   0  0  0  0  0  0  0  0  0  0  0  0
  1  2  1  0
  1  3  1  1
  3  4  1  0
  2  5  1  0
  5  6  2  0
  6  7  1  0
  7  8  2  0
  5  9  1  0
  8 10  1  0
  9 10  2  0
 10 11  1  0
 11 12  1  1
 12 13  2  0
  8 14  1  0
 13 14  1  0
 11 15  1  0
 15 16  1  1
  3 17  2  0
 15 18  1  0
  9 19  1  0
 19 18  1  1
  1 20  1  0
 19 21  1  0
 20 21  2  0
 14 22  1  0
M  END
$$$$
O14757_PocketFlow_idx-in-all-generaetd-451
     RDKit          3D

 14 15  0  0  0  0  0  0  0  0999 V2000
   -0.6395   -2.0713   41.4947 C   0  0  0  0  0  0  0  0  0  0  0  0
    0.6719   -2.2449   41.7518 C   0  0  0  0  0  0  0  0  0  0  0  0
    1.5951   -1.1948   41.6106 C   0  0  0  0  0  0  0  0  0  0  0  0
    1.2208    0.0789   41.5217 C   0  0  0  0  0  0  0  0  0  0  0  0
   -1.0553   -0.6908   41.3532 C   0  0  0  0  0  0  0  0  0  0  0  0
   -0.1561    0.2699   41.3309 N   0  0  0  0  0  0  0  0  0  0  0  0
   -2.3421   -0.3927   41.2319 N   0  0  0  0  0  0  0  0  0  0  0  0
    2.8879   -1.6047   41.9607 N   0  0  0  0  0  0  0  0  0  0  0  0
    3.1393   -2.3830   43.0882 C   0  0  0  0  0  0  0  0  0  0  0  0
    4.4620   -2.3351   43.6950 C   0  0  0  0  0  0  0  0  0  0  0  0
    4.7059   -3.2346   44.7511 C   0  0  0  0  0  0  0  0  0  0  0  0
    3.6772   -4.1282   45.1333 C   0  0  0  0  0  0  0  0  0  0  0  0
    2.3340   -3.4128   43.6189 C   0  0  0  0  0  0  0  0  0  0  0  0
    2.5272   -4.1947   44.6109 C   0  0  0  0  0  0  0  0  0  0  0  0
  5  7  1  0
  3  8  1  0
  8  9  1  0
  1  2  2  0
  2  3  1  0
  3  4  2  0
  4  6  1  0
  6  5  2  0
  5  1  1  0
  9 10  2  0
 10 11  1  0
 11 12  2  0
 12 14  1  0
 14 13  2  0
 13  9  1  0
M  END
$$$$
O14757_PocketFlow_idx-in-all-generaetd-452
     RDKit          3D

 35 38  0  0  0  0  0  0  0  0999 V2000
   -0.6395   -2.0713   41.4947 C   0  0  0  0  0  0  0  0  0  0  0  0
   -0.2671   -3.2464   41.6546 C   0  0  0  0  0  0  0  0  0  0  0  0
   -2.0053   -1.6706   41.3987 C   0  0  0  0  0  0  0  0  0  0  0  0
   -2.2928   -0.3176   41.3208 C   0  0  0  0  0  0  0  0  0  0  0  0
   -3.5679   -0.0116   41.1750 N   0  0  0  0  0  0  0  0  0  0  0  0
    0.4132   -1.0390   41.4557 C   0  0  0  0  0  0  0  0  0  0  0  0
    1.7546   -1.3379   41.5356 C   0  0  0  0  0  0  0  0  0  0  0  0
    2.7371   -0.3829   41.6403 C   0  0  0  0  0  0  0  0  0  0  0  0
    3.3245   -0.1512   42.9288 C   0  0  0  0  0  0  0  0  0  0  0  0
    4.8183    0.0923   42.8712 C   0  0  0  0  0  0  0  0  0  0  0  0
    1.1164   -3.5520   41.9286 N   0  0  0  0  0  0  0  0  0  0  0  0
    1.9930   -2.6008   41.9288 C   0  0  0  0  0  0  0  0  0  0  0  0
    5.4587   -0.7419   43.9372 C   0  0  0  0  0  0  0  0  0  0  0  0
    5.0880   -2.0443   44.1991 C   0  0  0  0  0  0  0  0  0  0  0  0
    5.7019   -2.7188   45.2754 C   0  0  0  0  0  0  0  0  0  0  0  0
    6.9993   -2.2918   45.7039 C   0  0  0  0  0  0  0  0  0  0  0  0
    7.5110   -1.0782   45.2031 C   0  0  0  0  0  0  0  0  0  0  0  0
    6.8078   -0.3213   44.3694 C   0  0  0  0  0  0  0  0  0  0  0  0
    7.5877   -3.2393   46.6630 C   0  0  0  0  0  0  0  0  0  0  0  0
    8.9619   -3.2750   46.9186 C   0  0  0  0  0  0  0  0  0  0  0  0
    9.5011   -4.2289   47.8067 C   0  0  0  0  0  0  0  0  0  0  0  0
    8.6194   -5.1575   48.4354 C   0  0  0  0  0  0  0  0  0  0  0  0
    6.9995   -4.3239   47.4322 C   0  0  0  0  0  0  0  0  0  0  0  0
    7.3618   -5.0936   48.3199 C   0  0  0  0  0  0  0  0  0  0  0  0
    6.4240   -6.0147   48.9779 C   0  0  0  0  0  0  0  0  0  0  0  0
    6.1875   -5.7424   50.1640 O   0  0  0  0  0  0  0  0  0  0  0  0
    5.7910   -6.9049   48.3504 O   0  0  0  0  0  0  0  0  0  0  0  0
   10.9863   -4.2609   47.9331 C   0  0  0  0  0  0  0  0  0  0  0  0
   11.5544   -5.2118   47.7101 C   0  0  0  0  0  0  0  0  0  0  0  0
   12.9939   -5.2880   47.6911 C   0  0  0  0  0  0  0  0  0  0  0  0
   13.7138   -4.1191   47.9032 C   0  0  0  0  0  0  0  0  0  0  0  0
   11.6231   -2.9810   48.1257 C   0  0  0  0  0  0  0  0  0  0  0  0
   13.0282   -2.9011   48.1321 C   0  0  0  0  0  0  0  0  0  0  0  0
    6.0898   -8.2681   48.6675 C   0  0  0  0  0  0  0  0  0  0  0  0
    5.1245   -9.0555   47.9229 C   0  0  0  0  0  0  0  0  0  0  0  0
  3  4  1  0
  4  5  1  0
  7  8  1  0
  8  9  1  0
  9 10  1  0
 10 13  1  0
 16 19  1  0
 24 25  1  0
 25 26  2  0
 25 27  1  0
 21 28  1  0
 27 34  1  0
 34 35  1  0
  3  1  1  0
 28 29  2  0
 29 30  1  0
 30 31  2  0
 31 33  1  0
 33 32  2  0
 32 28  1  0
 13 14  2  0
 14 15  1  0
 15 16  2  0
 16 17  1  0
 17 18  2  0
 18 13  1  0
  1  2  2  0
  2 11  1  0
 11 12  2  0
 12  7  1  0
  7  6  2  0
  6  1  1  0
 19 20  2  0
 20 21  1  0
 21 22  2  0
 22 24  1  0
 24 23  2  0
 23 19  1  0
M  END
$$$$
O14757_PocketFlow_idx-in-all-generaetd-453
     RDKit          3D

 32 37  0  0  0  0  0  0  0  0999 V2000
   -0.6395   -2.0713   41.4947 C   0  0  0  0  0  0  0  0  0  0  0  0
    0.6719   -2.2449   41.7518 C   0  0  0  0  0  0  0  0  0  0  0  0
    1.5951   -1.1948   41.6106 C   0  0  0  0  0  0  0  0  0  0  0  0
    2.8936   -1.2860   42.2441 C   0  0  0  0  0  0  0  0  0  0  0  0
    3.0768   -1.4473   43.4477 C   0  0  0  0  0  0  0  0  0  0  0  0
    4.4977   -1.3423   43.9839 C   0  0  0  0  0  0  0  0  0  0  0  0
    5.2872   -0.2693   43.6438 C   0  0  0  0  0  0  0  0  0  0  0  0
   -1.1430   -0.7808   41.4200 C   0  0  0  0  0  0  0  0  0  0  0  0
    4.9272   -2.3705   44.8940 C   0  0  0  0  0  0  0  0  0  0  0  0
    6.1447   -2.3350   45.5301 C   0  0  0  0  0  0  0  0  0  0  0  0
    6.5969   -3.3935   46.2914 C   0  0  0  0  0  0  0  0  0  0  0  0
    7.9435   -3.3767   46.8654 C   0  0  0  0  0  0  0  0  0  0  0  0
    8.3838   -4.3799   47.7486 C   0  0  0  0  0  0  0  0  0  0  0  0
    7.3902   -5.2352   48.2721 C   0  0  0  0  0  0  0  0  0  0  0  0
    7.7680   -6.1580   49.2654 C   0  0  0  0  0  0  0  0  0  0  0  0
   -2.5721   -0.7014   41.1815 C   0  0  0  0  0  0  0  0  0  0  0  0
    9.0259   -6.0786   49.8261 C   0  0  0  0  0  0  0  0  0  0  0  0
    9.6311   -4.3278   48.3208 C   0  0  0  0  0  0  0  0  0  0  0  0
    9.9662   -5.2242   49.3196 C   0  0  0  0  0  0  0  0  0  0  0  0
    8.6906   -2.1525   46.6750 C   0  0  0  0  0  0  0  0  0  0  0  0
   10.0089   -1.9636   47.2117 C   0  0  0  0  0  0  0  0  0  0  0  0
   10.5031   -3.0962   48.0827 C   0  0  0  0  0  0  0  0  0  0  0  0
   -3.2298   -1.7677   40.6315 C   0  0  0  0  0  0  0  0  0  0  0  0
   -2.5904   -3.0297   40.5355 C   0  0  0  0  0  0  0  0  0  0  0  0
   -1.3759   -3.1443   41.0157 C   0  0  0  0  0  0  0  0  0  0  0  0
    4.0537   -3.4689   45.1913 C   0  0  0  0  0  0  0  0  0  0  0  0
    4.0323   -4.1991   46.2825 C   0  0  0  0  0  0  0  0  0  0  0  0
    5.5785   -4.3417   46.8199 C   0  0  0  0  0  0  0  0  0  0  0  0
    6.0233   -5.2879   47.7880 C   0  0  0  0  0  0  0  0  0  0  0  0
    4.9468    0.3246   42.3897 N   0  0  0  0  0  0  0  0  0  0  0  0
    3.6831    0.0625   41.8633 C   0  0  0  0  0  0  0  0  0  0  0  0
    1.1235   -3.3209   42.4422 O   0  0  0  0  0  0  0  0  0  0  0  0
  1  2  1  0
  2  3  1  0
  3  4  1  0
  6  9  1  0
 12 20  1  0
 20 21  1  0
 18 22  1  0
 21 22  1  0
  2 32  2  0
  4  5  2  0
  5  6  1  0
  6  7  2  0
  7 30  1  0
 30 31  2  0
 31  4  1  0
  1  8  2  0
  8 16  1  0
 16 23  2  0
 23 24  1  0
 24 25  2  0
 25  1  1  0
 11 12  2  0
 12 13  1  0
 14 29  1  0
 29 28  2  0
 13 14  2  0
 14 15  1  0
 15 17  2  0
 17 19  1  0
 19 18  2  0
 18 13  1  0
  9 10  2  0
 10 11  1  0
 11 28  1  0
 28 27  1  0
 27 26  2  0
 26  9  1  0
M  END
$$$$
O14757_PocketFlow_idx-in-all-generaetd-454
     RDKit          3D

 28 31  0  0  0  0  0  0  0  0999 V2000
   -0.8794   -1.9236   41.9357 O   0  0  0  0  0  0  0  0  0  0  0  0
    0.3070   -1.6014   41.6735 C   0  0  0  0  0  0  0  0  0  0  0  0
    0.8076   -0.3104   41.6588 C   0  0  0  0  0  0  0  0  0  0  0  0
    2.1617   -0.1430   41.5642 C   0  0  0  0  0  0  0  0  0  0  0  0
    3.0186   -1.2162   41.8562 C   0  0  0  0  0  0  0  0  0  0  0  0
    2.4453   -2.4294   42.2584 C   0  0  0  0  0  0  0  0  0  0  0  0
    1.0999   -2.5846   42.3063 C   0  0  0  0  0  0  0  0  0  0  0  0
    0.5183   -3.8599   42.7045 C   0  0  0  0  0  0  0  0  0  0  0  0
    0.6456   -4.2886   43.8855 O   0  0  0  0  0  0  0  0  0  0  0  0
    1.3975   -5.3187   44.2269 C   0  0  0  0  0  0  0  0  0  0  0  0
    2.5334   -5.1729   45.0089 C   0  0  0  0  0  0  0  0  0  0  0  0
    3.5686   -6.1649   45.0088 C   0  0  0  0  0  0  0  0  0  0  0  0
    3.1002   -7.3753   44.5041 C   0  0  0  0  0  0  0  0  0  0  0  0
    1.8065   -7.5492   44.0832 C   0  0  0  0  0  0  0  0  0  0  0  0
    1.0007   -6.5348   43.8257 C   0  0  0  0  0  0  0  0  0  0  0  0
    3.0237   -3.7475   45.4338 C   0  0  0  0  0  0  0  0  0  0  0  0
    4.3072   -3.6902   46.1392 C   0  0  0  0  0  0  0  0  0  0  0  0
    5.4760   -3.3402   45.4069 C   0  0  0  0  0  0  0  0  0  0  0  0
    6.7177   -3.2707   46.0990 C   0  0  0  0  0  0  0  0  0  0  0  0
    7.8276   -2.5373   45.5094 C   0  0  0  0  0  0  0  0  0  0  0  0
    8.9889   -2.3809   46.3578 C   0  0  0  0  0  0  0  0  0  0  0  0
    9.0724   -3.1170   47.3685 C   0  0  0  0  0  0  0  0  0  0  0  0
    7.1663   -3.8591   47.3181 C   0  0  0  0  0  0  0  0  0  0  0  0
    5.9869   -4.7186   47.9093 C   0  0  0  0  0  0  0  0  0  0  0  0
    8.2440   -3.8716   47.9917 C   0  0  0  0  0  0  0  0  0  0  0  0
    6.2131   -5.4316   49.1008 C   0  0  0  0  0  0  0  0  0  0  0  0
    4.6171   -4.6120   47.2971 C   0  0  0  0  0  0  0  0  0  0  0  0
    6.3549   -6.4721   48.9472 O   0  0  0  0  0  0  0  0  0  0  0  0
  1  2  1  0
  7  8  1  0
  8  9  1  0
  9 10  1  0
 11 16  1  0
 16 17  1  0
 26 28  1  0
 26 24  1  0
  2  3  2  0
  3  4  1  0
  4  5  2  0
  5  6  1  0
  6  7  2  0
  7  2  1  0
 17 18  2  0
 18 19  1  0
 23 24  1  0
 24 27  2  0
 27 17  1  0
 19 20  2  0
 20 21  1  0
 21 22  2  0
 22 25  1  0
 25 23  2  0
 23 19  1  0
 10 11  1  0
 11 12  2  0
 12 13  1  0
 13 14  2  0
 14 15  1  0
 15 10  2  0
M  END
$$$$
O14757_PocketFlow_idx-in-all-generaetd-455
     RDKit          3D

 27 30  0  0  0  0  0  0  0  0999 V2000
    0.2881   -2.9111   42.4378 C   0  0  0  0  0  0  0  0  0  0  0  0
    1.3023   -2.0648   42.1981 C   0  0  0  0  0  0  0  0  0  0  0  0
    2.5313   -2.2887   42.6989 C   0  0  0  0  0  0  0  0  0  0  0  0
    2.7176   -3.3676   43.6275 C   0  0  0  0  0  0  0  0  0  0  0  0
    1.6703   -4.2006   43.9257 C   0  0  0  0  0  0  0  0  0  0  0  0
    0.4955   -4.0028   43.2983 C   0  0  0  0  0  0  0  0  0  0  0  0
    4.0385   -3.4855   44.3047 C   0  0  0  0  0  0  0  0  0  0  0  0
    4.8951   -2.3945   44.4807 C   0  0  0  0  0  0  0  0  0  0  0  0
    5.8794   -2.4325   45.3488 C   0  0  0  0  0  0  0  0  0  0  0  0
    6.2314   -3.6314   46.0767 C   0  0  0  0  0  0  0  0  0  0  0  0
    7.3434   -3.5893   46.9826 C   0  0  0  0  0  0  0  0  0  0  0  0
    7.4714   -4.5466   47.9874 C   0  0  0  0  0  0  0  0  0  0  0  0
    6.3388   -5.3507   48.1621 C   0  0  0  0  0  0  0  0  0  0  0  0
    5.1813   -5.2439   47.4143 C   0  0  0  0  0  0  0  0  0  0  0  0
    5.0848   -4.2602   46.4608 C   0  0  0  0  0  0  0  0  0  0  0  0
    3.9633   -4.3453   45.5497 C   0  0  0  0  0  0  0  0  0  0  0  0
   -0.8411   -2.8404   41.7784 F   0  0  0  0  0  0  0  0  0  0  0  0
    1.1087   -0.9709   41.1940 C   0  0  0  0  0  0  0  0  0  0  0  0
    2.1265    0.0962   41.4465 C   0  0  0  0  0  0  0  0  0  0  0  0
    8.5915   -2.7799   46.6237 C   0  0  0  0  0  0  0  0  0  0  0  0
    9.1898   -2.1189   47.5205 C   0  0  0  0  0  0  0  0  0  0  0  0
   10.2853   -1.2930   47.1335 C   0  0  0  0  0  0  0  0  0  0  0  0
   10.4717   -1.1122   45.7938 C   0  0  0  0  0  0  0  0  0  0  0  0
    9.5046   -1.5654   44.9182 C   0  0  0  0  0  0  0  0  0  0  0  0
    8.5398   -2.4601   45.3217 C   0  0  0  0  0  0  0  0  0  0  0  0
    2.6500    0.4085   42.6921 C   0  0  0  0  0  0  0  0  0  0  0  0
    3.8200   -0.2561   42.9881 N   0  0  0  0  0  0  0  0  0  0  0  0
  4  7  1  0
  1 17  1  0
  2 18  1  0
 18 19  1  0
 11 20  1  0
 19 26  1  0
 26 27  1  0
  1  2  2  0
  2  3  1  0
  3  4  2  0
  4  5  1  0
  5  6  2  0
  6  1  1  0
  7  8  2  0
  8  9  1  0
  9 10  2  0
 15 16  2  0
 16  7  1  0
 10 11  1  0
 11 12  2  0
 12 13  1  0
 13 14  2  0
 14 15  1  0
 15 10  1  0
 20 21  2  0
 21 22  1  0
 22 23  2  0
 23 24  1  0
 24 25  2  0
 25 20  1  0
M  END
$$$$
O14757_PocketFlow_idx-in-all-generaetd-456
     RDKit          3D

 29 30  0  0  0  0  0  0  0  0999 V2000
   -0.6395   -2.0713   41.4947 C   0  0  0  0  0  0  0  0  0  0  0  0
    0.6719   -2.2449   41.7518 C   0  0  0  0  0  0  0  0  0  0  0  0
    1.5951   -1.1948   41.6106 C   0  0  0  0  0  0  0  0  0  0  0  0
    2.9587   -1.3961   42.0240 C   0  0  0  0  0  0  0  0  0  0  0  0
    3.8815   -0.3441   42.0598 C   0  0  0  0  0  0  0  0  0  0  0  0
    5.0972   -0.5585   42.8399 C   0  0  0  0  0  0  0  0  0  0  0  0
    5.2418   -1.6670   43.6610 C   0  0  0  0  0  0  0  0  0  0  0  0
    6.3429   -1.8157   44.5661 C   0  0  0  0  0  0  0  0  0  0  0  0
   -1.5397   -3.1444   41.4346 C   0  0  0  0  0  0  0  0  0  0  0  0
   -0.8609   -4.3792   41.4647 N   0  0  0  0  0  0  0  0  0  0  0  0
    4.1650   -2.5511   43.6597 C   0  0  0  0  0  0  0  0  0  0  0  0
    3.0288   -2.4314   42.9492 C   0  0  0  0  0  0  0  0  0  0  0  0
    6.1185   -2.1263   45.9812 C   0  0  0  0  0  0  0  0  0  0  0  0
    7.1102   -2.9388   46.6096 C   0  0  0  0  0  0  0  0  0  0  0  0
    6.7690   -3.8308   47.6356 C   0  0  0  0  0  0  0  0  0  0  0  0
    7.6987   -4.5977   48.3571 C   0  0  0  0  0  0  0  0  0  0  0  0
    9.0368   -4.4810   48.0558 C   0  0  0  0  0  0  0  0  0  0  0  0
    8.5073   -2.7774   46.3961 C   0  0  0  0  0  0  0  0  0  0  0  0
    8.9417   -1.7726   45.5337 C   0  0  0  0  0  0  0  0  0  0  0  0
    9.4499   -3.5445   47.1539 C   0  0  0  0  0  0  0  0  0  0  0  0
    4.2487   -3.8411   44.5088 C   0  0  0  0  0  0  0  0  0  0  0  0
    3.1492   -4.6904   44.5920 C   0  0  0  0  0  0  0  0  0  0  0  0
    1.9948   -4.3181   45.2431 C   0  0  0  0  0  0  0  0  0  0  0  0
    0.7319   -4.9426   45.1680 C   0  0  0  0  0  0  0  0  0  0  0  0
    0.8066   -6.0865   44.3162 C   0  0  0  0  0  0  0  0  0  0  0  0
   -0.4562   -6.7699   44.1890 C   0  0  1  0  0  0  0  0  0  0  0  0
   -0.8012   -7.1738   42.9900 N   0  0  0  0  0  0  0  0  0  0  0  0
   -1.0588   -7.2767   45.1765 F   0  0  0  0  0  0  0  0  0  0  0  0
   -1.1660   -0.7057   41.3663 C   0  0  0  0  0  0  0  0  0  0  0  0
  1  2  1  0
  2  3  2  3
  3  4  1  0
  7  8  1  0
  1  9  2  3
  9 10  1  0
  8 13  1  0
 13 14  1  0
 18 19  1  0
 11 21  1  0
 21 22  1  0
 22 23  1  0
 23 24  2  3
 24 25  1  0
 25 26  1  0
 26 27  1  6
 26 28  1  0
  1 29  1  0
  4  5  2  0
  5  6  1  0
  6  7  2  0
  7 11  1  0
 11 12  2  0
 12  4  1  0
 14 15  2  0
 15 16  1  0
 16 17  2  0
 17 20  1  0
 20 18  2  0
 18 14  1  0
M  END
$$$$
O14757_PocketFlow_idx-in-all-generaetd-457
     RDKit          3D

 10  9  0  0  0  0  0  0  0  0999 V2000
   -0.6770   -2.0561   41.5845 Cl  0  0  0  0  0  0  0  0  0  0  0  0
    0.8348   -2.3079   42.0606 C   0  0  0  0  0  0  0  0  0  0  0  0
    1.1818   -3.2520   42.9667 C   0  0  0  0  0  0  0  0  0  0  0  0
    2.4247   -3.2903   43.4940 C   0  0  0  0  0  0  0  0  0  0  0  0
    3.3972   -2.3643   43.2050 C   0  0  0  0  0  0  0  0  0  0  0  0
    4.6950   -2.3791   43.8910 C   0  0  0  0  0  0  0  0  0  0  0  0
    5.5669   -1.2468   43.8291 C   0  0  0  0  0  0  0  0  0  0  0  0
    6.6945   -1.2681   44.6548 C   0  0  0  0  0  0  0  0  0  0  0  0
    6.9737   -2.3555   45.5412 C   0  0  0  0  0  0  0  0  0  0  0  0
    6.0229   -3.4399   45.5570 C   0  0  0  0  0  0  0  0  0  0  0  0
  1  2  1  0
  2  3  1  0
  3  4  1  0
  4  5  1  0
  5  6  2  3
  6  7  1  0
  7  8  2  3
  8  9  1  0
  9 10  2  0
M  END
$$$$
O14757_PocketFlow_idx-in-all-generaetd-458
     RDKit          3D

 33 35  0  0  0  0  0  0  0  0999 V2000
   -0.6395   -2.0713   41.4947 C   0  0  0  0  0  0  0  0  0  0  0  0
    0.6719   -2.2449   41.7518 C   0  0  0  0  0  0  0  0  0  0  0  0
    1.1287   -3.3339   42.4778 C   0  0  0  0  0  0  0  0  0  0  0  0
    2.4060   -3.3351   43.0418 C   0  0  0  0  0  0  0  0  0  0  0  0
    2.8579   -4.2212   44.0684 C   0  0  0  0  0  0  0  0  0  0  0  0
    1.8801   -5.1822   44.5266 C   0  0  0  0  0  0  0  0  0  0  0  0
    0.5683   -5.0671   44.0172 C   0  0  0  0  0  0  0  0  0  0  0  0
    0.1857   -4.1701   43.1046 C   0  0  0  0  0  0  0  0  0  0  0  0
   -1.0112   -0.8248   41.0476 F   0  0  0  0  0  0  0  0  0  0  0  0
    4.2249   -3.9583   44.4379 C   0  0  0  0  0  0  0  0  0  0  0  0
    4.9101   -2.8185   44.3595 C   0  0  0  0  0  0  0  0  0  0  0  0
    4.4452   -1.8546   43.4146 C   0  0  0  0  0  0  0  0  0  0  0  0
    3.1471   -2.0198   42.8648 C   0  0  0  0  0  0  0  0  0  0  0  0
    5.2150   -0.6697   43.1578 C   0  0  0  0  0  0  0  0  0  0  0  0
    4.7713    0.2498   42.3301 O   0  0  0  0  0  0  0  0  0  0  0  0
    6.2610   -0.4600   43.9762 O   0  0  0  0  0  0  0  0  0  0  0  0
   -1.4005   -2.2466   42.6770 F   0  0  0  0  0  0  0  0  0  0  0  0
   -1.2388   -2.9528   40.6918 F   0  0  0  0  0  0  0  0  0  0  0  0
    2.3559   -6.1947   45.4328 C   0  0  0  0  0  0  0  0  0  0  0  0
    3.3220   -6.0470   46.0649 O   0  0  0  0  0  0  0  0  0  0  0  0
    1.5555   -7.2725   45.5979 N   0  0  0  0  0  0  0  0  0  0  0  0
    0.3374   -7.4952   44.9301 C   0  0  0  0  0  0  0  0  0  0  0  0
   -0.6364   -8.1943   45.6691 C   0  0  0  0  0  0  0  0  0  0  0  0
   -1.5498   -7.6913   46.2046 C   0  0  0  0  0  0  0  0  0  0  0  0
   -2.6702   -8.4224   46.8922 C   0  0  0  0  0  0  0  0  0  0  0  0
   -2.6023   -9.7708   46.9100 C   0  0  0  0  0  0  0  0  0  0  0  0
   -1.5028  -10.3422   46.3752 C   0  0  0  0  0  0  0  0  0  0  0  0
   -0.4713   -9.6517   45.7910 C   0  0  0  0  0  0  0  0  0  0  0  0
   -3.6626  -10.4708   47.6204 C   0  0  0  0  0  0  0  0  0  0  0  0
   -4.7621   -9.8764   47.4816 F   0  0  0  0  0  0  0  0  0  0  0  0
   -3.7108  -11.6940   47.5360 F   0  0  0  0  0  0  0  0  0  0  0  0
   -3.3743  -10.2171   48.9915 F   0  0  0  0  0  0  0  0  0  0  0  0
    0.3051   -7.5704   43.7048 O   0  0  0  0  0  0  0  0  0  0  0  0
  1  2  1  0
  1  9  1  0
 12 14  1  0
 14 15  2  0
 14 16  1  0
  1 17  1  0
  1 18  1  0
  6 19  1  0
 19 20  2  0
 19 21  1  0
 21 22  1  0
 22 23  1  0
 26 29  1  0
 29 30  1  0
 29 31  1  0
 29 32  1  0
 22 33  2  0
  2  3  1  0
  5 10  1  0
 10 11  2  0
 11 12  1  0
 12 13  2  0
 13  4  1  0
  3  4  2  0
  4  5  1  0
  5  6  2  0
  6  7  1  0
  7  8  2  0
  8  3  1  0
 23 24  2  0
 24 25  1  0
 25 26  2  0
 26 27  1  0
 27 28  2  0
 28 23  1  0
M  END
$$$$
O14757_PocketFlow_idx-in-all-generaetd-459
     RDKit          3D

 15 16  0  0  0  0  0  0  0  0999 V2000
   -0.6395   -2.0713   41.4947 C   0  0  0  0  0  0  0  0  0  0  0  0
    0.1859   -1.1027   41.5970 C   0  0  0  0  0  0  0  0  0  0  0  0
   -0.2410   -3.3795   41.5297 C   0  0  0  0  0  0  0  0  0  0  0  0
    1.6125   -1.3641   41.8466 C   0  0  0  0  0  0  0  0  0  0  0  0
    1.9568   -2.7213   42.1561 C   0  0  0  0  0  0  0  0  0  0  0  0
    0.9568   -3.6932   42.0424 C   0  0  0  0  0  0  0  0  0  0  0  0
    2.5392   -0.3092   42.1184 C   0  0  0  0  0  0  0  0  0  0  0  0
    3.8447   -0.5588   42.5830 C   0  0  1  0  0  0  0  0  0  0  0  0
    4.5272   -0.2364   43.4437 C   0  0  0  0  0  0  0  0  0  0  0  0
    5.4344   -0.9924   44.2220 C   0  0  0  0  0  0  0  0  0  0  0  0
    5.2121   -2.3782   44.3286 C   0  0  0  0  0  0  0  0  0  0  0  0
    4.3106   -3.0131   43.4252 C   0  0  0  0  0  0  0  0  0  0  0  0
    3.8714   -2.1893   42.4070 C   0  0  0  0  0  0  0  0  0  0  0  0
    4.1300   -2.0458   41.2310 F   0  0  0  0  0  0  0  0  0  0  0  0
    2.9212   -3.0256   41.9809 F   0  0  0  0  0  0  0  0  0  0  0  0
  4  7  1  0
  8  9  1  0
  9 10  2  0
 10 11  1  0
 11 12  2  0
  8 13  1  0
 12 13  1  0
 13 14  1  0
 13 15  1  0
  8  7  1  1
  1  2  2  0
  2  4  1  0
  4  5  2  0
  5  6  1  0
  6  3  2  0
  3  1  1  0
M  END
$$$$
O14757_PocketFlow_idx-in-all-generaetd-460
     RDKit          3D

 18 19  0  0  0  0  0  0  0  0999 V2000
   -0.6395   -2.0713   41.4947 C   0  0  0  0  0  0  0  0  0  0  0  0
    0.1859   -1.1027   41.5970 C   0  0  0  0  0  0  0  0  0  0  0  0
    1.5836   -1.3270   41.4670 C   0  0  0  0  0  0  0  0  0  0  0  0
   -0.2462   -3.3905   41.2409 C   0  0  0  0  0  0  0  0  0  0  0  0
    2.5675   -0.3473   41.7943 C   0  0  0  0  0  0  0  0  0  0  0  0
    3.8546   -0.6776   42.2362 C   0  0  0  0  0  0  0  0  0  0  0  0
    3.9971   -0.8191   43.6382 C   0  0  0  0  0  0  0  0  0  0  0  0
    3.9303   -1.8463   44.3484 C   0  0  0  0  0  0  0  0  0  0  0  0
    4.5499   -1.9585   45.6676 C   0  0  0  0  0  0  0  0  0  0  0  0
    1.1442   -3.6268   41.1656 C   0  0  0  0  0  0  0  0  0  0  0  0
    2.0232   -2.5803   41.3392 C   0  0  0  0  0  0  0  0  0  0  0  0
    4.5871   -3.1272   46.4230 C   0  0  0  0  0  0  0  0  0  0  0  0
    3.8881   -4.2714   45.9050 C   0  0  0  0  0  0  0  0  0  0  0  0
    3.3541   -4.2170   44.6271 C   0  0  0  0  0  0  0  0  0  0  0  0
    3.4455   -3.0744   43.8661 C   0  0  0  0  0  0  0  0  0  0  0  0
   -2.0203   -1.8668   41.5657 O   0  0  0  0  0  0  0  0  0  0  0  0
   -2.6989   -1.3638   40.4751 C   0  0  0  0  0  0  0  0  0  0  0  0
    3.8643   -5.3818   46.6067 F   0  0  0  0  0  0  0  0  0  0  0  0
  3  5  1  0
  5  6  1  0
  6  7  1  0
  1 16  1  0
 16 17  1  0
 13 18  1  0
  7  8  1  0
  1  2  2  0
  2  3  1  0
  3 11  2  0
 11 10  1  0
 10  4  2  0
  4  1  1  0
  8  9  2  0
  9 12  1  0
 12 13  2  0
 13 14  1  0
 14 15  2  0
 15  8  1  0
M  END
$$$$
O14757_PocketFlow_idx-in-all-generaetd-461
     RDKit          3D

 12 11  0  0  0  0  0  0  0  0999 V2000
    0.2881   -2.9111   42.4378 C   0  0  0  0  0  0  0  0  0  0  0  0
   -0.0650   -2.5021   41.5798 C   0  0  0  0  0  0  0  0  0  0  0  0
    1.6108   -3.5167   42.6657 C   0  0  0  0  0  0  0  0  0  0  0  0
    2.0262   -4.1022   43.9169 C   0  0  0  0  0  0  0  0  0  0  0  0
    0.9628   -4.5654   44.7705 C   0  0  0  0  0  0  0  0  0  0  0  0
    1.3580   -5.3713   45.9047 C   0  0  0  0  0  0  0  0  0  0  0  0
   -1.4330   -2.0376   41.2654 C   0  0  0  0  0  0  0  0  0  0  0  0
    1.4513   -6.7040   45.3849 C   0  0  0  0  0  0  0  0  0  0  0  0
    2.5565   -7.0741   44.9737 C   0  0  0  0  0  0  0  0  0  0  0  0
    0.3116   -7.5984   45.3803 C   0  0  0  0  0  0  0  0  0  0  0  0
   -1.8388   -1.3872   40.0996 C   0  0  0  0  0  0  0  0  0  0  0  0
   -3.2681   -0.9269   40.3413 C   0  0  0  0  0  0  0  0  0  0  0  0
  1  2  2  3
  1  3  1  0
  3  4  1  0
  4  5  1  0
  5  6  1  0
  2  7  1  0
  6  8  1  0
  8  9  2  0
  8 10  1  0
  7 11  1  0
 11 12  1  0
M  END
$$$$
O14757_PocketFlow_idx-in-all-generaetd-462
     RDKit          3D

 35 39  0  0  0  0  0  0  0  0999 V2000
    0.2881   -2.9111   42.4378 C   0  0  0  0  0  0  0  0  0  0  0  0
   -0.0650   -2.5021   41.5798 C   0  0  0  0  0  0  0  0  0  0  0  0
    1.5584   -2.5265   43.0885 C   0  0  0  0  0  0  0  0  0  0  0  0
    2.2571   -1.5118   42.4661 C   0  0  0  0  0  0  0  0  0  0  0  0
    1.6355   -0.8966   41.3660 C   0  0  0  0  0  0  0  0  0  0  0  0
    0.4783   -1.3291   40.8710 C   0  0  0  0  0  0  0  0  0  0  0  0
    3.5156   -1.0635   43.0107 C   0  0  0  0  0  0  0  0  0  0  0  0
    4.1074   -1.7575   44.0946 C   0  0  0  0  0  0  0  0  0  0  0  0
    5.3440   -1.2578   44.5838 C   0  0  0  0  0  0  0  0  0  0  0  0
    6.0211   -0.3408   43.9213 C   0  0  0  0  0  0  0  0  0  0  0  0
    4.2487    0.0318   42.4738 C   0  0  0  0  0  0  0  0  0  0  0  0
    5.4213    0.4187   43.0124 N   0  0  0  0  0  0  0  0  0  0  0  0
   -1.6482   -3.0567   40.9933 Cl  0  0  0  0  0  0  0  0  0  0  0  0
    6.0278   -2.0829   45.6512 C   0  0  0  0  0  0  0  0  0  0  0  0
    5.2875   -3.0891   46.3604 C   0  0  0  0  0  0  0  0  0  0  0  0
    6.0038   -3.8008   47.3501 C   0  0  0  0  0  0  0  0  0  0  0  0
    7.3436   -3.7010   47.6185 C   0  0  0  0  0  0  0  0  0  0  0  0
    8.0457   -4.4441   48.5933 C   0  0  0  0  0  0  0  0  0  0  0  0
    7.1746   -5.2602   49.3287 C   0  0  0  0  0  0  0  0  0  0  0  0
    5.8667   -5.4531   49.1564 C   0  0  0  0  0  0  0  0  0  0  0  0
    5.2665   -4.7310   48.1664 C   0  0  0  0  0  0  0  0  0  0  0  0
    7.4520   -1.9153   45.7789 C   0  0  0  0  0  0  0  0  0  0  0  0
    8.1267   -2.7476   46.7906 C   0  0  0  0  0  0  0  0  0  0  0  0
    9.5633   -2.5762   46.9550 C   0  0  0  0  0  0  0  0  0  0  0  0
   10.4346   -3.6001   46.9703 C   0  0  0  0  0  0  0  0  0  0  0  0
   11.8104   -3.3569   46.9637 C   0  0  0  0  0  0  0  0  0  0  0  0
   12.2770   -2.0752   47.0765 C   0  0  0  0  0  0  0  0  0  0  0  0
   11.3640   -0.9717   47.1285 C   0  0  0  0  0  0  0  0  0  0  0  0
   10.0200   -1.2252   47.0282 C   0  0  0  0  0  0  0  0  0  0  0  0
   13.7405   -1.7408   47.1009 C   0  0  0  0  0  0  0  0  0  0  0  0
   14.4871   -2.5795   47.2159 O   0  0  0  0  0  0  0  0  0  0  0  0
   14.0144   -0.4818   47.3911 O   0  0  0  0  0  0  0  0  0  0  0  0
    7.8500   -5.9776   50.3380 F   0  0  0  0  0  0  0  0  0  0  0  0
    3.8041    0.8458   41.5572 O   0  0  0  0  0  0  0  0  0  0  0  0
    4.0752   -3.2368   46.2335 O   0  0  0  0  0  0  0  0  0  0  0  0
  4  7  1  0
  2 13  1  0
  9 14  1  0
 23 24  1  0
 27 30  1  0
 30 31  1  0
 30 32  2  0
 19 33  1  0
 11 34  1  0
 15 35  1  0
 24 25  2  0
 25 26  1  0
 26 27  2  0
 27 28  1  0
 28 29  2  0
 29 24  1  0
 14 15  2  0
 15 16  1  0
 17 23  1  0
 23 22  2  0
 22 14  1  0
  1  2  2  0
  2  6  1  0
  6  5  2  0
  5  4  1  0
  4  3  2  0
  3  1  1  0
  7  8  2  0
  8  9  1  0
  9 10  2  0
 10 12  1  0
 12 11  2  0
 11  7  1  0
 16 17  2  0
 17 18  1  0
 18 19  2  0
 19 20  1  0
 20 21  2  0
 21 16  1  0
M  END
$$$$
O14757_PocketFlow_idx-in-all-generaetd-463
     RDKit          3D

 14 15  0  0  0  0  0  0  0  0999 V2000
   -0.6395   -2.0713   41.4947 C   0  0  0  0  0  0  0  0  0  0  0  0
    0.1859   -1.1027   41.5970 C   0  0  0  0  0  0  0  0  0  0  0  0
    1.5858   -1.4431   41.9548 C   0  0  0  0  0  0  0  0  0  0  0  0
   -1.9754   -1.7858   41.1455 N   0  0  0  0  0  0  0  0  0  0  0  0
    1.8331   -2.7291   42.3729 C   0  0  0  0  0  0  0  0  0  0  0  0
    0.8118   -3.2672   42.9921 C   0  0  0  0  0  0  0  0  0  0  0  0
   -0.4997   -3.1108   42.4616 C   0  0  0  0  0  0  0  0  0  0  0  0
    1.0378   -4.4284   43.9304 C   0  0  0  0  0  0  0  0  0  0  0  0
    0.3220   -5.4896   44.1782 C   0  0  0  0  0  0  0  0  0  0  0  0
   -0.5121   -6.0335   43.5800 C   0  0  0  0  0  0  0  0  0  0  0  0
   -1.1619   -7.3396   43.8546 C   0  0  0  0  0  0  0  0  0  0  0  0
   -0.8459   -7.8494   45.1292 C   0  0  0  0  0  0  0  0  0  0  0  0
    0.1151   -7.2379   45.9544 C   0  0  0  0  0  0  0  0  0  0  0  0
    0.6665   -6.0013   45.5346 C   0  0  0  0  0  0  0  0  0  0  0  0
  1  4  1  0
  6  8  1  0
  8  9  1  0
  9 10  2  0
 10 11  1  0
 11 12  2  0
 12 13  1  0
 13 14  2  0
 14  9  1  0
  1  2  2  0
  2  3  1  0
  3  5  2  0
  5  6  1  0
  6  7  2  0
  7  1  1  0
M  END
$$$$
O14757_PocketFlow_idx-in-all-generaetd-464
     RDKit          3D

 32 35  0  0  0  0  0  0  0  0999 V2000
   -0.6395   -2.0713   41.4947 C   0  0  0  0  0  0  0  0  0  0  0  0
   -0.2671   -3.2464   41.6546 C   0  0  0  0  0  0  0  0  0  0  0  0
    0.2407   -0.9706   41.5952 C   0  0  0  0  0  0  0  0  0  0  0  0
    1.6195   -1.2958   41.8767 C   0  0  0  0  0  0  0  0  0  0  0  0
    1.9162   -2.6816   42.2016 C   0  0  0  0  0  0  0  0  0  0  0  0
    0.9422   -3.6324   42.1156 C   0  0  0  0  0  0  0  0  0  0  0  0
    2.6088   -0.2775   42.1300 C   0  0  0  0  0  0  0  0  0  0  0  0
    2.5071    1.0156   41.8230 C   0  0  0  0  0  0  0  0  0  0  0  0
    3.8304   -0.7070   42.8607 C   0  0  0  0  0  0  0  0  0  0  0  0
    4.2268   -1.9282   43.3495 C   0  0  0  0  0  0  0  0  0  0  0  0
    3.1773   -2.8748   43.2156 C   0  0  0  0  0  0  0  0  0  0  0  0
    5.3561   -2.2657   44.0312 C   0  0  0  0  0  0  0  0  0  0  0  0
    5.4730   -3.4011   44.8561 C   0  0  0  0  0  0  0  0  0  0  0  0
    5.4582   -3.3760   46.0858 C   0  0  0  0  0  0  0  0  0  0  0  0
    5.7954   -4.1419   47.0081 C   0  0  0  0  0  0  0  0  0  0  0  0
    6.0292   -4.2953   48.0984 C   0  0  0  0  0  0  0  0  0  0  0  0
    6.9800   -4.9701   48.9083 C   0  0  0  0  0  0  0  0  0  0  0  0
    7.2462   -6.2355   48.3965 C   0  0  0  0  0  0  0  0  0  0  0  0
    8.3204   -6.8990   49.0298 C   0  0  0  0  0  0  0  0  0  0  0  0
   -2.1935   -1.6217   40.8376 Cl  0  0  0  0  0  0  0  0  0  0  0  0
    8.4175   -8.2617   48.5885 C   0  0  0  0  0  0  0  0  0  0  0  0
    7.5164   -8.8062   47.6964 C   0  0  0  0  0  0  0  0  0  0  0  0
    6.3548   -8.2192   47.3715 C   0  0  0  0  0  0  0  0  0  0  0  0
    6.1875   -6.9285   47.7443 C   0  0  0  0  0  0  0  0  0  0  0  0
    6.3907   -1.2150   44.1477 C   0  0  0  0  0  0  0  0  0  0  0  0
    7.5760   -4.4677   49.8983 O   0  0  0  0  0  0  0  0  0  0  0  0
    7.7295  -10.2702   47.2565 C   0  0  0  0  0  0  0  0  0  0  0  0
    8.6153  -10.3356   46.1346 C   0  0  0  0  0  0  0  0  0  0  0  0
    8.5969  -11.4618   45.3050 C   0  0  0  0  0  0  0  0  0  0  0  0
    7.7419  -12.5410   45.7264 C   0  0  0  0  0  0  0  0  0  0  0  0
    6.8391  -12.4286   46.8043 C   0  0  0  0  0  0  0  0  0  0  0  0
    6.8116  -11.2041   47.4754 C   0  0  0  0  0  0  0  0  0  0  0  0
 10 12  1  0
 12 13  2  3
 13 14  1  0
 14 15  2  3
 15 16  1  0
 16 17  2  3
 17 18  1  0
  1 20  1  0
 12 25  1  0
 17 26  1  0
 22 27  1  0
  8  7  1  0
 27 28  2  0
 28 29  1  0
 29 30  2  0
 30 31  1  0
 31 32  2  0
 32 27  1  0
  5 11  1  0
 11 10  2  0
 10  9  1  0
  9  7  2  0
  7  4  1  0
  1  2  2  0
  2  6  1  0
  6  5  2  0
  5  4  1  0
  4  3  2  0
  3  1  1  0
 18 19  2  0
 19 21  1  0
 21 22  2  0
 22 23  1  0
 23 24  2  0
 24 18  1  0
M  END
$$$$
O14757_PocketFlow_idx-in-all-generaetd-465
     RDKit          3D

 21 24  0  0  0  0  0  0  0  0999 V2000
    0.2881   -2.9111   42.4378 C   0  0  0  0  0  0  0  0  0  0  0  0
   -0.0650   -2.5021   41.5798 C   0  0  0  0  0  0  0  0  0  0  0  0
    1.5584   -2.5265   43.0885 C   0  0  0  0  0  0  0  0  0  0  0  0
    2.2571   -1.5118   42.4661 C   0  0  0  0  0  0  0  0  0  0  0  0
    3.4613   -0.9848   43.0009 C   0  0  0  0  0  0  0  0  0  0  0  0
    4.0987   -1.7401   44.0258 C   0  0  0  0  0  0  0  0  0  0  0  0
    3.4415   -2.8981   44.5409 C   0  0  0  0  0  0  0  0  0  0  0  0
    4.1403   -3.6238   45.4895 C   0  0  0  0  0  0  0  0  0  0  0  0
    2.2125   -3.2826   44.0464 C   0  0  0  0  0  0  0  0  0  0  0  0
    0.5551   -1.3099   40.9085 C   0  0  0  0  0  0  0  0  0  0  0  0
    1.6495   -0.7999   41.3934 C   0  0  0  0  0  0  0  0  0  0  0  0
    5.3139   -3.2240   46.0788 C   0  0  0  0  0  0  0  0  0  0  0  0
    5.9614   -2.0438   45.4776 C   0  0  0  0  0  0  0  0  0  0  0  0
    5.4200   -1.3326   44.4686 C   0  0  0  0  0  0  0  0  0  0  0  0
    7.3589   -1.7644   45.9605 C   0  0  0  0  0  0  0  0  0  0  0  0
    8.1083   -2.5942   46.7451 C   0  0  0  0  0  0  0  0  0  0  0  0
    9.4243   -2.2319   47.0807 C   0  0  0  0  0  0  0  0  0  0  0  0
    9.9139   -1.0481   46.4554 C   0  0  0  0  0  0  0  0  0  0  0  0
    8.0732   -0.6368   45.5305 C   0  0  0  0  0  0  0  0  0  0  0  0
    9.2317   -0.2220   45.8429 N   0  0  0  0  0  0  0  0  0  0  0  0
    1.6179   -4.3535   44.5259 O   0  0  0  0  0  0  0  0  0  0  0  0
  4  5  1  0
  3  9  1  0
  7  9  1  0
 13 15  1  0
  9 21  2  0
  5  6  1  0
  6  7  2  0
  7  8  1  0
  8 12  2  0
 12 13  1  0
 13 14  2  0
 14  6  1  0
  1  2  2  0
  2 10  1  0
 10 11  2  0
 11  4  1  0
  4  3  2  0
  3  1  1  0
 15 16  2  0
 16 17  1  0
 17 18  2  0
 18 20  1  0
 20 19  2  0
 19 15  1  0
M  END
$$$$
O14757_PocketFlow_idx-in-all-generaetd-466
     RDKit          3D

 20 23  0  0  0  0  0  0  0  0999 V2000
    0.2881   -2.9111   42.4378 C   0  0  0  0  0  0  0  0  0  0  0  0
   -0.0650   -2.5021   41.5798 C   0  0  0  0  0  0  0  0  0  0  0  0
    1.5584   -2.5265   43.0885 C   0  0  0  0  0  0  0  0  0  0  0  0
    2.2571   -1.5118   42.4661 C   0  0  0  0  0  0  0  0  0  0  0  0
    3.4613   -0.9848   43.0009 C   0  0  1  0  0  0  0  0  0  0  0  0
    4.0987   -1.7401   44.0258 C   0  0  0  0  0  0  0  0  0  0  0  0
    3.4736   -2.8945   44.5528 C   0  0  0  0  0  0  0  0  0  0  0  0
    2.2535   -3.3214   44.0673 C   0  0  0  0  0  0  0  0  0  0  0  0
    0.5207   -1.2903   40.9438 C   0  0  0  0  0  0  0  0  0  0  0  0
    1.7330   -0.8631   41.3835 C   0  0  0  0  0  0  0  0  0  0  0  0
    4.3023    0.3859   42.4375 Cl  0  0  0  0  0  0  0  0  0  0  0  0
    5.4467   -1.3872   44.5986 C   0  0  0  0  0  0  0  0  0  0  0  0
    6.2198   -2.0751   45.1590 C   0  0  0  0  0  0  0  0  0  0  0  0
    7.5083   -1.7798   45.6590 C   0  0  0  0  0  0  0  0  0  0  0  0
    8.3625   -2.6161   46.3972 C   0  0  0  0  0  0  0  0  0  0  0  0
    7.8133   -3.8569   46.7395 C   0  0  0  0  0  0  0  0  0  0  0  0
    6.4295   -4.0675   46.5549 C   0  0  0  0  0  0  0  0  0  0  0  0
    5.6876   -3.3025   45.7941 C   0  0  0  0  0  0  0  0  0  0  0  0
    4.3717   -3.7313   45.4604 C   0  0  0  0  0  0  0  0  0  0  0  0
    1.7061   -4.3914   44.5543 O   0  0  0  0  0  0  0  0  0  0  0  0
  4  5  1  0
  5  6  1  0
  3  8  1  0
  7  8  1  0
  5 11  1  6
  8 20  2  0
  6  7  2  0
  7 19  1  0
 19 18  2  0
 13 12  2  0
 12  6  1  0
 13 14  1  0
 14 15  2  0
 15 16  1  0
 16 17  2  0
 17 18  1  0
 18 13  1  0
  1  2  2  0
  2  9  1  0
  9 10  2  0
 10  4  1  0
  4  3  2  0
  3  1  1  0
M  END
$$$$
O14757_PocketFlow_idx-in-all-generaetd-467
     RDKit          3D

  5  4  0  0  0  0  0  0  0  0999 V2000
   -0.8413   -1.9048   41.7918 F   0  0  0  0  0  0  0  0  0  0  0  0
    0.2972   -1.3787   41.5137 C   0  0  0  0  0  0  0  0  0  0  0  0
    1.3859   -2.2666   41.4597 C   0  0  0  0  0  0  0  0  0  0  0  0
    0.8940   -3.5838   41.7094 C   0  0  0  0  0  0  0  0  0  0  0  0
   -0.4916   -3.8572   41.7866 C   0  0  0  0  0  0  0  0  0  0  0  0
  1  2  1  0
  2  3  1  0
  3  4  1  0
  4  5  2  0
M  END
$$$$
O14757_PocketFlow_idx-in-all-generaetd-468
     RDKit          3D

 33 35  0  0  0  0  0  0  0  0999 V2000
   -0.8794   -1.9236   41.9357 O   0  0  0  0  0  0  0  0  0  0  0  0
    0.3182   -2.2442   41.7073 C   0  0  0  0  0  0  0  0  0  0  0  0
    1.3766   -1.3498   41.6019 C   0  0  0  0  0  0  0  0  0  0  0  0
    2.6423   -1.6963   42.1387 C   0  0  0  0  0  0  0  0  0  0  0  0
    3.6323   -0.7168   42.3533 C   0  0  0  0  0  0  0  0  0  0  0  0
    3.2766    0.6647   42.1438 C   0  0  0  0  0  0  0  0  0  0  0  0
    0.5433   -3.5331   41.8131 O   0  0  0  0  0  0  0  0  0  0  0  0
    4.8814   -1.0568   42.9423 C   0  0  0  0  0  0  0  0  0  0  0  0
    5.5488   -0.2075   43.7984 C   0  0  0  0  0  0  0  0  0  0  0  0
    6.6426   -0.7542   44.4893 C   0  0  0  0  0  0  0  0  0  0  0  0
    6.4439   -2.0793   45.2416 C   0  0  0  0  0  0  0  0  0  0  0  0
    5.4729   -2.9692   44.7543 C   0  0  0  0  0  0  0  0  0  0  0  0
    4.4441   -2.4565   43.9009 C   0  0  0  0  0  0  0  0  0  0  0  0
    7.5482   -2.5347   46.0983 C   0  0  0  0  0  0  0  0  0  0  0  0
    8.7447   -1.9049   46.3083 C   0  0  0  0  0  0  0  0  0  0  0  0
    9.7008   -2.3601   47.2004 C   0  0  0  0  0  0  0  0  0  0  0  0
    9.4572   -3.4743   47.9702 C   0  0  0  0  0  0  0  0  0  0  0  0
    7.3584   -3.7103   46.8999 C   0  0  0  0  0  0  0  0  0  0  0  0
    8.2327   -4.1250   47.8273 C   0  0  0  0  0  0  0  0  0  0  0  0
    7.9760   -5.4013   48.5661 C   0  0  0  0  0  0  0  0  0  0  0  0
    6.7401   -5.7071   48.6622 N   0  0  0  0  0  0  0  0  0  0  0  0
    5.7703   -4.8853   49.0298 C   0  0  0  0  0  0  0  0  0  0  0  0
    6.3160   -7.0405   48.3121 C   0  0  0  0  0  0  0  0  0  0  0  0
    5.0001   -7.3802   48.1758 C   0  0  0  0  0  0  0  0  0  0  0  0
    4.5933   -7.5124   46.7952 C   0  0  0  0  0  0  0  0  0  0  0  0
    3.3154   -8.1474   46.4958 C   0  0  0  0  0  0  0  0  0  0  0  0
    2.5196   -7.6853   45.5283 C   0  0  0  0  0  0  0  0  0  0  0  0
    1.5195   -6.9315   45.6740 C   0  0  0  0  0  0  0  0  0  0  0  0
    0.3394   -6.8662   45.6024 C   0  0  0  0  0  0  0  0  0  0  0  0
   -0.6189   -5.8150   45.7989 C   0  0  0  0  0  0  0  0  0  0  0  0
   -0.0261   -4.5454   46.1543 C   0  0  0  0  0  0  0  0  0  0  0  0
    1.3763   -4.4263   46.0155 C   0  0  0  0  0  0  0  0  0  0  0  0
    2.1950   -5.4430   45.7968 C   0  0  0  0  0  0  0  0  0  0  0  0
  1  2  1  0
  2  3  1  0
  3  4  1  0
  4  5  2  3
  5  6  1  0
  2  7  2  0
  5  8  1  0
 11 14  1  0
 19 20  1  0
 20 21  1  0
 21 22  1  0
 21 23  1  0
 23 24  2  3
 24 25  1  0
 25 26  2  3
 26 27  1  0
 27 28  1  0
 28 29  2  0
 29 30  1  0
 30 31  2  0
 31 32  1  0
 32 33  2  0
 33 28  1  0
 14 15  2  0
 15 16  1  0
 16 17  2  0
 17 19  1  0
 19 18  2  0
 18 14  1  0
  8  9  2  0
  9 10  1  0
 10 11  2  0
 11 12  1  0
 12 13  2  0
 13  8  1  0
M  END
$$$$
O14757_PocketFlow_idx-in-all-generaetd-469
     RDKit          3D

 35 38  0  0  0  0  0  0  0  0999 V2000
    0.2881   -2.9111   42.4378 C   0  0  0  0  0  0  0  0  0  0  0  0
    1.1784   -3.4293   42.9321 C   0  0  0  0  0  0  0  0  0  0  0  0
    1.7344   -3.2949   44.1416 C   0  0  0  0  0  0  0  0  0  0  0  0
   -0.4120   -2.0413   42.8767 C   0  0  0  0  0  0  0  0  0  0  0  0
    2.0627   -3.8431   44.9366 C   0  0  0  0  0  0  0  0  0  0  0  0
    3.3983   -3.8643   45.5389 C   0  0  0  0  0  0  0  0  0  0  0  0
    4.1965   -2.7653   45.1184 C   0  0  0  0  0  0  0  0  0  0  0  0
    3.9138   -2.0554   43.9629 C   0  0  0  0  0  0  0  0  0  0  0  0
    4.7170   -1.0103   43.4568 C   0  0  0  0  0  0  0  0  0  0  0  0
    2.7802   -2.2368   43.7351 C   0  0  0  0  0  0  0  0  0  0  0  0
    6.0092   -1.1617   43.5125 F   0  0  0  0  0  0  0  0  0  0  0  0
    4.4426   -0.7722   42.0813 F   0  0  0  0  0  0  0  0  0  0  0  0
   -1.4541   -1.1916   42.1054 C   0  0  0  0  0  0  0  0  0  0  0  0
   -0.1034   -3.0443   40.9610 C   0  0  0  0  0  0  0  0  0  0  0  0
    1.1860   -5.0411   45.5791 C   0  0  0  0  0  0  0  0  0  0  0  0
    0.3305   -4.8335   46.3769 O   0  0  0  0  0  0  0  0  0  0  0  0
    1.7402   -6.3193   45.5611 N   0  0  0  0  0  0  0  0  0  0  0  0
    0.9244   -7.3991   45.6192 C   0  0  0  0  0  0  0  0  0  0  0  0
   -0.2900   -7.2057   44.9115 C   0  0  0  0  0  0  0  0  0  0  0  0
   -1.4293   -7.9650   45.3866 C   0  0  0  0  0  0  0  0  0  0  0  0
   -2.6857   -7.7987   44.7320 C   0  0  0  0  0  0  0  0  0  0  0  0
   -3.7466   -8.6750   45.0873 C   0  0  0  0  0  0  0  0  0  0  0  0
   -3.5799   -9.5359   46.1712 C   0  0  0  0  0  0  0  0  0  0  0  0
   -2.4213   -9.5771   46.8924 C   0  0  0  0  0  0  0  0  0  0  0  0
   -1.3388   -8.7578   46.4984 C   0  0  0  0  0  0  0  0  0  0  0  0
   -5.0176   -8.5287   44.3906 C   0  0  0  0  0  0  0  0  0  0  0  0
   -4.9297   -8.5009   43.0332 C   0  0  0  0  0  0  0  0  0  0  0  0
   -6.0521   -8.5036   42.1784 C   0  0  0  0  0  0  0  0  0  0  0  0
   -7.2999   -8.3435   42.8319 C   0  0  0  0  0  0  0  0  0  0  0  0
   -7.4210   -8.2665   44.2171 C   0  0  0  0  0  0  0  0  0  0  0  0
   -6.3020   -8.3854   44.9954 C   0  0  0  0  0  0  0  0  0  0  0  0
   -1.2050   -2.7119   40.4440 C   0  0  0  0  0  0  0  0  0  0  0  0
   -1.9056   -1.6647   40.9544 C   0  0  0  0  0  0  0  0  0  0  0  0
   -3.1007   -1.1005   40.3657 C   0  0  0  0  0  0  0  0  0  0  0  0
   -3.7025   -0.0712   40.9538 N   0  0  0  0  0  0  0  0  0  0  0  0
  2  3  1  0
  8  9  1  0
  9 11  1  0
  9 12  1  0
  5 15  1  0
 15 16  2  0
 15 17  1  0
 17 18  1  0
 18 19  1  0
 22 26  1  0
 33 34  1  0
 34 35  1  0
  2  1  1  0
 19 20  1  0
 26 27  2  0
 27 28  1  0
 28 29  2  0
 29 30  1  0
 30 31  2  0
 31 26  1  0
  1  4  2  0
  4 13  1  0
 13 33  2  0
 33 32  1  0
 32 14  2  0
 14  1  1  0
 20 21  2  0
 21 22  1  0
 22 23  2  0
 23 24  1  0
 24 25  2  0
 25 20  1  0
  3  5  1  0
  5  6  2  0
  6  7  1  0
  7  8  2  0
  8 10  1  0
 10  3  2  0
M  END
$$$$
O14757_PocketFlow_idx-in-all-generaetd-470
     RDKit          3D

 35 39  0  0  0  0  0  0  0  0999 V2000
   -0.6395   -2.0713   41.4947 C   0  0  0  0  0  0  0  0  0  0  0  0
    0.6719   -2.2449   41.7518 C   0  0  0  0  0  0  0  0  0  0  0  0
    1.5951   -1.1948   41.6106 C   0  0  0  0  0  0  0  0  0  0  0  0
    2.9587   -1.3961   42.0241 C   0  0  0  0  0  0  0  0  0  0  0  0
    3.1652   -2.3460   43.1085 C   0  0  0  0  0  0  0  0  0  0  0  0
    4.5010   -2.4269   43.6771 C   0  0  0  0  0  0  0  0  0  0  0  0
    5.3513   -1.3399   43.5095 C   0  0  0  0  0  0  0  0  0  0  0  0
   -1.1196   -0.7667   41.2888 C   0  0  0  0  0  0  0  0  0  0  0  0
    5.0336   -0.3087   42.6417 C   0  0  0  0  0  0  0  0  0  0  0  0
    3.8937   -0.2914   42.0856 C   0  0  0  0  0  0  0  0  0  0  0  0
   -0.1414    0.2603   41.2269 C   0  0  0  0  0  0  0  0  0  0  0  0
    1.1305    0.0834   41.4924 C   0  0  0  0  0  0  0  0  0  0  0  0
    4.7411   -3.5488   44.5697 C   0  0  0  0  0  0  0  0  0  0  0  0
    5.4174   -3.3778   45.8001 C   0  0  0  0  0  0  0  0  0  0  0  0
    6.0466   -2.1812   46.2143 C   0  0  0  0  0  0  0  0  0  0  0  0
    5.3957   -4.5307   46.7163 C   0  0  0  0  0  0  0  0  0  0  0  0
   -2.5349   -0.6661   41.1802 C   0  0  0  0  0  0  0  0  0  0  0  0
   -3.2766   -1.5783   40.6983 N   0  0  0  0  0  0  0  0  0  0  0  0
   -3.2033    0.4675   41.5523 N   0  0  0  0  0  0  0  0  0  0  0  0
    6.2076   -4.5987   47.7422 N   0  0  0  0  0  0  0  0  0  0  0  0
    4.5881   -5.4323   46.5003 O   0  0  0  0  0  0  0  0  0  0  0  0
    7.0351   -3.5399   48.2669 C   0  0  2  0  0  0  0  0  0  0  0  0
    7.0765   -2.4084   47.3887 C   0  0  0  0  0  0  0  0  0  0  0  0
    7.7890   -3.6134   49.4047 C   0  0  2  0  0  0  0  0  0  0  0  0
    7.2219   -3.8154   50.6583 C   0  0  0  0  0  0  0  0  0  0  0  0
    9.1760   -3.1980   49.3286 C   0  0  0  0  0  0  0  0  0  0  0  0
    9.9486   -3.1163   50.5317 C   0  0  2  0  0  0  0  0  0  0  0  0
    8.0220   -3.6452   51.7988 N   0  0  0  0  0  0  0  0  0  0  0  0
    9.3049   -3.3282   51.7525 C   0  0  0  0  0  0  0  0  0  0  0  0
   -4.3360   -1.5462   39.9684 C   0  0  0  0  0  0  0  0  0  0  0  0
   -4.4606    0.7132   41.1046 C   0  0  0  0  0  0  0  0  0  0  0  0
   -5.0075   -0.2909   40.3158 N   0  0  0  0  0  0  0  0  0  0  0  0
    9.9184   -3.2513   52.8830 O   0  0  0  0  0  0  0  0  0  0  0  0
   11.3222   -2.6327   50.5327 C   0  0  0  0  0  0  0  0  0  0  0  0
   11.6363   -1.7298   51.2297 O   0  0  0  0  0  0  0  0  0  0  0  0
  3  4  1  0
  6 13  1  0
 13 14  2  3
 14 15  1  0
 14 16  1  0
  8 17  1  0
 16 20  1  0
 16 21  2  0
 20 22  1  0
 15 23  1  0
 22 23  1  6
 22 24  1  0
 24 26  1  1
 25 28  1  0
 27 29  1  0
 28 29  1  0
 29 33  2  0
 27 34  1  1
 34 35  1  0
 27 26  1  0
 24 25  1  0
  1  2  2  0
  2  3  1  0
  3 12  2  0
 12 11  1  0
 11  8  2  0
  8  1  1  0
 17 18  2  0
 18 30  1  0
 30 32  2  0
 32 31  1  0
 31 19  2  0
 19 17  1  0
  4  5  2  0
  5  6  1  0
  6  7  2  0
  7  9  1  0
  9 10  2  0
 10  4  1  0
M  END
$$$$
O14757_PocketFlow_idx-in-all-generaetd-471
     RDKit          3D

 34 37  0  0  0  0  0  0  0  0999 V2000
   -0.6395   -2.0713   41.4947 C   0  0  0  0  0  0  0  0  0  0  0  0
    0.1859   -1.1027   41.5970 C   0  0  0  0  0  0  0  0  0  0  0  0
   -0.2410   -3.3795   41.5297 C   0  0  0  0  0  0  0  0  0  0  0  0
    1.6125   -1.3641   41.8466 C   0  0  0  0  0  0  0  0  0  0  0  0
    1.9568   -2.7213   42.1561 C   0  0  0  0  0  0  0  0  0  0  0  0
    0.9568   -3.6932   42.0424 C   0  0  0  0  0  0  0  0  0  0  0  0
    2.6822   -0.4672   42.1526 C   0  0  0  0  0  0  0  0  0  0  0  0
    3.9274   -0.7282   42.6367 C   0  0  0  0  0  0  0  0  0  0  0  0
    4.9530    0.2110   42.7854 C   0  0  0  0  0  0  0  0  0  0  0  0
   -2.0914   -2.0250   41.1022 C   0  0  0  0  0  0  0  0  0  0  0  0
   -2.7630   -0.8256   41.3285 N   0  0  0  0  0  0  0  0  0  0  0  0
   -2.7043   -2.8111   40.3421 O   0  0  0  0  0  0  0  0  0  0  0  0
    4.1620   -2.0178   43.2040 C   0  0  0  0  0  0  0  0  0  0  0  0
    3.1507   -2.9682   42.9053 C   0  0  0  0  0  0  0  0  0  0  0  0
    5.5844    0.4429   43.6879 O   0  0  0  0  0  0  0  0  0  0  0  0
    5.0044    1.0144   41.6887 O   0  0  0  0  0  0  0  0  0  0  0  0
   -3.9958   -0.3960   40.8655 C   0  0  0  0  0  0  0  0  0  0  0  0
    5.2528   -2.3755   43.7477 O   0  0  0  0  0  0  0  0  0  0  0  0
    5.1762   -3.2909   44.8507 C   0  0  0  0  0  0  0  0  0  0  0  0
    4.2387   -3.9996   45.2206 C   0  0  0  0  0  0  0  0  0  0  0  0
    4.3654   -4.9214   46.2623 C   0  0  0  0  0  0  0  0  0  0  0  0
    5.5213   -4.7670   47.1035 C   0  0  0  0  0  0  0  0  0  0  0  0
    6.4974   -3.7833   46.8340 C   0  0  0  0  0  0  0  0  0  0  0  0
    6.3984   -3.0221   45.7223 C   0  0  0  0  0  0  0  0  0  0  0  0
    7.7224   -3.7039   47.6629 C   0  0  0  0  0  0  0  0  0  0  0  0
    7.8067   -4.2408   48.9370 C   0  0  0  0  0  0  0  0  0  0  0  0
    8.8649   -3.9909   49.7748 C   0  0  0  0  0  0  0  0  0  0  0  0
    9.9120   -3.1812   49.3211 C   0  0  0  0  0  0  0  0  0  0  0  0
    8.7798   -2.8028   47.2897 C   0  0  0  0  0  0  0  0  0  0  0  0
    9.8566   -2.5820   48.0734 C   0  0  0  0  0  0  0  0  0  0  0  0
   10.9708   -1.6955   47.6342 C   0  0  0  0  0  0  0  0  0  0  0  0
   12.0334   -2.3509   47.5044 F   0  0  0  0  0  0  0  0  0  0  0  0
   10.5927   -1.1355   46.4064 F   0  0  0  0  0  0  0  0  0  0  0  0
   11.1037   -0.6781   48.4997 F   0  0  0  0  0  0  0  0  0  0  0  0
  8  9  1  0
  1 10  1  0
 10 11  1  0
 10 12  2  0
  9 15  1  0
  9 16  2  0
 11 17  1  0
 13 18  1  0
 18 19  1  0
 23 25  1  0
 30 31  1  0
 31 32  1  0
 31 33  1  0
 31 34  1  0
  1  2  2  0
  2  4  1  0
  5  6  1  0
  6  3  2  0
  3  1  1  0
 25 26  2  0
 26 27  1  0
 27 28  2  0
 28 30  1  0
 30 29  2  0
 29 25  1  0
 19 20  2  0
 20 21  1  0
 21 22  2  0
 22 23  1  0
 23 24  2  0
 24 19  1  0
  4  5  2  0
  5 14  1  0
 14 13  2  0
 13  8  1  0
  8  7  2  0
  7  4  1  0
M  END
$$$$
O14757_PocketFlow_idx-in-all-generaetd-472
     RDKit          3D

 21 23  0  0  0  0  0  0  0  0999 V2000
    0.2881   -2.9111   42.4378 C   0  0  0  0  0  0  0  0  0  0  0  0
   -0.0650   -2.5020   41.5798 C   0  0  0  0  0  0  0  0  0  0  0  0
    1.5111   -2.4518   43.1047 C   0  0  0  0  0  0  0  0  0  0  0  0
    2.1892   -1.4341   42.4770 C   0  0  0  0  0  0  0  0  0  0  0  0
    1.5990   -0.8333   41.3694 C   0  0  0  0  0  0  0  0  0  0  0  0
    0.4724   -1.3248   40.8538 C   0  0  0  0  0  0  0  0  0  0  0  0
    3.4542   -0.9703   43.0418 C   0  0  0  0  0  0  0  0  0  0  0  0
    4.2118    0.0180   42.5145 C   0  0  0  0  0  0  0  0  0  0  0  0
    4.3047   -1.9564   43.8009 C   0  0  0  0  0  0  0  0  0  0  0  0
    5.3959   -1.5572   44.4635 C   0  0  0  0  0  0  0  0  0  0  0  0
    6.1522   -0.4713   44.0139 C   0  0  0  0  0  0  0  0  0  0  0  0
    5.4587    0.4228   43.1994 C   0  0  0  0  0  0  0  0  0  0  0  0
   -1.2725   -2.9092   40.9404 O   0  0  0  0  0  0  0  0  0  0  0  0
    6.0645   -2.5302   45.3944 C   0  0  0  0  0  0  0  0  0  0  0  0
    5.6806   -2.7432   46.5644 C   0  0  0  0  0  0  0  0  0  0  0  0
    6.2276   -3.6677   47.5288 C   0  0  0  0  0  0  0  0  0  0  0  0
    5.3624   -4.5665   48.2077 C   0  0  0  0  0  0  0  0  0  0  0  0
    7.6074   -3.6477   47.7721 C   0  0  0  0  0  0  0  0  0  0  0  0
    8.1890   -4.6391   48.6391 C   0  0  0  0  0  0  0  0  0  0  0  0
    6.0055   -5.4609   49.1620 C   0  0  0  0  0  0  0  0  0  0  0  0
    7.3738   -5.4561   49.3368 C   0  0  0  0  0  0  0  0  0  0  0  0
  4  7  1  0
  2 13  1  0
 10 14  1  0
 14 15  2  3
 15 16  1  0
  1  2  2  0
  2  6  1  0
  6  5  2  0
  5  4  1  0
  4  3  2  0
  3  1  1  0
  7  8  2  0
  8 12  1  0
 12 11  2  0
 11 10  1  0
 10  9  2  0
  9  7  1  0
 16 17  2  0
 17 20  1  0
 20 21  2  0
 21 19  1  0
 19 18  2  0
 18 16  1  0
M  END
$$$$
O14757_PocketFlow_idx-in-all-generaetd-473
     RDKit          3D

 30 33  0  0  0  0  0  0  0  0999 V2000
   -0.6395   -2.0713   41.4947 C   0  0  0  0  0  0  0  0  0  0  0  0
   -0.2671   -3.2464   41.6546 C   0  0  0  0  0  0  0  0  0  0  0  0
    0.2407   -0.9706   41.5952 C   0  0  0  0  0  0  0  0  0  0  0  0
    1.6195   -1.2958   41.8767 C   0  0  0  0  0  0  0  0  0  0  0  0
    1.9162   -2.6816   42.2016 C   0  0  0  0  0  0  0  0  0  0  0  0
    0.9422   -3.6324   42.1156 C   0  0  0  0  0  0  0  0  0  0  0  0
    2.7441   -0.4311   42.1842 C   0  0  0  0  0  0  0  0  0  0  0  0
    3.6455   -0.5007   43.1105 C   0  0  0  0  0  0  0  0  0  0  0  0
    4.8371    0.3011   43.1566 C   0  0  0  0  0  0  0  0  0  0  0  0
   -2.2680   -1.6873   40.9447 Cl  0  0  0  0  0  0  0  0  0  0  0  0
    3.6898   -1.6444   43.9907 C   0  0  0  0  0  0  0  0  0  0  0  0
    4.8023   -1.7408   44.9703 C   0  0  0  0  0  0  0  0  0  0  0  0
    6.0163   -1.4136   44.7474 C   0  0  0  0  0  0  0  0  0  0  0  0
    6.0563   -0.1821   43.8135 C   0  0  0  0  0  0  0  0  0  0  0  0
    7.1623   -1.6164   45.5100 C   0  0  0  0  0  0  0  0  0  0  0  0
    7.2768   -2.9204   46.1665 C   0  0  0  0  0  0  0  0  0  0  0  0
    8.4712   -3.2290   46.8580 C   0  0  0  0  0  0  0  0  0  0  0  0
    9.5031   -2.2930   46.9002 C   0  0  0  0  0  0  0  0  0  0  0  0
    8.3382   -0.8646   45.6112 C   0  0  0  0  0  0  0  0  0  0  0  0
    9.4366   -1.1001   46.3154 C   0  0  0  0  0  0  0  0  0  0  0  0
    8.5522   -4.5610   47.5073 C   0  0  0  0  0  0  0  0  0  0  0  0
    7.5633   -4.8632   48.4105 C   0  0  0  0  0  0  0  0  0  0  0  0
    7.1633   -4.0015   49.3129 C   0  0  0  0  0  0  0  0  0  0  0  0
    5.9830   -4.3044   50.2045 C   0  0  0  0  0  0  0  0  0  0  0  0
    5.5050   -5.6048   49.9483 C   0  0  0  0  0  0  0  0  0  0  0  0
    6.7254   -6.0585   48.4762 C   0  0  0  0  0  0  0  0  0  0  0  0
    9.5682   -5.4636   47.1541 C   0  0  0  0  0  0  0  0  0  0  0  0
    9.6308   -7.0291   47.8869 Br  0  0  0  0  0  0  0  0  0  0  0  0
   10.6181   -5.1485   46.1134 C   0  0  0  0  0  0  0  0  0  0  0  0
   11.3266   -6.2571   45.6199 C   0  0  0  0  0  0  0  0  0  0  0  0
  4  7  1  0
  1 10  1  0
 13 15  1  0
 17 21  1  0
 21 22  1  0
 22 23  2  0
 23 24  1  0
 24 25  2  0
 22 26  1  0
 25 26  1  0
 21 27  1  0
 27 28  1  0
 27 29  1  0
 29 30  2  0
  7  8  1  0
 15 16  2  0
 16 17  1  0
 17 18  2  0
 18 20  1  0
 20 19  2  0
 19 15  1  0
  8  9  2  0
  9 14  1  0
 14 13  2  0
 13 12  1  0
 12 11  2  0
 11  8  1  0
  1  2  2  0
  2  6  1  0
  6  5  2  0
  5  4  1  0
  4  3  2  0
  3  1  1  0
M  END
$$$$
O14757_PocketFlow_idx-in-all-generaetd-474
     RDKit          3D

  9  8  0  0  0  0  0  0  0  0999 V2000
   -0.6395   -2.0713   41.4947 C   0  0  0  0  0  0  0  0  0  0  0  0
    0.6719   -2.2449   41.7518 C   0  0  0  0  0  0  0  0  0  0  0  0
    1.5951   -1.1948   41.6106 C   0  0  0  0  0  0  0  0  0  0  0  0
    2.8936   -1.2860   42.2441 C   0  0  0  0  0  0  0  0  0  0  0  0
    3.8183   -0.2263   42.2043 C   0  0  0  0  0  0  0  0  0  0  0  0
   -1.1354   -0.7260   41.4386 C   0  0  0  0  0  0  0  0  0  0  0  0
    5.0766   -0.3983   42.8633 C   0  0  0  0  0  0  0  0  0  0  0  0
    5.3244   -1.4792   43.7052 C   0  0  0  0  0  0  0  0  0  0  0  0
    4.3698   -2.5397   43.7391 C   0  0  0  0  0  0  0  0  0  0  0  0
  1  2  1  0
  2  3  1  0
  3  4  2  3
  4  5  1  0
  1  6  2  0
  5  7  1  0
  7  8  1  0
  8  9  1  0
M  END
$$$$
O14757_PocketFlow_idx-in-all-generaetd-475
     RDKit          3D

 15 15  0  0  0  0  0  0  0  0999 V2000
   -0.6395   -2.0713   41.4947 C   0  0  0  0  0  0  0  0  0  0  0  0
    0.1859   -1.1027   41.5970 C   0  0  0  0  0  0  0  0  0  0  0  0
    1.5858   -1.4430   41.9548 C   0  0  0  0  0  0  0  0  0  0  0  0
    1.8933   -1.7989   43.0657 C   0  0  0  0  0  0  0  0  0  0  0  0
    3.2900   -1.9767   43.4687 C   0  0  0  0  0  0  0  0  0  0  0  0
    3.7854   -3.0356   44.2381 C   0  0  0  0  0  0  0  0  0  0  0  0
    3.2214   -4.2258   44.4319 C   0  0  0  0  0  0  0  0  0  0  0  0
    3.8372   -5.2065   45.1992 C   0  0  0  0  0  0  0  0  0  0  0  0
    4.1441   -4.9336   46.3085 C   0  0  0  0  0  0  0  0  0  0  0  0
    4.9255   -3.5938   46.5187 C   0  0  0  0  0  0  0  0  0  0  0  0
    4.4965   -2.5687   45.5306 C   0  0  0  0  0  0  0  0  0  0  0  0
   -0.5561   -3.0828   41.1617 N   0  0  0  0  0  0  0  0  0  0  0  0
   -2.0874   -1.6640   41.5285 N   0  0  0  0  0  0  0  0  0  0  0  0
    4.2393   -0.9748   43.0229 C   0  0  0  0  0  0  0  0  0  0  0  0
    3.8802    0.3926   42.8720 C   0  0  0  0  0  0  0  0  0  0  0  0
  1  2  1  0
  2  3  1  0
  3  4  1  0
  4  5  1  0
  5  6  1  0
  1 12  2  3
  1 13  1  0
  5 14  1  0
 14 15  2  0
  6  7  2  0
  7  8  1  0
  8  9  2  0
  9 10  1  0
 10 11  2  0
 11  6  1  0
M  END
$$$$
O14757_PocketFlow_idx-in-all-generaetd-476
     RDKit          3D

 14 15  0  0  0  0  0  0  0  0999 V2000
   -0.6395   -2.0713   41.4947 C   0  0  0  0  0  0  0  0  0  0  0  0
    0.1859   -1.1027   41.5970 C   0  0  0  0  0  0  0  0  0  0  0  0
   -0.2410   -3.3795   41.5297 C   0  0  0  0  0  0  0  0  0  0  0  0
    1.6125   -1.3641   41.8466 C   0  0  0  0  0  0  0  0  0  0  0  0
    1.9568   -2.7213   42.1561 C   0  0  0  0  0  0  0  0  0  0  0  0
    0.9568   -3.6932   42.0424 C   0  0  0  0  0  0  0  0  0  0  0  0
    2.3828   -0.2295   42.1464 C   0  0  0  0  0  0  0  0  0  0  0  0
    3.7455   -0.4028   42.2851 N   0  0  0  0  0  0  0  0  0  0  0  0
    4.2626   -1.4636   42.9046 C   0  0  0  0  0  0  0  0  0  0  0  0
    5.5344   -1.1382   43.5811 C   0  0  0  0  0  0  0  0  0  0  0  0
    5.9867   -2.1379   44.5710 C   0  0  0  0  0  0  0  0  0  0  0  0
    5.2806   -3.3315   44.8192 C   0  0  0  0  0  0  0  0  0  0  0  0
    4.0862   -3.5287   44.0749 C   0  0  0  0  0  0  0  0  0  0  0  0
    3.5642   -2.5348   43.3383 C   0  0  0  0  0  0  0  0  0  0  0  0
  4  7  1  0
  7  8  1  0
  8  9  1  0
  1  2  2  0
  2  4  1  0
  4  5  2  0
  5  6  1  0
  6  3  2  0
  3  1  1  0
  9 10  2  0
 10 11  1  0
 11 12  2  0
 12 13  1  0
 13 14  2  0
 14  9  1  0
M  END
$$$$
O14757_PocketFlow_idx-in-all-generaetd-477
     RDKit          3D

 25 27  0  0  0  0  0  0  0  0999 V2000
   -0.6395   -2.0713   41.4947 C   0  0  0  0  0  0  0  0  0  0  0  0
   -0.2671   -3.2464   41.6546 C   0  0  0  0  0  0  0  0  0  0  0  0
   -2.0053   -1.6706   41.3987 C   0  0  0  0  0  0  0  0  0  0  0  0
   -2.2928   -0.3176   41.3208 C   0  0  0  0  0  0  0  0  0  0  0  0
   -3.5679   -0.0116   41.1750 N   0  0  0  0  0  0  0  0  0  0  0  0
    0.4132   -1.0390   41.4557 C   0  0  0  0  0  0  0  0  0  0  0  0
    1.5217   -1.1314   41.9906 C   0  0  0  0  0  0  0  0  0  0  0  0
    2.0372   -2.4247   42.3088 C   0  0  0  0  0  0  0  0  0  0  0  0
    1.0711   -3.4728   42.3038 C   0  0  0  0  0  0  0  0  0  0  0  0
    2.5847   -0.0521   42.0355 C   0  0  0  0  0  0  0  0  0  0  0  0
    3.8717   -0.1841   42.6041 C   0  0  0  0  0  0  0  0  0  0  0  0
    4.3113   -1.3807   43.0496 C   0  0  0  0  0  0  0  0  0  0  0  0
    3.3711   -2.5302   43.0060 C   0  0  0  0  0  0  0  0  0  0  0  0
    5.5721   -1.4387   43.7369 C   0  0  0  0  0  0  0  0  0  0  0  0
    5.8230   -2.6192   44.5561 C   0  0  0  0  0  0  0  0  0  0  0  0
    6.9687   -2.5999   45.4440 C   0  0  0  0  0  0  0  0  0  0  0  0
    7.1818   -3.7432   46.2768 C   0  0  0  0  0  0  0  0  0  0  0  0
    6.5518   -3.8362   47.2361 C   0  0  2  0  0  0  0  0  0  0  0  0
    6.7899   -4.8156   48.2492 C   0  0  0  0  0  0  0  0  0  0  0  0
    7.7270   -4.5067   49.1182 C   0  0  0  0  0  0  0  0  0  0  0  0
    5.9592   -6.0215   48.3249 C   0  0  0  0  0  0  0  0  0  0  0  0
    8.2461   -5.5134   50.0034 C   0  0  0  0  0  0  0  0  0  0  0  0
    6.2844   -6.7558   48.9458 C   0  0  0  0  0  0  0  0  0  0  0  0
    7.4055   -6.7044   50.0315 C   0  0  0  0  0  0  0  0  0  0  0  0
    5.1240   -3.5697   47.1387 O   0  0  0  0  0  0  0  0  0  0  0  0
  3  4  1  0
  4  5  1  0
 12 14  1  0
 14 15  2  3
 15 16  1  0
 16 17  2  3
 17 18  1  0
 18 19  1  0
 18 25  1  6
  3  1  1  0
 19 20  2  0
 20 22  1  0
 22 24  2  0
 24 23  1  0
 23 21  2  0
 21 19  1  0
  8 13  1  0
 13 12  2  0
 12 11  1  0
 11 10  2  0
 10  7  1  0
  1  2  2  0
  2  9  1  0
  9  8  2  0
  8  7  1  0
  7  6  2  0
  6  1  1  0
M  END
$$$$
O14757_PocketFlow_idx-in-all-generaetd-478
     RDKit          3D

 35 38  0  0  0  0  0  0  0  0999 V2000
   -0.8794   -1.9236   41.9357 O   0  0  0  0  0  0  0  0  0  0  0  0
    0.3070   -1.6014   41.6735 C   0  0  0  0  0  0  0  0  0  0  0  0
    0.8076   -0.3104   41.6588 C   0  0  0  0  0  0  0  0  0  0  0  0
    2.1973   -0.1560   42.0682 C   0  0  0  0  0  0  0  0  0  0  0  0
    3.0388   -1.2356   42.4097 C   0  0  0  0  0  0  0  0  0  0  0  0
    4.3822   -1.0853   42.7927 C   0  0  0  0  0  0  0  0  0  0  0  0
    4.8286    0.2591   42.8849 C   0  0  0  0  0  0  0  0  0  0  0  0
    1.1515   -2.8548   41.5774 C   0  0  0  0  0  0  0  0  0  0  0  0
    2.5107   -2.5646   42.1871 C   0  0  0  0  0  0  0  0  0  0  0  0
    5.0088   -2.1012   43.4874 C   0  0  0  0  0  0  0  0  0  0  0  0
    5.9766   -1.8367   44.5492 C   0  0  0  0  0  0  0  0  0  0  0  0
    6.1801   -2.7223   45.5847 C   0  0  0  0  0  0  0  0  0  0  0  0
    7.4682   -2.9247   46.1592 C   0  0  0  0  0  0  0  0  0  0  0  0
    7.7403   -3.9511   47.0226 C   0  0  0  0  0  0  0  0  0  0  0  0
    6.6302   -4.6005   47.6046 C   0  0  0  0  0  0  0  0  0  0  0  0
    5.3114   -4.3245   47.1613 C   0  0  0  0  0  0  0  0  0  0  0  0
    5.1453   -3.3682   46.1973 C   0  0  0  0  0  0  0  0  0  0  0  0
    3.5240   -3.1114   45.6732 Cl  0  0  0  0  0  0  0  0  0  0  0  0
    6.8665   -5.5882   48.6766 C   0  0  0  0  0  0  0  0  0  0  0  0
    6.2787   -6.7774   48.5797 C   0  0  0  0  0  0  0  0  0  0  0  0
    5.3958   -7.2047   48.3134 C   0  0  0  0  0  0  0  0  0  0  0  0
    4.9021   -8.6106   48.1908 C   0  0  0  0  0  0  0  0  0  0  0  0
    3.6875   -9.0190   47.5935 C   0  0  0  0  0  0  0  0  0  0  0  0
    3.2372   -8.2448   46.5092 C   0  0  0  0  0  0  0  0  0  0  0  0
    2.0191   -8.6136   45.8749 C   0  0  0  0  0  0  0  0  0  0  0  0
    1.3348   -7.6270   45.1062 C   0  0  0  0  0  0  0  0  0  0  0  0
    2.0893   -6.4078   44.8671 C   0  0  0  0  0  0  0  0  0  0  0  0
    3.3596   -6.1825   45.3704 C   0  0  0  0  0  0  0  0  0  0  0  0
    3.8441   -7.0059   46.2845 C   0  0  0  0  0  0  0  0  0  0  0  0
    4.8592   -6.5791   47.1546 N   0  0  0  0  0  0  0  0  0  0  0  0
    4.4496   -4.1371   48.1503 O   0  0  0  0  0  0  0  0  0  0  0  0
   -1.8148   -2.0335   40.8170 C   0  0  0  0  0  0  0  0  0  0  0  0
    9.1511   -4.2409   47.3741 C   0  0  0  0  0  0  0  0  0  0  0  0
    9.6928   -4.1268   48.4809 C   0  0  0  0  0  0  0  0  0  0  0  0
   11.0378   -4.4070   48.7709 C   0  0  0  0  0  0  0  0  0  0  0  0
  1  2  1  0
  5  6  1  0
  6  7  2  0
  6 10  1  0
 10 11  1  0
 11 12  1  0
 17 18  1  0
 15 19  1  0
 19 20  1  0
 16 31  1  0
  1 32  1  0
 14 33  1  0
 33 34  2  3
 34 35  1  0
 20 21  1  0
 12 13  2  0
 13 14  1  0
 14 15  2  0
 15 16  1  0
 16 17  2  0
 17 12  1  0
 21 22  2  0
 22 23  1  0
 23 24  2  0
 29 30  2  0
 30 21  1  0
 24 25  1  0
 25 26  2  0
 26 27  1  0
 27 28  2  0
 28 29  1  0
 29 24  1  0
  2  3  2  0
  3  4  1  0
  4  5  2  0
  5  9  1  0
  9  8  2  0
  8  2  1  0
M  END
$$$$
O14757_PocketFlow_idx-in-all-generaetd-479
     RDKit          3D

 35 38  0  0  0  0  0  0  0  0999 V2000
   -0.6395   -2.0713   41.4947 C   0  0  0  0  0  0  0  0  0  0  0  0
   -0.2671   -3.2464   41.6546 C   0  0  0  0  0  0  0  0  0  0  0  0
    0.2407   -0.9706   41.5952 C   0  0  0  0  0  0  0  0  0  0  0  0
    1.6195   -1.2958   41.8767 C   0  0  0  0  0  0  0  0  0  0  0  0
    1.9162   -2.6816   42.2016 C   0  0  0  0  0  0  0  0  0  0  0  0
    0.9422   -3.6324   42.1156 C   0  0  0  0  0  0  0  0  0  0  0  0
    2.6136   -0.2815   42.1191 C   0  0  0  0  0  0  0  0  0  0  0  0
    3.9096   -0.5773   42.5950 C   0  0  0  0  0  0  0  0  0  0  0  0
    4.9367    0.3662   42.6897 C   0  0  0  0  0  0  0  0  0  0  0  0
   -2.0669   -1.7559   41.0542 C   0  0  0  0  0  0  0  0  0  0  0  0
   -2.5815   -0.6356   41.3393 O   0  0  0  0  0  0  0  0  0  0  0  0
   -2.8565   -2.7349   40.7596 O   0  0  0  0  0  0  0  0  0  0  0  0
    4.1627   -1.8435   43.2131 C   0  0  0  0  0  0  0  0  0  0  0  0
    5.2917   -1.8903   44.1152 C   0  0  0  0  0  0  0  0  0  0  0  0
    5.5186   -3.1135   44.8564 C   0  0  0  0  0  0  0  0  0  0  0  0
    4.5635   -3.9361   45.1697 C   0  0  0  0  0  0  0  0  0  0  0  0
    3.3795   -3.9007   44.2830 C   0  0  0  0  0  0  0  0  0  0  0  0
    3.1529   -2.7660   43.5261 C   0  0  0  0  0  0  0  0  0  0  0  0
    4.6847   -5.2980   46.1339 Cl  0  0  0  0  0  0  0  0  0  0  0  0
    6.7276   -3.0957   45.6367 N   0  0  0  0  0  0  0  0  0  0  0  0
    7.5464   -2.0320   45.8332 C   0  0  0  0  0  0  0  0  0  0  0  0
    8.5261   -2.0434   46.9034 C   0  0  0  0  0  0  0  0  0  0  0  0
    8.6001   -3.0152   47.8023 C   0  0  0  0  0  0  0  0  0  0  0  0
    9.5100   -3.0227   48.8112 C   0  0  0  0  0  0  0  0  0  0  0  0
   10.3115   -1.8935   49.0002 C   0  0  0  0  0  0  0  0  0  0  0  0
   10.3514   -0.9044   48.0106 C   0  0  0  0  0  0  0  0  0  0  0  0
    9.4367   -0.9376   46.9739 C   0  0  0  0  0  0  0  0  0  0  0  0
    7.7481   -1.1430   44.8905 O   0  0  0  0  0  0  0  0  0  0  0  0
   11.2870   -1.8145   50.1503 C   0  0  0  0  0  0  0  0  0  0  0  0
   10.9006   -1.3471   51.0504 O   0  0  0  0  0  0  0  0  0  0  0  0
   12.5261   -1.8833   49.8772 O   0  0  0  0  0  0  0  0  0  0  0  0
   11.4839   -1.0376   52.2940 C   0  0  0  0  0  0  0  0  0  0  0  0
   10.8698   -0.0845   52.9441 C   0  0  0  0  0  0  0  0  0  0  0  0
    9.8124    0.5716   52.2810 C   0  0  0  0  0  0  0  0  0  0  0  0
   11.2105    0.3677   54.3194 C   0  0  0  0  0  0  0  0  0  0  0  0
  8  9  1  0
  1 10  1  0
 10 11  2  0
 10 12  1  0
 16 19  1  0
 15 20  1  0
 20 21  1  0
 21 22  1  0
 21 28  2  0
 25 29  1  0
 29 30  1  0
 29 31  2  0
 30 32  1  0
 32 33  2  3
 33 34  1  0
 33 35  1  0
 13 14  2  0
 14 15  1  0
 15 16  2  0
 16 17  1  0
 17 18  2  0
  1  2  2  0
  2  6  1  0
  6  5  2  0
  4  3  2  0
  3  1  1  0
 22 23  2  0
 23 24  1  0
 24 25  2  0
 25 26  1  0
 26 27  2  0
 27 22  1  0
  4  5  1  0
  5 18  1  0
 18 13  1  0
 13  8  1  0
  8  7  2  0
  7  4  1  0
M  END
$$$$
O14757_PocketFlow_idx-in-all-generaetd-480
     RDKit          3D

 35 40  0  0  0  0  0  0  0  0999 V2000
   -0.6395   -2.0713   41.4947 C   0  0  0  0  0  0  0  0  0  0  0  0
    0.1859   -1.1027   41.5970 C   0  0  0  0  0  0  0  0  0  0  0  0
    1.5836   -1.3270   41.4670 C   0  0  0  0  0  0  0  0  0  0  0  0
   -0.2462   -3.3905   41.2409 C   0  0  0  0  0  0  0  0  0  0  0  0
    2.5788   -0.3160   41.7511 C   0  0  0  0  0  0  0  0  0  0  0  0
    3.8805   -0.6481   42.0316 C   0  0  1  0  0  0  0  0  0  0  0  0
    4.7506    0.3661   42.5638 C   0  0  0  0  0  0  0  0  0  0  0  0
    1.1518   -3.6265   41.1493 C   0  0  0  0  0  0  0  0  0  0  0  0
    2.0380   -2.5893   41.2442 C   0  0  0  0  0  0  0  0  0  0  0  0
   -2.0209   -1.8781   41.6291 O   0  0  0  0  0  0  0  0  0  0  0  0
    5.8922   -0.1430   43.2119 N   0  0  0  0  0  0  0  0  0  0  0  0
    5.7966   -1.3172   43.9816 C   0  0  0  0  0  0  0  0  0  0  0  0
    6.6642   -1.5011   45.1156 C   0  0  0  0  0  0  0  0  0  0  0  0
    6.6812   -2.6929   45.7741 C   0  0  0  0  0  0  0  0  0  0  0  0
    7.5883   -3.0453   46.7918 C   0  0  0  0  0  0  0  0  0  0  0  0
    7.5046   -4.2822   47.4797 C   0  0  0  0  0  0  0  0  0  0  0  0
    8.4541   -4.6022   48.4810 C   0  0  0  0  0  0  0  0  0  0  0  0
    4.7822   -2.2068   43.7440 C   0  0  0  0  0  0  0  0  0  0  0  0
    4.6076   -3.3901   44.4386 C   0  0  0  0  0  0  0  0  0  0  0  0
    5.5954   -3.6529   45.4678 C   0  0  0  0  0  0  0  0  0  0  0  0
    3.7196   -1.8112   42.8293 C   0  0  0  0  0  0  0  0  0  0  0  0
    8.1043   -5.6264   49.3844 C   0  0  0  0  0  0  0  0  0  0  0  0
    6.8755   -6.3725   49.1660 C   0  0  0  0  0  0  0  0  0  0  0  0
    5.9629   -5.9387   48.2103 C   0  0  0  0  0  0  0  0  0  0  0  0
    6.2312   -4.8782   47.4540 C   0  0  0  0  0  0  0  0  0  0  0  0
    5.3008   -4.5899   46.4910 N   0  0  0  0  0  0  0  0  0  0  0  0
    9.7718   -3.9905   48.5616 C   0  0  0  0  0  0  0  0  0  0  0  0
   10.6134   -4.3449   49.5587 C   0  0  0  0  0  0  0  0  0  0  0  0
   10.3204   -5.3110   50.2765 C   0  0  0  0  0  0  0  0  0  0  0  0
    9.0517   -6.0645   50.3533 C   0  0  0  0  0  0  0  0  0  0  0  0
    6.5574   -7.5114   50.1068 C   0  0  0  0  0  0  0  0  0  0  0  0
    6.1658   -8.5345   49.5574 O   0  0  0  0  0  0  0  0  0  0  0  0
    4.9914   -9.1456   49.9369 C   0  0  0  0  0  0  0  0  0  0  0  0
    4.1845   -9.5321   48.8279 C   0  0  0  0  0  0  0  0  0  0  0  0
    4.5685   -9.1731   47.5838 C   0  0  0  0  0  0  0  0  0  0  0  0
  3  5  1  0
  6  5  1  1
  6  7  1  0
  1 10  1  0
  7 11  1  0
 11 12  1  0
  6 21  1  0
 18 21  1  0
 23 31  1  0
 31 32  1  0
 32 33  1  0
 33 34  1  0
 34 35  1  0
  1  2  2  0
  2  3  1  0
  3  9  2  0
  9  8  1  0
  8  4  2  0
  4  1  1  0
 14 15  2  0
 15 16  1  0
 25 26  1  0
 26 20  2  0
 12 13  2  0
 13 14  1  0
 14 20  1  0
 20 19  1  0
 19 18  2  0
 18 12  1  0
 16 17  2  0
 22 23  2  0
 23 24  1  0
 24 25  2  0
 25 16  1  0
 17 22  1  0
 22 30  1  0
 30 29  2  0
 29 28  1  0
 28 27  2  0
 27 17  1  0
M  END
$$$$
O14757_PocketFlow_idx-in-all-generaetd-481
     RDKit          3D

 12 12  0  0  0  0  0  0  0  0999 V2000
    0.0138   -2.7927   42.5918 N   0  0  0  0  0  0  0  0  0  0  0  0
    1.1722   -3.1858   42.8673 C   0  0  0  0  0  0  0  0  0  0  0  0
    1.4725   -4.0593   43.8477 C   0  0  0  0  0  0  0  0  0  0  0  0
    0.4760   -4.9535   44.3016 C   0  0  0  0  0  0  0  0  0  0  0  0
    0.6427   -5.3548   45.6747 C   0  0  0  0  0  0  0  0  0  0  0  0
    1.5224   -4.9663   46.3496 O   0  0  0  0  0  0  0  0  0  0  0  0
   -0.1579   -1.7681   41.6806 C   0  0  0  0  0  0  0  0  0  0  0  0
    0.9144   -1.0186   41.3017 N   0  0  0  0  0  0  0  0  0  0  0  0
    2.2230   -2.2101   42.4843 C   0  0  0  0  0  0  0  0  0  0  0  0
    2.0935   -1.1953   41.7768 C   0  0  0  0  0  0  0  0  0  0  0  0
   -0.4413   -6.0561   46.1345 N   0  0  0  0  0  0  0  0  0  0  0  0
   -1.4200   -1.4610   41.2984 N   0  0  0  0  0  0  0  0  0  0  0  0
  2  3  1  0
  3  4  1  0
  4  5  1  0
  5  6  2  0
  5 11  1  0
  7 12  1  0
  1  2  2  0
  2  9  1  0
  9 10  2  0
 10  8  1  0
  8  7  2  0
  7  1  1  0
M  END
$$$$
O14757_PocketFlow_idx-in-all-generaetd-482
     RDKit          3D

 13 14  0  0  0  0  0  0  0  0999 V2000
   -0.6395   -2.0713   41.4947 C   0  0  0  0  0  0  0  0  0  0  0  0
    0.1859   -1.1027   41.5970 C   0  0  0  0  0  0  0  0  0  0  0  0
    1.5858   -1.4430   41.9548 C   0  0  0  0  0  0  0  0  0  0  0  0
    2.6622   -0.5501   42.0082 C   0  0  0  0  0  0  0  0  0  0  0  0
    3.8608   -0.8421   42.6622 C   0  0  1  0  0  0  0  0  0  0  0  0
    4.8744    0.0633   42.9841 C   0  0  0  0  0  0  0  0  0  0  0  0
   -0.2628   -3.4281   41.4503 C   0  0  0  0  0  0  0  0  0  0  0  0
    1.0244   -3.7736   41.8662 C   0  0  0  0  0  0  0  0  0  0  0  0
    1.9410   -2.7702   42.0429 C   0  0  0  0  0  0  0  0  0  0  0  0
   -2.0100   -1.7967   41.1674 N   0  0  0  0  0  0  0  0  0  0  0  0
    5.8927   -0.4206   43.7248 N   0  0  0  0  0  0  0  0  0  0  0  0
    5.7732   -1.6489   44.2842 C   0  0  0  0  0  0  0  0  0  0  0  0
    4.1844   -2.0582   43.4560 C   0  0  0  0  0  0  0  0  0  0  0  0
  3  4  1  0
  5  4  1  1
  5  6  1  0
  1 10  1  0
  6 11  1  0
 11 12  2  0
  5 13  1  0
 12 13  1  0
  1  2  2  0
  2  3  1  0
  3  9  2  0
  9  8  1  0
  8  7  2  0
  7  1  1  0
M  END
$$$$
O14757_PocketFlow_idx-in-all-generaetd-483
     RDKit          3D

 11 11  0  0  0  0  0  0  0  0999 V2000
   -0.6395   -2.0713   41.4947 C   0  0  0  0  0  0  0  0  0  0  0  0
   -0.2671   -3.2464   41.6546 C   0  0  0  0  0  0  0  0  0  0  0  0
    0.2407   -0.9706   41.5952 C   0  0  0  0  0  0  0  0  0  0  0  0
    1.6195   -1.2958   41.8767 C   0  0  0  0  0  0  0  0  0  0  0  0
    1.9162   -2.6816   42.2016 C   0  0  0  0  0  0  0  0  0  0  0  0
    0.9422   -3.6324   42.1156 C   0  0  0  0  0  0  0  0  0  0  0  0
    2.6136   -0.2815   42.1191 C   0  0  0  0  0  0  0  0  0  0  0  0
    3.9096   -0.5773   42.5950 C   0  0  0  0  0  0  0  0  0  0  0  0
    4.0819   -1.8037   43.3231 C   0  0  0  0  0  0  0  0  0  0  0  0
    3.0681   -2.8719   43.0888 C   0  0  0  0  0  0  0  0  0  0  0  0
    3.2849   -4.1057   43.8012 C   0  0  0  0  0  0  0  0  0  0  0  0
  4  7  1  0
  7  8  2  3
  8  9  1  0
  9 10  1  0
 10 11  1  0
  1  2  2  0
  2  6  1  0
  6  5  2  0
  5  4  1  0
  4  3  2  0
  3  1  1  0
M  END
$$$$
O14757_PocketFlow_idx-in-all-generaetd-484
     RDKit          3D

 27 28  0  0  0  0  0  0  0  0999 V2000
   -0.6395   -2.0713   41.4947 C   0  0  0  0  0  0  0  0  0  0  0  0
    0.1859   -1.1027   41.5970 C   0  0  0  0  0  0  0  0  0  0  0  0
    1.5836   -1.3270   41.4669 C   0  0  0  0  0  0  0  0  0  0  0  0
   -0.2462   -3.3905   41.2409 C   0  0  0  0  0  0  0  0  0  0  0  0
    2.5675   -0.3472   41.7943 C   0  0  0  0  0  0  0  0  0  0  0  0
    3.8546   -0.6776   42.2362 C   0  0  0  0  0  0  0  0  0  0  0  0
    3.9971   -0.8191   43.6382 C   0  0  0  0  0  0  0  0  0  0  0  0
    5.3531   -1.1327   44.1210 C   0  0  0  0  0  0  0  0  0  0  0  0
    5.5678   -2.2292   44.9984 C   0  0  0  0  0  0  0  0  0  0  0  0
    4.7708   -3.3437   45.1299 C   0  0  0  0  0  0  0  0  0  0  0  0
    4.6745   -4.0463   46.2540 C   0  0  0  0  0  0  0  0  0  0  0  0
    5.7328   -3.8512   47.2552 C   0  0  0  0  0  0  0  0  0  0  0  0
    6.6714   -2.8545   47.1106 C   0  0  0  0  0  0  0  0  0  0  0  0
    6.5759   -2.0059   46.0430 C   0  0  0  0  0  0  0  0  0  0  0  0
   -1.0986   -4.3676   41.3988 N   0  0  0  0  0  0  0  0  0  0  0  0
    3.7972   -3.5773   44.0844 C   0  0  0  0  0  0  0  0  0  0  0  0
   -2.0730   -1.8684   41.3768 C   0  0  0  0  0  0  0  0  0  0  0  0
   -2.6562   -1.5327   40.4451 N   0  0  0  0  0  0  0  0  0  0  0  0
    2.4712   -3.2817   44.2026 C   0  0  0  0  0  0  0  0  0  0  0  0
    1.5363   -4.4237   44.4225 C   0  0  0  0  0  0  0  0  0  0  0  0
    0.2764   -4.1873   44.8928 C   0  0  0  0  0  0  0  0  0  0  0  0
   -0.3533   -5.3402   45.4128 C   0  0  0  0  0  0  0  0  0  0  0  0
   -0.0791   -6.6050   44.8721 C   0  0  0  0  0  0  0  0  0  0  0  0
    1.2018   -6.7384   44.3168 C   0  0  0  0  0  0  0  0  0  0  0  0
    2.0092   -5.6758   44.1866 C   0  0  0  0  0  0  0  0  0  0  0  0
    5.8173   -4.8470   48.4184 C   0  0  0  0  0  0  0  0  0  0  0  0
    6.7780   -5.4231   48.4716 O   0  0  0  0  0  0  0  0  0  0  0  0
  1  2  1  0
  2  3  2  3
  1  4  1  0
  3  5  1  0
  5  6  1  0
  6  7  1  0
  7  8  1  0
  8  9  1  0
  4 15  1  0
 10 16  1  0
  1 17  1  0
 17 18  1  0
 16 19  1  0
 19 20  1  0
 12 26  1  0
 26 27  1  0
  9 10  2  0
 10 11  1  0
 11 12  2  0
 12 13  1  0
 13 14  2  0
 14  9  1  0
 20 21  2  0
 21 22  1  0
 22 23  2  0
 23 24  1  0
 24 25  2  0
 25 20  1  0
M  END
$$$$
O14757_PocketFlow_idx-in-all-generaetd-485
     RDKit          3D

 13 14  0  0  0  0  0  0  0  0999 V2000
    0.2881   -2.9111   42.4378 C   0  0  0  0  0  0  0  0  0  0  0  0
    1.1784   -3.4293   42.9321 C   0  0  0  0  0  0  0  0  0  0  0  0
    2.4696   -2.7231   42.8997 C   0  0  0  0  0  0  0  0  0  0  0  0
    2.5380   -1.5398   42.2487 C   0  0  0  0  0  0  0  0  0  0  0  0
    0.2254   -1.7181   41.6878 C   0  0  0  0  0  0  0  0  0  0  0  0
    1.4043   -1.0577   41.5785 C   0  0  0  0  0  0  0  0  0  0  0  0
    3.6662   -3.1326   43.6719 C   0  0  0  0  0  0  0  0  0  0  0  0
    4.6321   -2.2547   44.1531 C   0  0  0  0  0  0  0  0  0  0  0  0
    5.6476   -2.6394   44.9548 C   0  0  0  0  0  0  0  0  0  0  0  0
    5.6322   -3.9651   45.5360 C   0  0  0  0  0  0  0  0  0  0  0  0
    3.7233   -4.2843   44.4915 C   0  0  0  0  0  0  0  0  0  0  0  0
    2.5998   -5.2732   44.2534 C   0  0  0  0  0  0  0  0  0  0  0  0
    4.6976   -4.6775   45.3449 C   0  0  0  0  0  0  0  0  0  0  0  0
  3  7  1  0
 11 12  1  0
  1  2  2  0
  2  3  1  0
  3  4  2  0
  4  6  1  0
  6  5  2  0
  5  1  1  0
  7  8  2  0
  8  9  1  0
  9 10  2  0
 10 13  1  0
 13 11  2  0
 11  7  1  0
M  END
$$$$
O14757_PocketFlow_idx-in-all-generaetd-486
     RDKit          3D

 15 14  0  0  0  0  0  0  0  0999 V2000
   -0.6395   -2.0713   41.4947 C   0  0  0  0  0  0  0  0  0  0  0  0
    0.1859   -1.1027   41.5970 C   0  0  0  0  0  0  0  0  0  0  0  0
    1.5858   -1.4430   41.9548 C   0  0  0  0  0  0  0  0  0  0  0  0
    1.6955   -2.6772   42.6484 C   0  0  0  0  0  0  0  0  0  0  0  0
    0.9703   -2.9873   43.5503 C   0  0  0  0  0  0  0  0  0  0  0  0
    1.4970   -4.2602   44.3153 C   0  0  0  0  0  0  0  0  0  0  0  0
    0.6607   -5.1619   44.9867 C   0  0  0  0  0  0  0  0  0  0  0  0
    0.4221   -6.1111   44.7444 C   0  0  0  0  0  0  0  0  0  0  0  0
    0.8564   -6.8723   43.6380 C   0  0  0  0  0  0  0  0  0  0  0  0
   -0.5866   -6.9731   45.5997 C   0  0  0  0  0  0  0  0  0  0  0  0
   -0.1119   -7.6438   46.6008 C   0  0  0  0  0  0  0  0  0  0  0  0
   -0.5247   -8.5683   47.1266 C   0  0  0  0  0  0  0  0  0  0  0  0
    0.1459   -9.3021   48.2535 C   0  0  0  0  0  0  0  0  0  0  0  0
   -0.5217   -9.9336   49.2365 C   0  0  0  0  0  0  0  0  0  0  0  0
   -1.8571   -2.1128   40.7769 C   0  0  0  0  0  0  0  0  0  0  0  0
  1  2  1  0
  2  3  1  0
  3  4  1  0
  4  5  2  3
  5  6  1  0
  6  7  2  3
  7  8  1  0
  8  9  1  0
  8 10  1  0
 10 11  2  3
 11 12  1  0
 12 13  2  3
 13 14  1  0
  1 15  2  0
M  END
$$$$
O14757_PocketFlow_idx-in-all-generaetd-487
     RDKit          3D

 33 36  0  0  0  0  0  0  0  0999 V2000
   -0.6395   -2.0713   41.4947 C   0  0  0  0  0  0  0  0  0  0  0  0
    0.1859   -1.1027   41.5970 C   0  0  0  0  0  0  0  0  0  0  0  0
    1.5836   -1.3270   41.4669 C   0  0  0  0  0  0  0  0  0  0  0  0
   -0.2462   -3.3905   41.2409 C   0  0  0  0  0  0  0  0  0  0  0  0
    2.5788   -0.3160   41.7511 C   0  0  0  0  0  0  0  0  0  0  0  0
    3.8805   -0.6481   42.0316 C   0  0  0  0  0  0  0  0  0  0  0  0
    4.7506    0.3661   42.5638 C   0  0  0  0  0  0  0  0  0  0  0  0
    1.1518   -3.6265   41.1492 C   0  0  0  0  0  0  0  0  0  0  0  0
    2.0380   -2.5893   41.2442 C   0  0  0  0  0  0  0  0  0  0  0  0
    5.8945   -0.1373   43.1826 N   0  0  0  0  0  0  0  0  0  0  0  0
   -2.0228   -1.8830   41.6228 O   0  0  0  0  0  0  0  0  0  0  0  0
    5.7792   -1.1116   44.2194 C   0  0  0  0  0  0  0  0  0  0  0  0
    6.7722   -1.2298   45.2072 C   0  0  0  0  0  0  0  0  0  0  0  0
    6.8059   -2.4211   45.9628 C   0  0  0  0  0  0  0  0  0  0  0  0
    7.8208   -2.8467   46.8157 C   0  0  0  0  0  0  0  0  0  0  0  0
    7.6564   -4.0219   47.4936 C   0  0  0  0  0  0  0  0  0  0  0  0
    8.5999   -4.5022   48.4545 C   0  0  0  0  0  0  0  0  0  0  0  0
    4.8511   -2.1599   44.1524 C   0  0  0  0  0  0  0  0  0  0  0  0
    4.8871   -3.2604   44.9384 C   0  0  0  0  0  0  0  0  0  0  0  0
    5.8843   -3.3903   45.8504 C   0  0  0  0  0  0  0  0  0  0  0  0
    9.7040   -3.6988   48.6800 C   0  0  0  0  0  0  0  0  0  0  0  0
    8.9751   -2.1663   47.3729 C   0  0  0  0  0  0  0  0  0  0  0  0
    9.8541   -2.4689   48.2068 C   0  0  0  0  0  0  0  0  0  0  0  0
    3.9171   -4.3861   44.8067 C   0  0  0  0  0  0  0  0  0  0  0  0
    3.8951   -5.5174   45.4286 C   0  0  0  0  0  0  0  0  0  0  0  0
    2.8845   -6.5190   45.3090 C   0  0  0  0  0  0  0  0  0  0  0  0
    1.6408   -6.1308   44.7480 C   0  0  0  0  0  0  0  0  0  0  0  0
    1.5236   -4.7803   44.1762 C   0  0  0  0  0  0  0  0  0  0  0  0
    2.5995   -3.8823   44.2636 C   0  0  0  0  0  0  0  0  0  0  0  0
    0.5452   -7.0086   44.6300 C   0  0  0  0  0  0  0  0  0  0  0  0
   -0.5219   -6.7551   43.9146 N   0  0  0  0  0  0  0  0  0  0  0  0
    0.4559   -7.9975   45.4487 O   0  0  0  0  0  0  0  0  0  0  0  0
   -2.5107   -0.7623   41.0101 C   0  0  0  0  0  0  0  0  0  0  0  0
  3  5  1  0
  5  6  1  0
  6  7  1  0
  7 10  1  0
  1 11  1  0
 10 12  1  0
 14 15  1  0
 19 24  1  0
 27 30  1  0
 30 31  1  0
 30 32  2  0
 11 33  1  0
 24 25  2  0
 25 26  1  0
 26 27  2  0
 27 28  1  0
 28 29  2  0
 29 24  1  0
 15 16  2  0
 16 17  1  0
 17 21  2  0
 21 23  1  0
 23 22  2  0
 22 15  1  0
  1  2  2  0
  2  3  1  0
  3  9  2  0
  9  8  1  0
  8  4  2  0
  4  1  1  0
 12 13  2  0
 13 14  1  0
 14 20  2  0
 20 19  1  0
 19 18  2  0
 18 12  1  0
M  END
$$$$
O14757_PocketFlow_idx-in-all-generaetd-488
     RDKit          3D

 18 19  0  0  0  0  0  0  0  0999 V2000
    0.2881   -2.9111   42.4378 C   0  0  0  0  0  0  0  0  0  0  0  0
    0.9507   -2.0592   42.5168 F   0  0  0  0  0  0  0  0  0  0  0  0
    0.6026   -3.9894   41.7553 C   0  0  0  0  0  0  0  0  0  0  0  0
   -0.3521   -5.0874   41.6674 C   0  0  0  0  0  0  0  0  0  0  0  0
   -0.3657   -6.2139   42.5193 C   0  0  0  0  0  0  0  0  0  0  0  0
   -0.6332   -6.1951   43.7941 C   0  0  0  0  0  0  0  0  0  0  0  0
   -0.2804   -7.1981   44.6518 C   0  0  0  0  0  0  0  0  0  0  0  0
   -0.3523   -7.0876   45.9866 C   0  0  0  0  0  0  0  0  0  0  0  0
   -0.6551   -5.8406   46.5870 C   0  0  0  0  0  0  0  0  0  0  0  0
   -0.7362   -4.7430   45.8212 C   0  0  0  0  0  0  0  0  0  0  0  0
   -0.5587   -4.8723   44.4178 C   0  0  0  0  0  0  0  0  0  0  0  0
   -0.3132   -8.3432   46.8301 C   0  0  0  0  0  0  0  0  0  0  0  0
   -0.4035   -8.3489   48.1127 C   0  0  0  0  0  0  0  0  0  0  0  0
   -0.3005   -9.4816   48.9348 C   0  0  0  0  0  0  0  0  0  0  0  0
   -0.0266  -10.6556   48.3030 C   0  0  0  0  0  0  0  0  0  0  0  0
    0.1303  -10.6875   46.9165 C   0  0  0  0  0  0  0  0  0  0  0  0
    0.0539   -9.5382   46.1770 C   0  0  0  0  0  0  0  0  0  0  0  0
    0.0213   -3.0964   43.7070 F   0  0  0  0  0  0  0  0  0  0  0  0
  1  2  1  0
  1  3  2  3
  3  4  1  0
  4  5  2  3
  5  6  1  0
  8 12  1  0
  1 18  1  0
 12 13  2  0
 13 14  1  0
 14 15  2  0
 15 16  1  0
 16 17  2  0
 17 12  1  0
  6  7  2  0
  7  8  1  0
  8  9  2  0
  9 10  1  0
 10 11  2  0
 11  6  1  0
M  END
$$$$
O14757_PocketFlow_idx-in-all-generaetd-489
     RDKit          3D

 19 20  0  0  0  0  0  0  0  0999 V2000
    0.2881   -2.9111   42.4378 C   0  0  0  0  0  0  0  0  0  0  0  0
   -0.0650   -2.5021   41.5798 C   0  0  0  0  0  0  0  0  0  0  0  0
    1.6221   -3.4772   42.5980 C   0  0  0  0  0  0  0  0  0  0  0  0
    2.0908   -4.0216   43.8699 C   0  0  0  0  0  0  0  0  0  0  0  0
    1.0527   -4.4694   44.7582 C   0  0  0  0  0  0  0  0  0  0  0  0
    1.4911   -5.1342   45.9396 C   0  0  0  0  0  0  0  0  0  0  0  0
   -1.4617   -2.0392   41.2894 C   0  0  0  0  0  0  0  0  0  0  0  0
    0.4252   -5.5674   46.6930 N   0  0  0  0  0  0  0  0  0  0  0  0
   -1.8659   -1.3620   40.2820 N   0  0  0  0  0  0  0  0  0  0  0  0
    3.4151   -4.0859   44.1511 C   0  0  0  0  0  0  0  0  0  0  0  0
    4.3796   -3.0161   44.0596 C   0  0  0  0  0  0  0  0  0  0  0  0
    4.1781   -1.8007   43.4028 C   0  0  0  0  0  0  0  0  0  0  0  0
    5.1520   -0.7784   43.5133 C   0  0  0  0  0  0  0  0  0  0  0  0
    4.7995    0.4856   42.8731 C   0  0  0  0  0  0  0  0  0  0  0  0
    3.5499    0.6098   42.2893 C   0  0  0  0  0  0  0  0  0  0  0  0
    2.6500   -0.4191   42.2020 C   0  0  0  0  0  0  0  0  0  0  0  0
    2.9929   -1.6021   42.7640 C   0  0  0  0  0  0  0  0  0  0  0  0
    1.9302   -2.4896   42.4095 C   0  0  1  0  0  0  0  0  0  0  0  0
    2.0048   -2.1395   40.7292 C   0  0  0  0  0  0  0  0  0  0  0  0
  1  2  1  0
  1  3  2  3
  3  4  1  0
  4  5  2  3
  5  6  1  0
  2  7  1  0
  6  8  1  0
  7  9  1  0
  4 10  1  0
 10 11  2  0
 11 12  1  0
  3 18  1  0
 17 18  1  0
 18 19  1  6
 12 13  2  0
 13 14  1  0
 14 15  2  0
 15 16  1  0
 16 17  2  0
 17 12  1  0
M  END
$$$$
O14757_PocketFlow_idx-in-all-generaetd-490
     RDKit          3D

  8  8  0  0  0  0  0  0  0  0999 V2000
    0.0138   -2.7927   42.5918 N   0  0  0  0  0  0  0  0  0  0  0  0
    1.1722   -3.1858   42.8673 C   0  0  0  0  0  0  0  0  0  0  0  0
    2.1754   -2.1627   42.4478 C   0  0  2  0  0  0  0  0  0  0  0  0
    3.4099   -2.0520   43.0025 C   0  0  0  0  0  0  0  0  0  0  0  0
    4.2531   -0.9087   42.8937 C   0  0  0  0  0  0  0  0  0  0  0  0
    5.5134   -0.8740   43.5034 C   0  0  0  0  0  0  0  0  0  0  0  0
    0.0161   -1.6971   41.8316 C   0  0  0  0  0  0  0  0  0  0  0  0
    1.3252   -1.2324   41.8535 C   0  0  0  0  0  0  0  0  0  0  0  0
  1  2  1  0
  3  2  1  1
  3  4  1  0
  4  5  2  3
  5  6  1  0
  1  7  2  0
  3  8  1  0
  7  8  1  0
M  END
$$$$
O14757_PocketFlow_idx-in-all-generaetd-491
     RDKit          3D

 17 18  0  0  0  0  0  0  0  0999 V2000
    0.2881   -2.9111   42.4378 C   0  0  0  0  0  0  0  0  0  0  0  0
   -0.0650   -2.5021   41.5798 C   0  0  0  0  0  0  0  0  0  0  0  0
    1.5584   -2.5265   43.0885 C   0  0  0  0  0  0  0  0  0  0  0  0
    2.2571   -1.5118   42.4661 C   0  0  0  0  0  0  0  0  0  0  0  0
    1.6539   -0.8478   41.4018 C   0  0  0  0  0  0  0  0  0  0  0  0
    0.5161   -1.3208   40.9011 N   0  0  0  0  0  0  0  0  0  0  0  0
    3.4838   -1.2288   43.1823 C   0  0  2  0  0  0  0  0  0  0  0  0
    4.3273   -0.1117   42.7346 C   0  0  0  0  0  0  0  0  0  0  0  0
    4.1064   -2.0991   44.1046 C   0  0  0  0  0  0  0  0  0  0  0  0
    5.2519   -1.8091   44.8369 C   0  0  0  0  0  0  0  0  0  0  0  0
    5.6636   -2.6337   45.8597 C   0  0  0  0  0  0  0  0  0  0  0  0
    6.9389   -2.4512   46.5394 C   0  0  0  0  0  0  0  0  0  0  0  0
    7.4361   -3.4781   47.3824 C   0  0  0  0  0  0  0  0  0  0  0  0
    6.4715   -4.3362   47.9279 C   0  0  0  0  0  0  0  0  0  0  0  0
    5.1356   -4.3220   47.4817 C   0  0  0  0  0  0  0  0  0  0  0  0
    4.7668   -3.4919   46.4952 C   0  0  0  0  0  0  0  0  0  0  0  0
   -1.2491   -2.7880   40.9171 N   0  0  0  0  0  0  0  0  0  0  0  0
  4  7  1  0
  7  8  1  6
  7  9  1  0
  9 10  2  3
 10 11  1  0
  2 17  1  0
 11 12  2  0
 12 13  1  0
 13 14  2  0
 14 15  1  0
 15 16  2  0
 16 11  1  0
  1  2  2  0
  2  6  1  0
  6  5  2  0
  5  4  1  0
  4  3  2  0
  3  1  1  0
M  END
$$$$
O14757_PocketFlow_idx-in-all-generaetd-492
     RDKit          3D

 17 18  0  0  0  0  0  0  0  0999 V2000
    0.2881   -2.9111   42.4378 C   0  0  0  0  0  0  0  0  0  0  0  0
    1.3023   -2.0648   42.1981 C   0  0  0  0  0  0  0  0  0  0  0  0
    2.5313   -2.2887   42.6989 C   0  0  0  0  0  0  0  0  0  0  0  0
    3.5918   -1.3644   42.5325 C   0  0  0  0  0  0  0  0  0  0  0  0
    3.3299   -0.0611   42.1413 C   0  0  0  0  0  0  0  0  0  0  0  0
    0.5929   -4.0815   43.1930 C   0  0  0  0  0  0  0  0  0  0  0  0
   -0.3296   -5.0389   43.5550 C   0  0  0  0  0  0  0  0  0  0  0  0
    2.0367    0.1708   41.5822 C   0  0  0  0  0  0  0  0  0  0  0  0
    1.0161   -0.7832   41.7734 C   0  0  0  0  0  0  0  0  0  0  0  0
    0.1165   -6.2920   44.1632 C   0  0  0  0  0  0  0  0  0  0  0  0
    1.4547   -6.2115   44.7278 C   0  0  0  0  0  0  0  0  0  0  0  0
    2.3093   -5.2356   44.5318 C   0  0  0  0  0  0  0  0  0  0  0  0
    1.9307   -4.1397   43.8238 C   0  0  0  0  0  0  0  0  0  0  0  0
    2.8675   -3.1749   43.4877 C   0  0  0  0  0  0  0  0  0  0  0  0
    1.4028   -4.0193   44.7211 F   0  0  0  0  0  0  0  0  0  0  0  0
    0.7668   -4.5482   42.0272 F   0  0  0  0  0  0  0  0  0  0  0  0
   -0.9030   -2.7644   42.0760 O   0  0  0  0  0  0  0  0  0  0  0  0
  1  2  2  3
  1  6  1  0
  6  7  2  3
  7 10  1  0
 10 11  2  3
 11 12  1  0
 12 13  2  3
  3 14  2  3
 13 14  1  0
 13 15  1  0
  6 16  1  0
  1 17  1  0
  2  3  1  0
  3  4  1  0
  4  5  2  0
  5  8  1  0
  8  9  2  0
  9  2  1  0
M  END
$$$$
O14757_PocketFlow_idx-in-all-generaetd-493
     RDKit          3D

 30 33  0  0  0  0  0  0  0  0999 V2000
   -0.6395   -2.0713   41.4947 C   0  0  1  0  0  0  0  0  0  0  0  0
    0.1859   -1.1027   41.5970 C   0  0  0  0  0  0  0  0  0  0  0  0
    1.5858   -1.4431   41.9548 C   0  0  2  0  0  0  0  0  0  0  0  0
    2.6622   -0.5501   42.0082 C   0  0  0  0  0  0  0  0  0  0  0  0
    3.8608   -0.8421   42.6622 C   0  0  0  0  0  0  0  0  0  0  0  0
    3.9713   -1.2358   43.8822 C   0  0  0  0  0  0  0  0  0  0  0  0
    5.2276   -1.3524   44.5690 C   0  0  1  0  0  0  0  0  0  0  0  0
   -1.9955   -1.8579   41.0911 C   0  0  0  0  0  0  0  0  0  0  0  0
    5.3387   -2.2936   45.6810 C   0  0  0  0  0  0  0  0  0  0  0  0
    6.5375   -2.4208   46.3518 C   0  0  0  0  0  0  0  0  0  0  0  0
    6.7348   -3.4861   47.2807 C   0  0  0  0  0  0  0  0  0  0  0  0
    5.6207   -4.1969   47.6803 C   0  0  0  0  0  0  0  0  0  0  0  0
    4.3916   -3.9732   47.0732 C   0  0  0  0  0  0  0  0  0  0  0  0
    4.2870   -3.0794   46.0794 C   0  0  0  0  0  0  0  0  0  0  0  0
    6.3306   -0.7111   44.0050 C   0  0  0  0  0  0  0  0  0  0  0  0
   -2.4971   -0.5766   41.2741 C   0  0  0  0  0  0  0  0  0  0  0  0
    5.8109   -5.2739   48.7094 C   0  0  0  0  0  0  0  0  0  0  0  0
    6.5300   -6.3108   48.4397 N   0  0  0  0  0  0  0  0  0  0  0  0
    7.7360   -6.5258   48.7605 C   0  0  0  0  0  0  0  0  0  0  0  0
    8.4365   -7.7070   48.2477 C   0  0  0  0  0  0  0  0  0  0  0  0
   -3.7653   -0.3523   40.8974 N   0  0  0  0  0  0  0  0  0  0  0  0
   -0.0743   -3.4163   41.6457 C   0  0  0  0  0  0  0  0  0  0  0  0
    1.7966   -2.8425   41.9653 C   0  0  0  0  0  0  0  0  0  0  0  0
    1.0151   -3.5828   41.9861 N   0  0  0  0  0  0  0  0  0  0  0  0
    9.6470   -7.5308   47.6192 C   0  0  0  0  0  0  0  0  0  0  0  0
   10.4694   -6.3681   47.8845 C   0  0  0  0  0  0  0  0  0  0  0  0
    9.7851   -5.3039   48.5235 C   0  0  0  0  0  0  0  0  0  0  0  0
    8.4240   -5.2375   48.2477 C   0  0  0  0  0  0  0  0  0  0  0  0
    7.8093   -4.0781   47.7333 C   0  0  0  0  0  0  0  0  0  0  0  0
    5.7202   -7.4556   47.9947 C   0  0  0  0  0  0  0  0  0  0  0  0
  1  2  1  0
  2  3  1  0
  3  4  1  6
  4  5  1  0
  5  6  2  3
  6  7  1  0
  1  8  1  6
  7  9  1  0
  7 15  1  6
  8 16  1  0
 12 17  1  0
 17 18  1  0
 18 19  1  0
 16 21  1  0
  1 22  1  0
  3 23  1  0
 22 24  1  0
 23 24  1  0
 11 29  1  0
 28 29  1  0
 18 30  1  0
  9 10  2  0
 10 11  1  0
 11 12  2  0
 12 13  1  0
 13 14  2  0
 14  9  1  0
 19 20  2  0
 20 25  1  0
 25 26  2  0
 26 27  1  0
 27 28  2  0
 28 19  1  0
M  END
$$$$
O14757_PocketFlow_idx-in-all-generaetd-494
     RDKit          3D

  9  9  0  0  0  0  0  0  0  0999 V2000
   -0.6395   -2.0713   41.4947 C   0  0  0  0  0  0  0  0  0  0  0  0
   -0.2671   -3.2464   41.6546 C   0  0  0  0  0  0  0  0  0  0  0  0
    0.2407   -0.9706   41.5952 C   0  0  0  0  0  0  0  0  0  0  0  0
    1.6195   -1.2958   41.8767 C   0  0  0  0  0  0  0  0  0  0  0  0
    1.9162   -2.6816   42.2016 C   0  0  0  0  0  0  0  0  0  0  0  0
    0.9422   -3.6324   42.1156 C   0  0  0  0  0  0  0  0  0  0  0  0
    2.6136   -0.2815   42.1191 C   0  0  0  0  0  0  0  0  0  0  0  0
    3.9096   -0.5773   42.5950 C   0  0  0  0  0  0  0  0  0  0  0  0
    4.8708    0.4005   42.7741 C   0  0  0  0  0  0  0  0  0  0  0  0
  4  7  1  0
  7  8  3  0
  8  9  1  0
  1  2  2  0
  2  6  1  0
  6  5  2  0
  5  4  1  0
  4  3  2  0
  3  1  1  0
M  END
$$$$
O14757_PocketFlow_idx-in-all-generaetd-495
     RDKit          3D

 16 17  0  0  0  0  0  0  0  0999 V2000
   -0.6395   -2.0713   41.4947 C   0  0  0  0  0  0  0  0  0  0  0  0
    0.6719   -2.2449   41.7518 C   0  0  0  0  0  0  0  0  0  0  0  0
    1.5951   -1.1948   41.6106 C   0  0  0  0  0  0  0  0  0  0  0  0
    2.9587   -1.3961   42.0240 C   0  0  0  0  0  0  0  0  0  0  0  0
    3.8815   -0.3441   42.0598 C   0  0  0  0  0  0  0  0  0  0  0  0
    5.0972   -0.5585   42.8399 C   0  0  0  0  0  0  0  0  0  0  0  0
    5.2418   -1.6670   43.6610 C   0  0  0  0  0  0  0  0  0  0  0  0
    4.2343   -2.6445   43.6677 C   0  0  0  0  0  0  0  0  0  0  0  0
    4.3349   -3.7522   44.4939 C   0  0  0  0  0  0  0  0  0  0  0  0
    3.0876   -2.4804   42.8497 C   0  0  0  0  0  0  0  0  0  0  0  0
    5.1607   -3.8182   45.6268 C   0  0  0  0  0  0  0  0  0  0  0  0
    6.1095   -2.8625   45.9283 C   0  0  0  0  0  0  0  0  0  0  0  0
    6.2025   -1.6911   44.8446 C   0  0  0  0  0  0  0  0  0  0  0  0
   -1.2551   -1.1817   41.5642 C   0  0  0  0  0  0  0  0  0  0  0  0
   -2.6765   -1.0650   41.1710 C   0  0  0  0  0  0  0  0  0  0  0  0
   -3.3333    0.1759   41.0918 C   0  0  0  0  0  0  0  0  0  0  0  0
  1  2  1  0
  2  3  2  3
  3  4  1  0
  1 14  2  3
 14 15  1  0
 15 16  2  0
  4  5  2  0
  5  6  1  0
  6  7  2  0
  8 10  2  0
 10  4  1  0
  7  8  1  0
  8  9  1  0
  9 11  2  0
 11 12  1  0
 12 13  2  0
 13  7  1  0
M  END
$$$$
O14757_PocketFlow_idx-in-all-generaetd-496
     RDKit          3D

 27 31  0  0  0  0  0  0  0  0999 V2000
   -0.6395   -2.0713   41.4947 C   0  0  0  0  0  0  0  0  0  0  0  0
   -0.2671   -3.2464   41.6546 C   0  0  0  0  0  0  0  0  0  0  0  0
    0.2407   -0.9706   41.5952 C   0  0  0  0  0  0  0  0  0  0  0  0
    1.6195   -1.2958   41.8767 C   0  0  0  0  0  0  0  0  0  0  0  0
    1.9162   -2.6816   42.2016 C   0  0  0  0  0  0  0  0  0  0  0  0
    0.9422   -3.6324   42.1156 C   0  0  0  0  0  0  0  0  0  0  0  0
    2.6088   -0.2775   42.1300 C   0  0  0  0  0  0  0  0  0  0  0  0
    3.9059   -0.5876   42.5995 C   0  0  0  0  0  0  0  0  0  0  0  0
    4.1036   -1.8148   43.2659 C   0  0  0  0  0  0  0  0  0  0  0  0
    3.0813   -2.8841   43.0555 C   0  0  0  0  0  0  0  0  0  0  0  0
    5.2952   -2.1464   43.9843 C   0  0  0  0  0  0  0  0  0  0  0  0
    6.1893   -1.1202   44.3386 C   0  0  0  0  0  0  0  0  0  0  0  0
    7.2687   -1.4065   45.2524 C   0  0  0  0  0  0  0  0  0  0  0  0
    7.3881   -2.6678   45.8637 C   0  0  0  0  0  0  0  0  0  0  0  0
    6.2706   -3.6085   45.6017 C   0  0  0  0  0  0  0  0  0  0  0  0
    5.2449   -3.3225   44.7742 C   0  0  0  0  0  0  0  0  0  0  0  0
    8.4289   -2.9375   46.7773 C   0  0  0  0  0  0  0  0  0  0  0  0
    8.7166   -4.2642   47.1528 C   0  0  0  0  0  0  0  0  0  0  0  0
    9.9528   -4.5324   47.6501 C   0  0  0  0  0  0  0  0  0  0  0  0
    9.7400   -2.2896   46.5185 C   0  0  0  0  0  0  0  0  0  0  0  0
   10.8984   -2.4578   47.1053 C   0  0  0  0  0  0  0  0  0  0  0  0
   11.0360   -3.6762   47.6781 C   0  0  0  0  0  0  0  0  0  0  0  0
   -2.0161   -1.7035   40.9814 C   0  0  0  0  0  0  0  0  0  0  0  0
   -2.6444   -0.5441   41.2575 N   0  0  0  0  0  0  0  0  0  0  0  0
   -2.7818   -2.6093   40.4216 N   0  0  0  0  0  0  0  0  0  0  0  0
   -3.8607   -0.5613   40.6787 C   0  0  0  0  0  0  0  0  0  0  0  0
   -3.9471   -1.8497   40.1668 N   0  0  0  0  0  0  0  0  0  0  0  0
  9 11  1  0
 14 17  1  0
  1 23  1  0
 23 24  1  0
 23 25  2  0
 24 26  2  0
 25 27  1  0
 26 27  1  0
 11 12  2  0
 12 13  1  0
 13 14  2  0
 14 15  1  0
 15 16  2  0
 16 11  1  0
  5 10  1  0
 10  9  2  0
  9  8  1  0
  8  7  2  0
  7  4  1  0
  1  2  2  0
  2  6  1  0
  6  5  2  0
  5  4  1  0
  4  3  2  0
  3  1  1  0
 17 18  2  0
 18 19  1  0
 19 22  2  0
 22 21  1  0
 21 20  2  0
 20 17  1  0
M  END
$$$$
O14757_PocketFlow_idx-in-all-generaetd-497
     RDKit          3D

 12 12  0  0  0  0  0  0  0  0999 V2000
    0.0138   -2.7927   42.5918 N   0  0  0  0  0  0  0  0  0  0  0  0
   -0.1707   -2.5494   41.4965 C   0  0  0  0  0  0  0  0  0  0  0  0
    1.2890   -2.6566   43.0641 C   0  0  0  0  0  0  0  0  0  0  0  0
    1.8809   -3.4550   44.0580 C   0  0  0  0  0  0  0  0  0  0  0  0
    3.1754   -3.4474   44.4706 C   0  0  0  0  0  0  0  0  0  0  0  0
    3.9778   -2.4606   43.8742 C   0  0  0  0  0  0  0  0  0  0  0  0
    3.4577   -1.6262   42.8871 C   0  0  0  0  0  0  0  0  0  0  0  0
    2.1823   -1.7612   42.4636 C   0  0  0  0  0  0  0  0  0  0  0  0
   -1.4837   -2.6930   41.1220 N   0  0  0  0  0  0  0  0  0  0  0  0
    3.7480   -4.2989   45.4937 C   0  0  0  0  0  0  0  0  0  0  0  0
    3.4765   -5.6189   45.5302 C   0  0  0  0  0  0  0  0  0  0  0  0
    4.1595   -6.3353   46.4496 N   0  0  0  0  0  0  0  0  0  0  0  0
  1  2  1  0
  1  3  1  0
  2  9  1  0
  5 10  1  0
 10 11  2  3
 11 12  1  0
  3  4  2  0
  4  5  1  0
  5  6  2  0
  6  7  1  0
  7  8  2  0
  8  3  1  0
M  END
$$$$
O14757_PocketFlow_idx-in-all-generaetd-498
     RDKit          3D

 35 39  0  0  0  0  0  0  0  0999 V2000
    0.2881   -2.9111   42.4378 C   0  0  0  0  0  0  0  0  0  0  0  0
    1.1784   -3.4293   42.9321 C   0  0  0  0  0  0  0  0  0  0  0  0
    1.2340   -4.4107   43.9123 C   0  0  0  0  0  0  0  0  0  0  0  0
    2.2208   -4.4317   44.9351 C   0  0  0  0  0  0  0  0  0  0  0  0
    3.3567   -3.5729   44.7214 C   0  0  0  0  0  0  0  0  0  0  0  0
    3.3959   -2.6565   43.7337 C   0  0  0  0  0  0  0  0  0  0  0  0
    2.3097   -2.5040   42.9181 C   0  0  2  0  0  0  0  0  0  0  0  0
    0.5959   -1.7448   41.7158 N   0  0  0  0  0  0  0  0  0  0  0  0
    1.8947   -1.5445   42.0794 C   0  0  0  0  0  0  0  0  0  0  0  0
    4.4029   -1.6244   43.5823 C   0  0  0  0  0  0  0  0  0  0  0  0
    5.5479   -1.6854   44.4497 C   0  0  0  0  0  0  0  0  0  0  0  0
    5.6241   -2.7963   45.4180 C   0  0  0  0  0  0  0  0  0  0  0  0
    4.5141   -3.6872   45.6378 C   0  0  0  0  0  0  0  0  0  0  0  0
    6.8624   -2.8805   46.2180 C   0  0  0  0  0  0  0  0  0  0  0  0
    7.6654   -3.9427   45.8705 C   0  0  0  0  0  0  0  0  0  0  0  0
    8.6921   -4.1448   46.9269 C   0  0  0  0  0  0  0  0  0  0  0  0
    9.2673   -5.4079   47.0640 C   0  0  0  0  0  0  0  0  0  0  0  0
   10.3442   -5.5892   47.9178 C   0  0  0  0  0  0  0  0  0  0  0  0
   10.7236   -4.5811   48.7710 C   0  0  0  0  0  0  0  0  0  0  0  0
   10.1305   -3.3547   48.6986 C   0  0  0  0  0  0  0  0  0  0  0  0
    9.0861   -3.1051   47.7518 C   0  0  0  0  0  0  0  0  0  0  0  0
    0.2149   -5.5038   43.9807 C   0  0  0  0  0  0  0  0  0  0  0  0
    0.1219   -6.1977   44.9282 C   0  0  0  0  0  0  0  0  0  0  0  0
   -0.7957   -6.6255   45.4015 C   0  0  0  0  0  0  0  0  0  0  0  0
   -0.9198   -7.5313   46.6214 C   0  0  0  0  0  0  0  0  0  0  0  0
    0.2168   -7.8803   47.2002 C   0  0  0  0  0  0  0  0  0  0  0  0
    1.4461   -7.5951   46.5834 C   0  0  0  0  0  0  0  0  0  0  0  0
    1.4894   -6.7329   45.5434 C   0  0  0  0  0  0  0  0  0  0  0  0
    2.5661   -0.5791   41.6122 F   0  0  0  0  0  0  0  0  0  0  0  0
    4.5694   -4.6685   46.6780 C   0  0  0  0  0  0  0  0  0  0  0  0
    6.8693   -0.6382   44.1839 Cl  0  0  0  0  0  0  0  0  0  0  0  0
   -2.2913   -7.8645   47.1231 C   0  0  0  0  0  0  0  0  0  0  0  0
   -3.1700   -7.5207   46.3367 F   0  0  0  0  0  0  0  0  0  0  0  0
   -2.4807   -7.2164   48.3059 F   0  0  0  0  0  0  0  0  0  0  0  0
   -2.3492   -9.1687   47.3353 F   0  0  0  0  0  0  0  0  0  0  0  0
  1  2  2  0
  2  3  1  0
  3  4  1  0
  4  5  1  0
  2  7  1  0
  6  7  1  0
  1  8  1  0
  7  9  1  1
  8  9  1  0
 12 14  1  0
 14 15  1  0
  3 22  1  0
 22 23  1  0
  9 29  1  0
 13 30  1  0
 11 31  1  0
 25 32  1  0
 32 33  1  0
 32 34  1  0
 32 35  1  0
 15 16  1  0
 16 17  2  0
 17 18  1  0
 18 19  2  0
 19 20  1  0
 20 21  2  0
 21 16  1  0
 23 24  2  0
 24 25  1  0
 25 26  2  0
 26 27  1  0
 27 28  2  0
 28 23  1  0
  5  6  2  0
  6 10  1  0
 10 11  2  0
 11 12  1  0
 12 13  2  0
 13  5  1  0
M  END
$$$$
O14757_PocketFlow_idx-in-all-generaetd-499
     RDKit          3D

 19 21  0  0  0  0  0  0  0  0999 V2000
    0.2881   -2.9111   42.4378 C   0  0  0  0  0  0  0  0  0  0  0  0
    1.1784   -3.4293   42.9321 C   0  0  0  0  0  0  0  0  0  0  0  0
    2.4507   -2.7243   42.9621 C   0  0  0  0  0  0  0  0  0  0  0  0
    2.5762   -1.5430   42.3314 C   0  0  0  0  0  0  0  0  0  0  0  0
    0.2669   -1.7116   41.6824 C   0  0  0  0  0  0  0  0  0  0  0  0
    1.4692   -1.0385   41.6539 C   0  0  0  0  0  0  0  0  0  0  0  0
    3.4659   -3.3066   43.8398 C   0  0  0  0  0  0  0  0  0  0  0  0
    4.6549   -2.5518   44.2123 C   0  0  0  0  0  0  0  0  0  0  0  0
    5.5965   -3.0601   45.0971 C   0  0  0  0  0  0  0  0  0  0  0  0
    5.3622   -4.2792   45.7358 C   0  0  0  0  0  0  0  0  0  0  0  0
    3.3014   -4.4437   44.6753 C   0  0  0  0  0  0  0  0  0  0  0  0
    4.2002   -4.9130   45.5838 C   0  0  0  0  0  0  0  0  0  0  0  0
    6.8495   -2.2773   45.3531 C   0  0  0  0  0  0  0  0  0  0  0  0
    7.8540   -2.8227   46.2079 C   0  0  0  0  0  0  0  0  0  0  0  0
    9.0025   -2.0611   46.4106 C   0  0  0  0  0  0  0  0  0  0  0  0
   10.0380   -2.5640   47.2722 C   0  0  0  0  0  0  0  0  0  0  0  0
    9.8896   -3.4663   47.8288 C   0  0  0  0  0  0  0  0  0  0  0  0
    8.7762   -4.3765   47.7597 C   0  0  0  0  0  0  0  0  0  0  0  0
    7.7541   -3.9650   46.9260 C   0  0  0  0  0  0  0  0  0  0  0  0
  3  7  1  0
  9 13  1  0
 13 14  1  0
  7  8  2  0
  8  9  1  0
  9 10  2  0
 10 12  1  0
 12 11  2  0
 11  7  1  0
 14 15  2  0
 15 16  1  0
 16 17  2  0
 17 18  1  0
 18 19  2  0
 19 14  1  0
  1  2  2  0
  2  3  1  0
  3  4  2  0
  4  6  1  0
  6  5  2  0
  5  1  1  0
M  END
$$$$
O14757_PocketFlow_idx-in-all-generaetd-500
     RDKit          3D

 35 39  0  0  0  0  0  0  0  0999 V2000
   -0.6395   -2.0713   41.4947 C   0  0  0  0  0  0  0  0  0  0  0  0
   -0.2671   -3.2464   41.6546 C   0  0  0  0  0  0  0  0  0  0  0  0
    0.2277   -0.9875   41.6495 C   0  0  0  0  0  0  0  0  0  0  0  0
    1.6284   -1.2752   41.8841 C   0  0  0  0  0  0  0  0  0  0  0  0
    1.9209   -2.6657   42.2361 C   0  0  0  0  0  0  0  0  0  0  0  0
    0.9459   -3.6290   42.1337 C   0  0  0  0  0  0  0  0  0  0  0  0
    2.5772   -0.2393   42.1150 C   0  0  0  0  0  0  0  0  0  0  0  0
    3.9024   -0.5163   42.5657 C   0  0  0  0  0  0  0  0  0  0  0  0
    4.1485   -1.6849   43.3643 C   0  0  0  0  0  0  0  0  0  0  0  0
    3.1232   -2.7896   43.1254 C   0  0  0  0  0  0  0  0  0  0  0  0
    4.9283   -1.7214   44.4835 C   0  0  0  0  0  0  0  0  0  0  0  0
    5.2153   -2.8801   45.2713 C   0  0  0  0  0  0  0  0  0  0  0  0
    6.2847   -2.8407   46.1843 C   0  0  0  0  0  0  0  0  0  0  0  0
    6.4872   -3.9414   47.0767 C   0  0  0  0  0  0  0  0  0  0  0  0
    7.5459   -3.9578   48.0379 C   0  0  0  0  0  0  0  0  0  0  0  0
    8.6350   -3.1601   47.7840 C   0  0  0  0  0  0  0  0  0  0  0  0
    8.5537   -2.1879   46.7452 C   0  0  0  0  0  0  0  0  0  0  0  0
    7.4530   -2.0393   45.9064 C   0  0  0  0  0  0  0  0  0  0  0  0
   -1.9291   -1.7256   41.0720 N   0  0  0  0  0  0  0  0  0  0  0  0
    5.1188    0.6712   42.6965 Cl  0  0  0  0  0  0  0  0  0  0  0  0
   -2.5766   -0.5445   41.3015 C   0  0  0  0  0  0  0  0  0  0  0  0
   -3.7893   -0.3719   40.7984 N   0  0  0  0  0  0  0  0  0  0  0  0
    4.2775   -3.8888   45.3170 C   0  0  0  0  0  0  0  0  0  0  0  0
    3.3853   -4.1532   44.8450 C   0  0  0  0  0  0  0  0  0  0  0  0
    2.8078   -3.6337   43.6613 C   0  0  0  0  0  0  0  0  0  0  0  0
    1.6908   -4.1915   43.0128 N   0  0  0  0  0  0  0  0  0  0  0  0
    7.5336   -4.9438   49.1114 C   0  0  0  0  0  0  0  0  0  0  0  0
    8.0846   -6.0428   48.9020 O   0  0  0  0  0  0  0  0  0  0  0  0
    6.4930   -4.7423   49.9856 O   0  0  0  0  0  0  0  0  0  0  0  0
    2.8319   -5.5772   45.1702 C   0  0  0  0  0  0  0  0  0  0  0  0
    1.7944   -5.6706   45.8789 N   0  0  0  0  0  0  0  0  0  0  0  0
    0.7457   -6.6071   45.6453 C   0  0  0  0  0  0  0  0  0  0  0  0
   -0.5613   -6.3034   46.1115 C   0  0  0  0  0  0  0  0  0  0  0  0
   -1.6196   -7.2310   45.6955 C   0  0  0  0  0  0  0  0  0  0  0  0
   -1.9520   -8.1013   46.4376 O   0  0  0  0  0  0  0  0  0  0  0  0
  9 11  1  0
 11 12  2  0
 12 13  1  0
  1 19  1  0
  8 20  1  0
 19 21  1  0
 21 22  2  3
 12 23  1  0
 23 24  2  0
 10 25  1  0
 24 25  1  0
  6 26  1  0
 25 26  1  0
 15 27  1  0
 27 28  2  0
 27 29  1  0
 24 30  1  0
 30 31  1  0
 31 32  1  0
 32 33  1  0
 33 34  1  0
 34 35  2  0
 13 14  2  0
 14 15  1  0
 15 16  2  0
 16 17  1  0
 17 18  2  0
 18 13  1  0
  5 10  1  0
 10  9  2  0
  9  8  1  0
  8  7  2  0
  7  4  1  0
  1  2  2  0
  2  6  1  0
  6  5  2  0
  5  4  1  0
  4  3  2  0
  3  1  1  0
M  END
$$$$
O14757_PocketFlow_idx-in-all-generaetd-501
     RDKit          3D

 26 28  0  0  0  0  0  0  0  0999 V2000
   -0.8794   -1.9236   41.9357 O   0  0  0  0  0  0  0  0  0  0  0  0
    0.3182   -2.2442   41.7073 C   0  0  0  0  0  0  0  0  0  0  0  0
    1.3036   -2.2273   42.6607 C   0  0  0  0  0  0  0  0  0  0  0  0
    2.6349   -1.9130   42.3734 C   0  0  0  0  0  0  0  0  0  0  0  0
    3.5847   -1.8198   43.3683 C   0  0  0  0  0  0  0  0  0  0  0  0
    4.8004   -1.0249   43.2722 C   0  0  0  0  0  0  0  0  0  0  0  0
    5.7793   -1.1574   44.2507 C   0  0  0  0  0  0  0  0  0  0  0  0
    5.7709   -2.2018   45.1930 C   0  0  0  0  0  0  0  0  0  0  0  0
    4.6902   -3.0834   45.1850 C   0  0  0  0  0  0  0  0  0  0  0  0
    3.6283   -2.9444   44.2859 C   0  0  0  0  0  0  0  0  0  0  0  0
    6.8610   -2.3574   46.1415 C   0  0  0  0  0  0  0  0  0  0  0  0
    8.0291   -1.6158   46.0749 C   0  0  0  0  0  0  0  0  0  0  0  0
    9.1199   -1.8894   46.9203 C   0  0  0  0  0  0  0  0  0  0  0  0
    9.0666   -2.8516   47.8528 C   0  0  0  0  0  0  0  0  0  0  0  0
    7.8653   -3.6449   47.9166 C   0  0  0  0  0  0  0  0  0  0  0  0
    6.8253   -3.4659   47.0056 C   0  0  0  0  0  0  0  0  0  0  0  0
    0.4849   -2.8071   40.5677 O   0  0  0  0  0  0  0  0  0  0  0  0
    4.7628    0.1383   42.3811 C   0  0  0  0  0  0  0  0  0  0  0  0
    7.7470   -4.7777   48.9022 C   0  0  0  0  0  0  0  0  0  0  0  0
    7.8966   -6.0284   48.4744 C   0  0  0  0  0  0  0  0  0  0  0  0
    6.9825   -7.0079   48.8550 C   0  0  0  0  0  0  0  0  0  0  0  0
    6.9739   -8.2796   48.4799 C   0  0  0  0  0  0  0  0  0  0  0  0
    8.0800   -8.6986   47.7329 C   0  0  0  0  0  0  0  0  0  0  0  0
    9.0817   -7.8380   47.3347 C   0  0  0  0  0  0  0  0  0  0  0  0
    8.9868   -6.4971   47.7137 C   0  0  0  0  0  0  0  0  0  0  0  0
    7.5209   -4.3834   50.1059 O   0  0  0  0  0  0  0  0  0  0  0  0
  1  2  1  0
  2  3  1  0
  3  4  2  3
  4  5  1  0
  8 11  1  0
  2 17  2  0
  6 18  1  0
 15 19  1  0
 19 20  1  0
 19 26  2  0
 11 12  2  0
 12 13  1  0
 13 14  2  0
 14 15  1  0
 15 16  2  0
 16 11  1  0
  5  6  2  0
  6  7  1  0
  7  8  2  0
  8  9  1  0
  9 10  2  0
 10  5  1  0
 20 21  2  0
 21 22  1  0
 22 23  2  0
 23 24  1  0
 24 25  2  0
 25 20  1  0
M  END
$$$$
O14757_PocketFlow_idx-in-all-generaetd-502
     RDKit          3D

  6  6  0  0  0  0  0  0  0  0999 V2000
   -0.6395   -2.0713   41.4947 C   0  0  0  0  0  0  0  0  0  0  0  0
    0.1859   -1.1027   41.5970 C   0  0  0  0  0  0  0  0  0  0  0  0
   -0.2410   -3.3795   41.5297 C   0  0  0  0  0  0  0  0  0  0  0  0
    1.6125   -1.3641   41.8466 C   0  0  0  0  0  0  0  0  0  0  0  0
    1.9568   -2.7213   42.1561 C   0  0  0  0  0  0  0  0  0  0  0  0
    0.9568   -3.6932   42.0424 C   0  0  0  0  0  0  0  0  0  0  0  0
  1  2  2  0
  2  4  1  0
  4  5  2  0
  5  6  1  0
  6  3  2  0
  3  1  1  0
M  END
$$$$
O14757_PocketFlow_idx-in-all-generaetd-503
     RDKit          3D

  6  6  0  0  0  0  0  0  0  0999 V2000
    0.2881   -2.9111   42.4378 C   0  0  0  0  0  0  0  0  0  0  0  0
    1.3023   -2.0648   42.1981 C   0  0  0  0  0  0  0  0  0  0  0  0
    2.5313   -2.2887   42.6989 C   0  0  0  0  0  0  0  0  0  0  0  0
    2.7176   -3.3676   43.6275 C   0  0  0  0  0  0  0  0  0  0  0  0
    1.6703   -4.2006   43.9257 C   0  0  0  0  0  0  0  0  0  0  0  0
    0.4955   -4.0028   43.2983 C   0  0  0  0  0  0  0  0  0  0  0  0
  1  2  2  0
  2  3  1  0
  3  4  2  0
  4  5  1  0
  5  6  2  0
  6  1  1  0
M  END
$$$$
O14757_PocketFlow_idx-in-all-generaetd-504
     RDKit          3D

 16 17  0  0  0  0  0  0  0  0999 V2000
    0.2881   -2.9111   42.4378 C   0  0  0  0  0  0  0  0  0  0  0  0
    1.1784   -3.4293   42.9321 C   0  0  0  0  0  0  0  0  0  0  0  0
    1.2340   -4.4107   43.9123 C   0  0  0  0  0  0  0  0  0  0  0  0
    2.2208   -4.4317   44.9351 C   0  0  0  0  0  0  0  0  0  0  0  0
    2.2401   -5.2723   46.0694 C   0  0  0  0  0  0  0  0  0  0  0  0
    0.1235   -2.3096   41.2167 C   0  0  0  0  0  0  0  0  0  0  0  0
    1.1118   -6.1157   46.0464 C   0  0  0  0  0  0  0  0  0  0  0  0
    0.0829   -6.0246   45.1557 C   0  0  0  0  0  0  0  0  0  0  0  0
    0.1320   -5.2213   44.1086 C   0  0  0  0  0  0  0  0  0  0  0  0
    1.3624   -1.7470   40.6924 C   0  0  0  0  0  0  0  0  0  0  0  0
    2.4783   -1.9126   41.5488 C   0  0  0  0  0  0  0  0  0  0  0  0
    2.4872   -2.6879   42.6507 C   0  0  0  0  0  0  0  0  0  0  0  0
   -1.0439   -7.0033   45.2996 C   0  0  0  0  0  0  0  0  0  0  0  0
   -2.1202   -6.6287   45.6866 O   0  0  0  0  0  0  0  0  0  0  0  0
   -0.9738   -8.2029   44.8166 O   0  0  0  0  0  0  0  0  0  0  0  0
    3.6308   -3.3310   44.8181 Cl  0  0  0  0  0  0  0  0  0  0  0  0
  2  3  1  0
  8 13  1  0
 13 14  1  0
 13 15  2  0
  4 16  1  0
  3  4  2  0
  4  5  1  0
  5  7  2  0
  7  8  1  0
  8  9  2  0
  9  3  1  0
  1  2  2  0
  2 12  1  0
 12 11  2  0
 11 10  1  0
 10  6  2  0
  6  1  1  0
M  END
$$$$
O14757_PocketFlow_idx-in-all-generaetd-505
     RDKit          3D

 27 30  0  0  0  0  0  0  0  0999 V2000
    0.2881   -2.9111   42.4378 C   0  0  0  0  0  0  0  0  0  0  0  0
    1.3023   -2.0648   42.1981 C   0  0  1  0  0  0  0  0  0  0  0  0
    0.9971   -0.8647   41.5341 C   0  0  0  0  0  0  0  0  0  0  0  0
    0.5525   -4.0790   43.0426 O   0  0  0  0  0  0  0  0  0  0  0  0
   -0.3550   -0.7276   41.3632 N   0  0  0  0  0  0  0  0  0  0  0  0
   -0.8812   -1.9769   41.8158 C   0  0  0  0  0  0  0  0  0  0  0  0
    1.4297   -4.1112   44.0215 C   0  0  0  0  0  0  0  0  0  0  0  0
    2.6945   -3.6182   43.8942 C   0  0  0  0  0  0  0  0  0  0  0  0
    2.5861   -2.2208   43.1101 C   0  0  0  0  0  0  0  0  0  0  0  0
    3.8279   -3.7798   44.6271 C   0  0  0  0  0  0  0  0  0  0  0  0
    3.9805   -4.8942   45.3300 C   0  0  0  0  0  0  0  0  0  0  0  0
    4.8647   -2.7907   44.6439 C   0  0  0  0  0  0  0  0  0  0  0  0
    6.0548   -3.0250   45.4616 C   0  0  0  0  0  0  0  0  0  0  0  0
    6.0668   -4.1104   46.3336 C   0  0  0  0  0  0  0  0  0  0  0  0
    5.0544   -5.0493   46.2943 C   0  0  0  0  0  0  0  0  0  0  0  0
    1.8517    0.1404   41.2859 N   0  0  0  0  0  0  0  0  0  0  0  0
    6.9313   -1.8567   45.4106 C   0  0  0  0  0  0  0  0  0  0  0  0
    6.7219   -0.8300   44.5648 N   0  0  0  0  0  0  0  0  0  0  0  0
    8.1299   -1.8858   46.1557 N   0  0  0  0  0  0  0  0  0  0  0  0
    8.4728   -2.8494   46.9768 C   0  0  0  0  0  0  0  0  0  0  0  0
    9.5362   -3.1249   47.3115 C   0  0  0  0  0  0  0  0  0  0  0  0
   10.5921   -2.1878   47.0958 C   0  0  0  0  0  0  0  0  0  0  0  0
   11.9337   -2.2980   47.5889 C   0  0  0  0  0  0  0  0  0  0  0  0
   12.2372   -3.3736   48.1784 C   0  0  0  0  0  0  0  0  0  0  0  0
   11.3741   -4.4050   48.3923 C   0  0  0  0  0  0  0  0  0  0  0  0
   10.0369   -4.2661   48.0102 C   0  0  0  0  0  0  0  0  0  0  0  0
   -2.0135   -2.4344   41.6783 O   0  0  0  0  0  0  0  0  0  0  0  0
  1  2  1  0
  2  3  1  0
  1  4  1  0
  3  5  1  0
  1  6  1  0
  5  6  1  0
  4  7  1  0
  7  8  2  0
  2  9  1  1
  8  9  1  0
  8 10  1  0
  3 16  2  3
 13 17  1  0
 17 18  1  0
 17 19  2  3
 19 20  1  0
  6 27  2  0
 20 21  1  0
 10 11  2  0
 11 15  1  0
 15 14  2  0
 14 13  1  0
 13 12  2  0
 12 10  1  0
 21 22  2  0
 22 23  1  0
 23 24  2  0
 24 25  1  0
 25 26  2  0
 26 21  1  0
M  END
$$$$
O14757_PocketFlow_idx-in-all-generaetd-506
     RDKit          3D

 35 36  0  0  0  0  0  0  0  0999 V2000
    0.2881   -2.9111   42.4378 C   0  0  0  0  0  0  0  0  0  0  0  0
   -0.0650   -2.5021   41.5798 C   0  0  0  0  0  0  0  0  0  0  0  0
    1.6108   -3.5167   42.6657 C   0  0  0  0  0  0  0  0  0  0  0  0
    2.0262   -4.1022   43.9169 C   0  0  0  0  0  0  0  0  0  0  0  0
    3.3116   -4.3084   44.3274 C   0  0  0  0  0  0  0  0  0  0  0  0
    3.6450   -5.1190   45.4311 C   0  0  0  0  0  0  0  0  0  0  0  0
    4.9256   -4.9481   45.9997 C   0  0  0  0  0  0  0  0  0  0  0  0
    5.0585   -3.6549   46.6573 C   0  0  0  0  0  0  0  0  0  0  0  0
    6.2627   -3.4516   47.4399 C   0  0  0  0  0  0  0  0  0  0  0  0
    6.6281   -4.3795   48.3337 C   0  0  0  0  0  0  0  0  0  0  0  0
    7.6583   -4.1165   49.1873 C   0  0  0  0  0  0  0  0  0  0  0  0
   -1.4000   -1.9507   41.4643 C   0  0  0  0  0  0  0  0  0  0  0  0
    8.6987   -3.3230   48.8458 C   0  0  0  0  0  0  0  0  0  0  0  0
    8.5010   -2.5697   47.6081 C   0  0  0  0  0  0  0  0  0  0  0  0
    7.2834   -2.6644   46.9249 C   0  0  0  0  0  0  0  0  0  0  0  0
    7.2872   -1.8790   45.6723 C   0  0  0  0  0  0  0  0  0  0  0  0
    6.5250   -0.8648   45.4258 C   0  0  0  0  0  0  0  0  0  0  0  0
    5.5049   -0.9836   44.3545 C   0  0  0  0  0  0  0  0  0  0  0  0
    5.2072    0.0583   43.4356 C   0  0  0  0  0  0  0  0  0  0  0  0
    4.1188   -0.0791   42.5110 C   0  0  0  0  0  0  0  0  0  0  0  0
    3.4156   -1.2772   42.3542 C   0  0  0  0  0  0  0  0  0  0  0  0
    2.4525   -1.2308   41.3939 C   0  0  2  0  0  0  0  0  0  0  0  0
    1.1828   -2.0070   41.6898 C   0  0  1  0  0  0  0  0  0  0  0  0
    1.0441   -0.9055   40.8820 O   0  0  0  0  0  0  0  0  0  0  0  0
    0.6043    0.1925   41.6223 C   0  0  0  0  0  0  0  0  0  0  0  0
    2.8253   -1.6611   40.2087 O   0  0  0  0  0  0  0  0  0  0  0  0
    2.2774   -3.7998   41.7178 O   0  0  0  0  0  0  0  0  0  0  0  0
   -2.4174   -2.6337   41.0761 O   0  0  0  0  0  0  0  0  0  0  0  0
   -1.6758   -0.6763   41.7256 O   0  0  0  0  0  0  0  0  0  0  0  0
   -0.0111    0.2821   42.5346 O   0  0  0  0  0  0  0  0  0  0  0  0
    9.8538   -3.0825   49.6977 C   0  0  0  0  0  0  0  0  0  0  0  0
   11.0041   -3.4924   49.4962 C   0  0  0  0  0  0  0  0  0  0  0  0
    9.5468   -2.2155   50.8988 C   0  0  0  0  0  0  0  0  0  0  0  0
   10.3443   -1.2599   51.3185 C   0  0  0  0  0  0  0  0  0  0  0  0
   11.8039   -1.5411   51.1042 C   0  0  0  0  0  0  0  0  0  0  0  0
  1  2  2  0
  1  3  1  0
  3  4  1  0
  4  5  1  0
  5  6  1  0
  6  7  1  0
  7  8  1  0
  8  9  1  0
  2 12  1  0
 15 16  1  0
 16 17  1  0
 17 18  1  0
 18 19  2  0
 19 20  1  0
 20 21  2  0
 21 22  1  0
  2 23  1  0
 22 23  1  0
 23 24  1  1
 24 25  1  0
 22 26  1  6
  3 27  2  0
 12 28  2  0
 12 29  1  0
 25 30  1  0
 13 31  1  0
 31 32  1  0
 31 33  1  0
 33 34  2  3
 34 35  1  0
  9 10  2  0
 10 11  1  0
 11 13  2  0
 13 14  1  0
 14 15  2  0
 15  9  1  0
M  END
$$$$
O14757_PocketFlow_idx-in-all-generaetd-507
     RDKit          3D

 21 23  0  0  0  0  0  0  0  0999 V2000
   -0.6395   -2.0713   41.4947 C   0  0  0  0  0  0  0  0  0  0  0  0
    0.1859   -1.1027   41.5970 C   0  0  0  0  0  0  0  0  0  0  0  0
    1.5836   -1.3270   41.4670 C   0  0  0  0  0  0  0  0  0  0  0  0
   -0.2462   -3.3905   41.2409 C   0  0  0  0  0  0  0  0  0  0  0  0
    2.5675   -0.3473   41.7943 C   0  0  0  0  0  0  0  0  0  0  0  0
    3.8546   -0.6776   42.2362 C   0  0  0  0  0  0  0  0  0  0  0  0
    4.7317    0.3221   42.6999 C   0  0  0  0  0  0  0  0  0  0  0  0
    1.0887   -3.6005   41.1320 N   0  0  0  0  0  0  0  0  0  0  0  0
    1.9631   -2.5815   41.2440 C   0  0  0  0  0  0  0  0  0  0  0  0
   -2.4064   -1.8433   41.5899 Cl  0  0  0  0  0  0  0  0  0  0  0  0
    5.8974   -0.2104   43.3968 C   0  0  0  0  0  0  0  0  0  0  0  0
    5.7013   -1.1650   44.4300 C   0  0  0  0  0  0  0  0  0  0  0  0
    6.6750   -1.5160   45.3656 C   0  0  0  0  0  0  0  0  0  0  0  0
    6.5433   -2.6897   46.1141 C   0  0  0  0  0  0  0  0  0  0  0  0
    5.3517   -3.4343   45.9799 C   0  0  0  0  0  0  0  0  0  0  0  0
    5.0831   -4.5654   46.7412 C   0  0  0  0  0  0  0  0  0  0  0  0
    6.0632   -4.8945   47.7185 C   0  0  0  0  0  0  0  0  0  0  0  0
    7.2453   -4.2037   47.9141 C   0  0  0  0  0  0  0  0  0  0  0  0
    7.5119   -3.1010   47.1074 C   0  0  0  0  0  0  0  0  0  0  0  0
    4.5424   -2.0547   44.3091 C   0  0  0  0  0  0  0  0  0  0  0  0
    4.3976   -3.0883   45.1824 C   0  0  0  0  0  0  0  0  0  0  0  0
  3  5  1  0
  5  6  2  3
  6  7  1  0
  1 10  1  0
  7 11  1  0
 11 12  1  0
 15 16  2  0
 16 17  1  0
 17 18  2  0
 18 19  1  0
 19 14  2  0
 12 13  2  0
 13 14  1  0
 14 15  1  0
 15 21  1  0
 21 20  2  0
 20 12  1  0
  1  2  2  0
  2  3  1  0
  3  9  2  0
  9  8  1  0
  8  4  2  0
  4  1  1  0
M  END
$$$$
O14757_PocketFlow_idx-in-all-generaetd-508
     RDKit          3D

 15 16  0  0  0  0  0  0  0  0999 V2000
   -0.6395   -2.0713   41.4947 C   0  0  0  0  0  0  0  0  0  0  0  0
    0.1859   -1.1027   41.5970 C   0  0  0  0  0  0  0  0  0  0  0  0
   -0.2410   -3.3795   41.5297 C   0  0  0  0  0  0  0  0  0  0  0  0
    1.6125   -1.3642   41.8466 C   0  0  0  0  0  0  0  0  0  0  0  0
    1.9568   -2.7213   42.1561 C   0  0  0  0  0  0  0  0  0  0  0  0
    0.9568   -3.6932   42.0424 C   0  0  0  0  0  0  0  0  0  0  0  0
    2.5392   -0.3092   42.1184 C   0  0  0  0  0  0  0  0  0  0  0  0
    3.8447   -0.5588   42.5830 C   0  0  0  0  0  0  0  0  0  0  0  0
    4.1653   -1.7547   43.2622 C   0  0  0  0  0  0  0  0  0  0  0  0
    5.2594   -2.0180   44.0610 C   0  0  0  0  0  0  0  0  0  0  0  0
    5.3627   -3.2036   44.8035 C   0  0  0  0  0  0  0  0  0  0  0  0
    4.3777   -4.1730   44.6083 C   0  0  0  0  0  0  0  0  0  0  0  0
    3.2798   -3.9076   43.8493 C   0  0  0  0  0  0  0  0  0  0  0  0
    3.1223   -2.7330   43.2955 C   0  0  0  0  0  0  0  0  0  0  0  0
    2.3434   -2.7021   43.9790 F   0  0  0  0  0  0  0  0  0  0  0  0
  4  7  1  0
  7  8  2  3
  8  9  1  0
 14 15  1  0
  1  2  2  0
  2  4  1  0
  4  5  2  0
  5  6  1  0
  6  3  2  0
  3  1  1  0
  9 10  2  0
 10 11  1  0
 11 12  2  0
 12 13  1  0
 13 14  2  0
 14  9  1  0
M  END
$$$$
O14757_PocketFlow_idx-in-all-generaetd-509
     RDKit          3D

 35 38  0  0  0  0  0  0  0  0999 V2000
   -0.6395   -2.0713   41.4947 C   0  0  0  0  0  0  0  0  0  0  0  0
    0.6719   -2.2449   41.7518 C   0  0  1  0  0  0  0  0  0  0  0  0
    1.1287   -3.3339   42.4778 C   0  0  0  0  0  0  0  0  0  0  0  0
    0.1404   -4.2568   42.9148 C   0  0  0  0  0  0  0  0  0  0  0  0
    0.5988   -5.3362   43.7192 C   0  0  0  0  0  0  0  0  0  0  0  0
    1.7859   -5.1846   44.4486 C   0  0  0  0  0  0  0  0  0  0  0  0
    2.6433   -4.0884   44.2089 C   0  0  0  0  0  0  0  0  0  0  0  0
    2.3251   -3.1142   43.3277 C   0  0  0  0  0  0  0  0  0  0  0  0
    1.6169   -1.3243   41.1905 C   0  0  0  0  0  0  0  0  0  0  0  0
    1.3357    0.1394   41.5076 C   0  0  0  0  0  0  0  0  0  0  0  0
    3.8878   -3.9626   45.0362 C   0  0  0  0  0  0  0  0  0  0  0  0
    4.1414   -4.6996   46.1282 C   0  0  0  0  0  0  0  0  0  0  0  0
    5.3715   -4.4653   46.8477 C   0  0  0  0  0  0  0  0  0  0  0  0
    6.1879   -3.3701   46.4832 C   0  0  0  0  0  0  0  0  0  0  0  0
    5.8132   -2.5355   45.3907 C   0  0  0  0  0  0  0  0  0  0  0  0
    4.7223   -2.8366   44.6485 C   0  0  0  0  0  0  0  0  0  0  0  0
   -1.4250   -3.0234   41.6080 F   0  0  0  0  0  0  0  0  0  0  0  0
    7.4671   -3.1420   47.2118 C   0  0  0  0  0  0  0  0  0  0  0  0
    8.4543   -2.3463   46.5925 C   0  0  0  0  0  0  0  0  0  0  0  0
    8.1901   -1.5594   45.4483 C   0  0  0  0  0  0  0  0  0  0  0  0
    6.8586   -1.6634   44.8567 C   0  0  0  0  0  0  0  0  0  0  0  0
    2.1350    0.6413   42.5608 C   0  0  0  0  0  0  0  0  0  0  0  0
    9.7471   -2.1275   47.2286 C   0  0  0  0  0  0  0  0  0  0  0  0
    9.7563   -2.0730   48.5923 C   0  0  0  0  0  0  0  0  0  0  0  0
   10.7956   -1.6039   49.3452 C   0  0  0  0  0  0  0  0  0  0  0  0
   11.9909   -1.3222   48.6509 C   0  0  0  0  0  0  0  0  0  0  0  0
   12.0458   -1.3600   47.2855 C   0  0  0  0  0  0  0  0  0  0  0  0
   10.8861   -1.6981   46.5385 C   0  0  0  0  0  0  0  0  0  0  0  0
    3.3179   -0.1832   42.8680 C   0  0  0  0  0  0  0  0  0  0  0  0
    4.6371    0.5056   42.5297 C   0  0  0  0  0  0  0  0  0  0  0  0
   -0.1969   -6.4005   43.9957 N   0  0  0  0  0  0  0  0  0  0  0  0
   -0.2243   -7.1294   45.1515 C   0  0  0  0  0  0  0  0  0  0  0  0
   -1.4753   -7.8829   45.4266 C   0  0  0  0  0  0  0  0  0  0  0  0
   -2.4970   -7.8142   44.5431 C   0  0  0  0  0  0  0  0  0  0  0  0
   -3.6491   -8.5922   44.7295 C   0  0  0  0  0  0  0  0  0  0  0  0
  2  1  1  6
  2  9  1  0
  9 10  1  0
  7 11  1  0
  1 17  1  0
 10 22  1  0
 19 23  1  0
 22 29  1  0
 29 30  1  0
  5 31  1  0
 31 32  1  0
 32 33  2  3
 33 34  1  0
 34 35  2  0
  2  3  1  0
 11 12  2  0
 12 13  1  0
 13 14  2  0
 15 16  2  0
 16 11  1  0
 23 24  2  0
 24 25  1  0
 25 26  2  0
 26 27  1  0
 27 28  2  0
 28 23  1  0
  3  4  2  0
  4  5  1  0
  5  6  2  0
  6  7  1  0
  7  8  2  0
  8  3  1  0
 14 15  1  0
 15 21  1  0
 21 20  2  0
 20 19  1  0
 19 18  2  0
 18 14  1  0
M  END
$$$$
O14757_PocketFlow_idx-in-all-generaetd-510
     RDKit          3D

 14 14  0  0  0  0  0  0  0  0999 V2000
   -0.8794   -1.9236   41.9357 O   0  0  0  0  0  0  0  0  0  0  0  0
    0.3182   -2.2442   41.7073 C   0  0  0  0  0  0  0  0  0  0  0  0
    1.3930   -1.3691   41.5725 C   0  0  0  0  0  0  0  0  0  0  0  0
    2.5842   -1.6677   42.2358 C   0  0  0  0  0  0  0  0  0  0  0  0
    2.8437   -2.0435   43.3399 C   0  0  0  0  0  0  0  0  0  0  0  0
    4.2640   -2.1823   43.8344 C   0  0  2  0  0  0  0  0  0  0  0  0
    4.6728   -2.9199   44.9060 C   0  0  0  0  0  0  0  0  0  0  0  0
    5.8913   -2.5920   45.5624 C   0  0  0  0  0  0  0  0  0  0  0  0
    6.3523   -3.4563   46.6116 C   0  0  0  0  0  0  0  0  0  0  0  0
    5.4708   -4.3573   47.1528 C   0  0  0  0  0  0  0  0  0  0  0  0
    4.2025   -4.5704   46.5994 C   0  0  0  0  0  0  0  0  0  0  0  0
    3.7832   -3.8700   45.4886 C   0  0  0  0  0  0  0  0  0  0  0  0
    5.0212   -1.1970   43.1421 C   0  0  0  0  0  0  0  0  0  0  0  0
    0.4993   -3.5426   41.5603 O   0  0  0  0  0  0  0  0  0  0  0  0
  1  2  2  0
  2  3  1  0
  3  4  1  0
  4  5  1  0
  5  6  1  0
  6  7  1  0
  6 13  1  1
  2 14  1  0
  7  8  2  0
  8  9  1  0
  9 10  2  0
 10 11  1  0
 11 12  2  0
 12  7  1  0
M  END
$$$$
O14757_PocketFlow_idx-in-all-generaetd-511
     RDKit          3D

 35 38  0  0  0  0  0  0  0  0999 V2000
   -0.6395   -2.0713   41.4947 C   0  0  0  0  0  0  0  0  0  0  0  0
    0.6719   -2.2449   41.7518 C   0  0  0  0  0  0  0  0  0  0  0  0
    1.3815   -1.6359   42.7231 C   0  0  0  0  0  0  0  0  0  0  0  0
   -1.1902   -0.8494   41.9101 C   0  0  0  0  0  0  0  0  0  0  0  0
    2.7683   -2.0197   42.9624 C   0  0  0  0  0  0  0  0  0  0  0  0
    3.1087   -3.1234   43.7954 C   0  0  0  0  0  0  0  0  0  0  0  0
    4.0962   -3.0195   44.6860 C   0  0  0  0  0  0  0  0  0  0  0  0
    5.0381   -1.9237   44.5964 C   0  0  0  0  0  0  0  0  0  0  0  0
    4.7115   -0.8627   43.6917 C   0  0  0  0  0  0  0  0  0  0  0  0
    3.5320   -0.8632   43.0325 C   0  0  0  0  0  0  0  0  0  0  0  0
   -2.4960   -0.8554   41.5951 F   0  0  0  0  0  0  0  0  0  0  0  0
    6.2995   -1.9453   45.3508 C   0  0  0  0  0  0  0  0  0  0  0  0
    6.6001   -3.0179   46.2703 C   0  0  0  0  0  0  0  0  0  0  0  0
    7.8875   -3.1052   46.8136 C   0  0  0  0  0  0  0  0  0  0  0  0
    8.8128   -2.0918   46.5544 C   0  0  0  0  0  0  0  0  0  0  0  0
    8.4794   -1.0384   45.6458 C   0  0  0  0  0  0  0  0  0  0  0  0
    7.2887   -0.9933   45.0909 C   0  0  0  0  0  0  0  0  0  0  0  0
   10.1536   -2.1734   47.2178 C   0  0  2  0  0  0  0  0  0  0  0  0
   10.9248   -3.1089   47.0608 C   0  0  0  0  0  0  0  0  0  0  0  0
   10.4667   -4.3497   46.4153 C   0  0  0  0  0  0  0  0  0  0  0  0
   11.3264   -5.4698   46.2899 C   0  0  0  0  0  0  0  0  0  0  0  0
   12.5875   -5.3806   46.7044 C   0  0  0  0  0  0  0  0  0  0  0  0
   13.4625   -6.5350   46.5111 C   0  0  0  0  0  0  0  0  0  0  0  0
   12.9242   -7.6635   45.8854 C   0  0  0  0  0  0  0  0  0  0  0  0
   13.7740   -8.7923   45.7307 C   0  0  0  0  0  0  0  0  0  0  0  0
   15.0685   -8.7056   46.0118 C   0  0  0  0  0  0  0  0  0  0  0  0
   15.6438   -7.5852   46.5881 C   0  0  0  0  0  0  0  0  0  0  0  0
   14.8515   -6.5024   46.8156 C   0  0  0  0  0  0  0  0  0  0  0  0
   13.1570   -4.1418   47.1611 C   0  0  0  0  0  0  0  0  0  0  0  0
   12.3407   -3.1398   47.3572 C   0  0  0  0  0  0  0  0  0  0  0  0
    3.2817    0.1959   42.1964 N   0  0  0  0  0  0  0  0  0  0  0  0
   -1.3946   -2.9568   40.9101 O   0  0  0  0  0  0  0  0  0  0  0  0
    1.9839   -4.3960   43.9111 Cl  0  0  0  0  0  0  0  0  0  0  0  0
   10.3595   -1.0253   48.1882 C   0  0  0  0  0  0  0  0  0  0  0  0
   10.4671   -1.4763   49.4522 O   0  0  0  0  0  0  0  0  0  0  0  0
  1  2  1  0
  2  3  2  3
  1  4  1  0
  3  5  1  0
  4 11  1  0
  8 12  1  0
 15 18  1  0
 10 31  1  0
  1 32  1  0
  6 33  1  0
 18 34  1  1
 34 35  1  0
 23 22  1  0
 18 19  1  0
 12 13  2  0
 13 14  1  0
 14 15  2  0
 15 16  1  0
 16 17  2  0
 17 12  1  0
 23 24  2  0
 24 25  1  0
 25 26  2  0
 26 27  1  0
 27 28  2  0
 28 23  1  0
 19 20  2  0
 20 21  1  0
 21 22  2  0
 22 29  1  0
 29 30  2  0
 30 19  1  0
  5  6  2  0
  6  7  1  0
  7  8  2  0
  8  9  1  0
  9 10  2  0
 10  5  1  0
M  END
$$$$
O14757_PocketFlow_idx-in-all-generaetd-512
     RDKit          3D

 22 24  0  0  0  0  0  0  0  0999 V2000
   -0.6395   -2.0713   41.4947 C   0  0  0  0  0  0  0  0  0  0  0  0
    0.1859   -1.1027   41.5970 C   0  0  0  0  0  0  0  0  0  0  0  0
    1.5836   -1.3270   41.4669 C   0  0  0  0  0  0  0  0  0  0  0  0
   -0.2462   -3.3905   41.2409 C   0  0  0  0  0  0  0  0  0  0  0  0
    2.5788   -0.3160   41.7511 C   0  0  0  0  0  0  0  0  0  0  0  0
    3.8805   -0.6481   42.0316 C   0  0  0  0  0  0  0  0  0  0  0  0
    4.1140   -1.7786   42.9289 C   0  0  0  0  0  0  0  0  0  0  0  0
    3.0425   -2.6868   43.1416 C   0  0  0  0  0  0  0  0  0  0  0  0
    1.8197   -2.3893   42.5140 C   0  0  0  0  0  0  0  0  0  0  0  0
    0.9097   -3.6955   42.2318 C   0  0  0  0  0  0  0  0  0  0  0  0
    3.1454   -3.6849   44.1519 C   0  0  0  0  0  0  0  0  0  0  0  0
    4.3476   -3.9475   44.8238 C   0  0  0  0  0  0  0  0  0  0  0  0
    5.2745   -2.9157   44.9614 C   0  0  0  0  0  0  0  0  0  0  0  0
    5.1600   -1.6917   44.4553 C   0  0  0  0  0  0  0  0  0  0  0  0
    6.4548   -3.0127   45.8745 C   0  0  2  0  0  0  0  0  0  0  0  0
    7.4038   -2.2577   45.7130 F   0  0  0  0  0  0  0  0  0  0  0  0
    6.5389   -4.0205   46.8634 C   0  0  0  0  0  0  0  0  0  0  0  0
    6.6347   -3.5757   48.0579 C   0  0  0  0  0  0  0  0  0  0  0  0
    6.6419   -4.5253   49.2630 C   0  0  0  0  0  0  0  0  0  0  0  0
    7.3441   -5.6131   48.9717 C   0  0  0  0  0  0  0  0  0  0  0  0
    7.1167   -6.1594   47.9485 C   0  0  0  0  0  0  0  0  0  0  0  0
    6.9220   -5.3685   46.7451 C   0  0  0  0  0  0  0  0  0  0  0  0
  3  5  1  0
  5  6  1  0
  6  7  1  0
  8  9  1  0
 13 15  1  0
 15 16  1  6
 15 17  1  0
 17 18  2  3
 18 19  1  0
 19 20  1  0
 20 21  2  3
 21 22  1  0
  7  8  2  0
  8 11  1  0
 11 12  2  0
 12 13  1  0
 13 14  2  0
 14  7  1  0
  1  2  2  0
  2  3  1  0
  3  9  2  0
  9 10  1  0
 10  4  2  0
  4  1  1  0
M  END
$$$$
O14757_PocketFlow_idx-in-all-generaetd-513
     RDKit          3D

 34 36  0  0  0  0  0  0  0  0999 V2000
   -0.8794   -1.9236   41.9357 O   0  0  0  0  0  0  0  0  0  0  0  0
    0.3182   -2.2442   41.7074 C   0  0  0  0  0  0  0  0  0  0  0  0
    1.3766   -1.3498   41.6019 C   0  0  2  0  0  0  0  0  0  0  0  0
    2.6423   -1.6963   42.1387 C   0  0  0  0  0  0  0  0  0  0  0  0
    3.6599   -0.7394   42.2848 C   0  0  0  0  0  0  0  0  0  0  0  0
    4.8835   -1.0337   42.9772 C   0  0  0  0  0  0  0  0  0  0  0  0
    4.8542   -2.2824   43.7147 C   0  0  0  0  0  0  0  0  0  0  0  0
    3.7363   -3.1008   43.7012 C   0  0  0  0  0  0  0  0  0  0  0  0
    2.6035   -2.7276   43.0120 C   0  0  0  0  0  0  0  0  0  0  0  0
    3.7686   -4.3188   44.5650 C   0  0  0  0  0  0  0  0  0  0  0  0
    4.0012   -4.1845   45.8813 C   0  0  0  0  0  0  0  0  0  0  0  0
    4.4369   -2.9325   46.4946 C   0  0  0  0  0  0  0  0  0  0  0  0
    0.4322   -3.5023   41.4695 O   0  0  0  0  0  0  0  0  0  0  0  0
    4.7336   -1.8288   45.9084 C   0  0  0  0  0  0  0  0  0  0  0  0
    5.1288   -1.5002   44.7019 C   0  0  1  0  0  0  0  0  0  0  0  0
    6.4606   -0.6709   44.5582 C   0  0  1  0  0  0  0  0  0  0  0  0
    5.6436   -0.0389   42.6790 F   0  0  0  0  0  0  0  0  0  0  0  0
    7.2325   -1.0175   45.7122 O   0  0  0  0  0  0  0  0  0  0  0  0
    6.8448   -0.0053   43.7638 O   0  0  0  0  0  0  0  0  0  0  0  0
    6.9061    1.2746   44.3878 C   0  0  0  0  0  0  0  0  0  0  0  0
    7.6999    1.4464   44.9911 O   0  0  0  0  0  0  0  0  0  0  0  0
    6.2705    2.0256   43.4310 O   0  0  0  0  0  0  0  0  0  0  0  0
    1.0230   -0.0790   41.3300 O   0  0  0  0  0  0  0  0  0  0  0  0
    3.4857   -5.6055   44.0222 C   0  0  0  0  0  0  0  0  0  0  0  0
    3.0294   -6.4983   44.9624 N   0  0  0  0  0  0  0  0  0  0  0  0
    1.7903   -6.9822   44.9555 C   0  0  2  0  0  0  0  0  0  0  0  0
    1.4073   -7.8613   46.0251 C   0  0  0  0  0  0  0  0  0  0  0  0
    0.0416   -8.0119   46.3636 C   0  0  0  0  0  0  0  0  0  0  0  0
   -0.9573   -7.7261   45.4365 C   0  0  0  0  0  0  0  0  0  0  0  0
   -0.5304   -6.9946   44.2386 C   0  0  0  0  0  0  0  0  0  0  0  0
    0.7442   -6.4974   44.1532 C   0  0  0  0  0  0  0  0  0  0  0  0
    1.0099   -5.5877   43.2281 O   0  0  0  0  0  0  0  0  0  0  0  0
    0.2607   -5.6891   43.6494 Cl  0  0  0  0  0  0  0  0  0  0  0  0
    1.4007   -7.7872   43.8228 C   0  0  0  0  0  0  0  0  0  0  0  0
  1  2  1  0
  2  3  1  0
  8 10  1  0
 10 11  2  0
 11 12  1  0
  2 13  2  0
 12 14  2  0
  7 15  1  0
 15 14  1  1
 15 16  1  0
  6 17  1  0
 16 18  1  6
 16 19  1  0
 19 20  1  0
 20 21  2  0
 20 22  1  0
  3 23  1  1
 10 24  1  0
 24 25  1  0
 26 25  1  6
 26 27  1  0
 27 28  1  0
 28 29  2  0
 29 30  1  0
 30 31  2  0
 31 32  1  0
 32 33  1  0
 26 34  1  0
 31 34  1  0
  3  4  1  0
  4  5  2  0
  5  6  1  0
  6  7  2  0
  7  8  1  0
  8  9  2  0
  9  4  1  0
M  END
$$$$
O14757_PocketFlow_idx-in-all-generaetd-514
     RDKit          3D

 22 24  0  0  0  0  0  0  0  0999 V2000
    0.2881   -2.9111   42.4378 C   0  0  0  0  0  0  0  0  0  0  0  0
   -0.0650   -2.5021   41.5798 C   0  0  0  0  0  0  0  0  0  0  0  0
    1.6221   -3.4772   42.5980 C   0  0  0  0  0  0  0  0  0  0  0  0
    2.0908   -4.0216   43.8699 C   0  0  0  0  0  0  0  0  0  0  0  0
    3.3964   -4.2149   44.2291 C   0  0  0  0  0  0  0  0  0  0  0  0
    3.8016   -5.0739   45.2826 C   0  0  0  0  0  0  0  0  0  0  0  0
    0.9191   -1.8807   40.6193 C   0  0  0  0  0  0  0  0  0  0  0  0
    2.7383   -5.6287   46.0053 C   0  0  0  0  0  0  0  0  0  0  0  0
    1.4057   -5.4708   45.7220 C   0  0  0  0  0  0  0  0  0  0  0  0
    1.0550   -4.6693   44.5744 C   0  0  0  0  0  0  0  0  0  0  0  0
    2.2241   -1.8330   41.0259 C   0  0  0  0  0  0  0  0  0  0  0  0
    2.6175   -2.5175   42.1211 C   0  0  0  0  0  0  0  0  0  0  0  0
   -1.4892   -2.3646   41.1676 C   0  0  0  0  0  0  0  0  0  0  0  0
    0.3492   -6.1801   46.4182 C   0  0  0  0  0  0  0  0  0  0  0  0
   -0.2227   -6.9810   45.7955 O   0  0  0  0  0  0  0  0  0  0  0  0
   -2.4850   -1.7182   41.1610 N   0  0  0  0  0  0  0  0  0  0  0  0
   -1.5176   -7.4059   45.8942 C   0  0  0  0  0  0  0  0  0  0  0  0
   -2.0175   -7.7224   46.8471 C   0  0  0  0  0  0  0  0  0  0  0  0
   -3.2664   -8.5028   46.9618 C   0  0  0  0  0  0  0  0  0  0  0  0
   -3.9822   -8.7548   45.8326 C   0  0  0  0  0  0  0  0  0  0  0  0
   -3.3430   -8.4278   44.5411 C   0  0  0  0  0  0  0  0  0  0  0  0
   -2.0747   -7.7554   44.6053 C   0  0  0  0  0  0  0  0  0  0  0  0
  3  4  1  0
  2 13  1  0
  9 14  1  0
 14 15  1  0
 13 16  3  0
 15 17  1  0
 17 18  2  0
 18 19  1  0
 19 20  2  0
 20 21  1  0
 21 22  2  0
 22 17  1  0
  4  5  2  0
  5  6  1  0
  6  8  2  0
  8  9  1  0
  9 10  2  0
 10  4  1  0
  1  2  2  0
  2  7  1  0
  7 11  2  0
 11 12  1  0
 12  3  2  0
  3  1  1  0
M  END
$$$$
O14757_PocketFlow_idx-in-all-generaetd-515
     RDKit          3D

 10  9  0  0  0  0  0  0  0  0999 V2000
    0.0138   -2.7927   42.5918 N   0  0  0  0  0  0  0  0  0  0  0  0
    1.1722   -3.1858   42.8673 C   0  0  0  0  0  0  0  0  0  0  0  0
    2.0106   -2.4736   43.6736 C   0  0  0  0  0  0  0  0  0  0  0  0
    3.4318   -2.6659   43.6053 C   0  0  0  0  0  0  0  0  0  0  0  0
    4.3022   -1.6097   43.5339 C   0  0  0  0  0  0  0  0  0  0  0  0
    5.4542   -1.5751   44.3505 C   0  0  0  0  0  0  0  0  0  0  0  0
    5.7851   -2.7495   45.1598 C   0  0  0  0  0  0  0  0  0  0  0  0
    6.9716   -2.8101   45.9267 C   0  0  0  0  0  0  0  0  0  0  0  0
    7.8655   -1.6846   45.7891 C   0  0  0  0  0  0  0  0  0  0  0  0
    7.5395   -0.6121   44.9119 C   0  0  0  0  0  0  0  0  0  0  0  0
  1  2  1  0
  2  3  1  0
  3  4  1  0
  4  5  2  3
  5  6  1  0
  6  7  2  3
  7  8  1  0
  8  9  2  3
  9 10  1  0
M  END
$$$$
O14757_PocketFlow_idx-in-all-generaetd-516
     RDKit          3D

 12 13  0  0  0  0  0  0  0  0999 V2000
   -0.6395   -2.0713   41.4947 C   0  0  0  0  0  0  0  0  0  0  0  0
    0.1859   -1.1027   41.5970 C   0  0  0  0  0  0  0  0  0  0  0  0
   -0.2410   -3.3795   41.5297 C   0  0  0  0  0  0  0  0  0  0  0  0
    1.6125   -1.3642   41.8466 C   0  0  0  0  0  0  0  0  0  0  0  0
    2.5720   -0.3568   42.0335 C   0  0  0  0  0  0  0  0  0  0  0  0
    3.8647   -0.6704   42.4195 C   0  0  0  0  0  0  0  0  0  0  0  0
    4.0924   -1.9486   43.0494 C   0  0  0  0  0  0  0  0  0  0  0  0
    2.9708   -2.8562   43.1557 C   0  0  0  0  0  0  0  0  0  0  0  0
    1.7948   -2.4986   42.6210 C   0  0  0  0  0  0  0  0  0  0  0  0
    0.8407   -3.5866   42.3937 C   0  0  0  0  0  0  0  0  0  0  0  0
    4.9013    0.0923   42.4081 F   0  0  0  0  0  0  0  0  0  0  0  0
   -1.9644   -1.7671   41.2284 O   0  0  0  0  0  0  0  0  0  0  0  0
  6 11  1  0
  1 12  1  0
  1  2  2  0
  2  4  1  0
  9 10  1  0
 10  3  2  0
  3  1  1  0
  4  5  2  0
  5  6  1  0
  6  7  2  0
  7  8  1  0
  8  9  2  0
  9  4  1  0
M  END
$$$$
O14757_PocketFlow_idx-in-all-generaetd-517
     RDKit          3D

 22 21  0  0  0  0  0  0  0  0999 V2000
    0.2881   -2.9111   42.4378 C   0  0  0  0  0  0  0  0  0  0  0  0
    1.1784   -3.4293   42.9321 C   0  0  0  0  0  0  0  0  0  0  0  0
    1.6466   -3.2662   44.1990 C   0  0  0  0  0  0  0  0  0  0  0  0
   -0.0878   -3.2042   41.0598 C   0  0  0  0  0  0  0  0  0  0  0  0
    2.9388   -3.6523   44.6442 C   0  0  0  0  0  0  0  0  0  0  0  0
    4.0633   -2.8844   44.4945 C   0  0  0  0  0  0  0  0  0  0  0  0
    4.2387   -1.7816   43.6748 C   0  0  1  0  0  0  0  0  0  0  0  0
    3.5136   -1.1317   42.8059 C   0  0  0  0  0  0  0  0  0  0  0  0
    3.8237    0.1922   42.4458 C   0  0  0  0  0  0  0  0  0  0  0  0
    5.5280   -1.0338   44.1379 C   0  0  0  0  0  0  0  0  0  0  0  0
    6.3548   -1.6378   45.1254 C   0  0  2  0  0  0  0  0  0  0  0  0
    5.1305   -3.1017   45.5156 C   0  0  0  0  0  0  0  0  0  0  0  0
    7.4110   -1.7894   45.7306 C   0  0  0  0  0  0  0  0  0  0  0  0
    6.2916   -2.7025   45.3306 Cl  0  0  0  0  0  0  0  0  0  0  0  0
    4.7692   -4.2645   46.4875 C   0  0  1  0  0  0  0  0  0  0  0  0
    4.5952   -2.6934   46.6533 F   0  0  0  0  0  0  0  0  0  0  0  0
    3.6283   -4.8198   46.0527 C   0  0  0  0  0  0  0  0  0  0  0  0
    3.6543   -5.9672   45.4013 F   0  0  0  0  0  0  0  0  0  0  0  0
    2.4463   -4.9353   46.7549 F   0  0  0  0  0  0  0  0  0  0  0  0
    3.3284   -4.7180   43.4131 C   0  0  0  0  0  0  0  0  0  0  0  0
    5.3205   -4.1177   44.9340 F   0  0  0  0  0  0  0  0  0  0  0  0
    5.3969   -4.8285   47.3782 F   0  0  0  0  0  0  0  0  0  0  0  0
  1  2  1  0
  2  3  1  0
  1  4  1  0
  3  5  1  0
  5  6  2  3
  6  7  1  0
  7  8  1  0
  8  9  2  0
  7 10  1  1
 10 11  1  0
  6 12  1  0
 11 13  1  6
 11 14  1  0
 12 15  1  0
 12 16  1  0
 15 17  1  0
 17 18  1  0
 17 19  1  0
  5 20  1  0
 12 21  1  0
 15 22  1  6
M  END
$$$$
O14757_PocketFlow_idx-in-all-generaetd-518
     RDKit          3D

  9  9  0  0  0  0  0  0  0  0999 V2000
   -0.6395   -2.0713   41.4947 C   0  0  0  0  0  0  0  0  0  0  0  0
    0.1859   -1.1027   41.5970 C   0  0  0  0  0  0  0  0  0  0  0  0
   -0.2410   -3.3795   41.5297 C   0  0  0  0  0  0  0  0  0  0  0  0
    1.6125   -1.3642   41.8466 C   0  0  0  0  0  0  0  0  0  0  0  0
    2.5720   -0.3568   42.0335 C   0  0  0  0  0  0  0  0  0  0  0  0
    3.8647   -0.6704   42.4195 C   0  0  0  0  0  0  0  0  0  0  0  0
    4.0924   -1.9486   43.0494 C   0  0  0  0  0  0  0  0  0  0  0  0
    2.9708   -2.8562   43.1557 C   0  0  0  0  0  0  0  0  0  0  0  0
    1.7948   -2.4986   42.6210 C   0  0  0  0  0  0  0  0  0  0  0  0
  1  2  2  3
  1  3  1  0
  2  4  1  0
  4  5  2  0
  5  6  1  0
  6  7  2  0
  7  8  1  0
  8  9  2  0
  9  4  1  0
M  END
$$$$
O14757_PocketFlow_idx-in-all-generaetd-519
     RDKit          3D

 18 20  0  0  0  0  0  0  0  0999 V2000
   -0.6395   -2.0713   41.4947 C   0  0  0  0  0  0  0  0  0  0  0  0
   -0.2671   -3.2464   41.6546 C   0  0  0  0  0  0  0  0  0  0  0  0
    0.2407   -0.9706   41.5952 C   0  0  0  0  0  0  0  0  0  0  0  0
    1.5531   -1.3394   41.8399 C   0  0  0  0  0  0  0  0  0  0  0  0
    1.9123   -2.6863   42.1918 C   0  0  0  0  0  0  0  0  0  0  0  0
    0.9325   -3.6408   42.1137 C   0  0  0  0  0  0  0  0  0  0  0  0
    2.6100   -0.3048   42.0902 C   0  0  0  0  0  0  0  0  0  0  0  0
    3.8845   -0.6239   42.5736 C   0  0  0  0  0  0  0  0  0  0  0  0
    4.0567   -1.9059   43.2111 C   0  0  0  0  0  0  0  0  0  0  0  0
    3.0315   -2.9136   43.0229 C   0  0  0  0  0  0  0  0  0  0  0  0
    4.8751    0.2363   42.7706 N   0  0  0  0  0  0  0  0  0  0  0  0
   -1.8706   -1.7447   41.0283 F   0  0  0  0  0  0  0  0  0  0  0  0
    5.2528   -2.1780   43.8960 C   0  0  0  0  0  0  0  0  0  0  0  0
    5.5087   -3.3064   44.7368 C   0  0  0  0  0  0  0  0  0  0  0  0
    6.2112   -1.0519   44.1037 C   0  0  0  0  0  0  0  0  0  0  0  0
    5.9456    0.1236   43.4667 C   0  0  0  0  0  0  0  0  0  0  0  0
    6.1599   -3.2565   45.9515 C   0  0  0  0  0  0  0  0  0  0  0  0
    7.2404   -2.2501   45.9756 C   0  0  0  0  0  0  0  0  0  0  0  0
  1 12  1  0
 13 14  1  0
 14 17  2  3
 17 18  1  0
  5 10  1  0
 10  9  2  0
  8  7  2  0
  7  4  1  0
  1  2  2  0
  2  6  1  0
  6  5  2  0
  5  4  1  0
  4  3  2  0
  3  1  1  0
  8  9  1  0
  9 13  1  0
 13 15  2  0
 15 16  1  0
 16 11  2  0
 11  8  1  0
M  END
$$$$
O14757_PocketFlow_idx-in-all-generaetd-520
     RDKit          3D

 19 20  0  0  0  0  0  0  0  0999 V2000
   -0.6395   -2.0713   41.4947 C   0  0  2  0  0  0  0  0  0  0  0  0
    0.1859   -1.1027   41.5970 C   0  0  0  0  0  0  0  0  0  0  0  0
    1.5836   -1.3270   41.4670 C   0  0  0  0  0  0  0  0  0  0  0  0
   -0.2462   -3.3905   41.2409 C   0  0  0  0  0  0  0  0  0  0  0  0
    2.3477   -1.2946   42.4061 C   0  0  1  0  0  0  0  0  0  0  0  0
    2.7729   -2.4267   43.1219 C   0  0  0  0  0  0  0  0  0  0  0  0
    2.2311   -3.6254   43.4786 C   0  0  0  0  0  0  0  0  0  0  0  0
    2.7235   -4.5637   44.3662 C   0  0  0  0  0  0  0  0  0  0  0  0
    4.1079   -4.3594   44.6464 C   0  0  0  0  0  0  0  0  0  0  0  0
    4.8190   -3.2710   44.3209 C   0  0  0  0  0  0  0  0  0  0  0  0
    4.2422   -2.2732   43.6155 C   0  0  0  0  0  0  0  0  0  0  0  0
    3.1058   -0.0495   42.7142 C   0  0  0  0  0  0  0  0  0  0  0  0
    4.3295    0.0768   43.2516 N   0  0  0  0  0  0  0  0  0  0  0  0
    4.8685   -0.9777   43.5995 C   0  0  1  0  0  0  0  0  0  0  0  0
    6.4632   -0.8020   44.4754 P   0  0  0  0  0  0  0  0  0  0  0  0
    6.2730   -1.4022   45.8241 O   0  0  0  0  0  0  0  0  0  0  0  0
    7.2330   -1.9961   43.6394 O   0  0  0  0  0  0  0  0  0  0  0  0
    7.0664    0.3079   44.2164 O   0  0  0  0  0  0  0  0  0  0  0  0
   -1.8661   -1.8078   40.8971 F   0  0  0  0  0  0  0  0  0  0  0  0
  1  2  1  0
  2  3  2  3
  1  4  1  6
  3  5  1  0
  5  6  1  0
  5 12  1  6
 12 13  1  0
 11 14  1  0
 13 14  1  0
 14 15  1  1
 15 16  1  0
 15 17  2  0
 15 18  1  0
  1 19  1  0
  6  7  2  0
  7  8  1  0
  8  9  2  0
  9 10  1  0
 10 11  2  0
 11  6  1  0
M  END
$$$$
O14757_PocketFlow_idx-in-all-generaetd-521
     RDKit          3D

 32 33  0  0  0  0  0  0  0  0999 V2000
   -0.8413   -1.9048   41.7918 F   0  0  0  0  0  0  0  0  0  0  0  0
    0.2972   -1.3787   41.5137 C   0  0  0  0  0  0  0  0  0  0  0  0
    1.3859   -2.2666   41.4597 C   0  0  0  0  0  0  0  0  0  0  0  0
    2.5772   -1.8804   42.0391 C   0  0  0  0  0  0  0  0  0  0  0  0
    3.3848   -2.6116   42.9082 C   0  0  0  0  0  0  0  0  0  0  0  0
    2.8835   -3.5702   43.6470 C   0  0  0  0  0  0  0  0  0  0  0  0
    3.5639   -4.2660   44.6713 C   0  0  0  0  0  0  0  0  0  0  0  0
    4.8440   -3.8082   45.0665 C   0  0  0  0  0  0  0  0  0  0  0  0
    5.2996   -2.5789   44.4535 C   0  0  0  0  0  0  0  0  0  0  0  0
    4.6050   -1.9700   43.4560 C   0  0  0  0  0  0  0  0  0  0  0  0
    2.9745   -5.4156   45.3356 C   0  0  0  0  0  0  0  0  0  0  0  0
    2.0589   -5.9443   44.9810 C   0  0  0  0  0  0  0  0  0  0  0  0
    1.5370   -7.1907   45.6076 C   0  0  0  0  0  0  0  0  0  0  0  0
    0.1460   -7.4054   45.6203 C   0  0  0  0  0  0  0  0  0  0  0  0
   -0.6027   -7.1238   44.4480 C   0  0  0  0  0  0  0  0  0  0  0  0
    0.0711   -6.1100   43.6032 C   0  0  0  0  0  0  0  0  0  0  0  0
    1.2518   -5.5406   43.8873 C   0  0  0  0  0  0  0  0  0  0  0  0
   -1.8695   -7.6077   44.1400 C   0  0  0  0  0  0  0  0  0  0  0  0
   -2.8868   -7.8951   44.8743 N   0  0  0  0  0  0  0  0  0  0  0  0
   -3.6530   -8.7713   44.9298 C   0  0  0  0  0  0  0  0  0  0  0  0
   -4.7985   -8.7644   45.7854 C   0  0  0  0  0  0  0  0  0  0  0  0
    0.1139   -0.6509   40.4454 F   0  0  0  0  0  0  0  0  0  0  0  0
    0.5263   -0.3507   42.5141 F   0  0  0  0  0  0  0  0  0  0  0  0
    4.9342   -0.8037   42.8266 N   0  0  0  0  0  0  0  0  0  0  0  0
    4.6977    0.4228   43.5437 C   0  0  0  0  0  0  0  0  0  0  0  0
   -2.0752   -7.8256   42.8861 O   0  0  0  0  0  0  0  0  0  0  0  0
   -5.6890   -8.0072   45.5303 O   0  0  0  0  0  0  0  0  0  0  0  0
   -4.7870   -9.5084   46.8416 O   0  0  0  0  0  0  0  0  0  0  0  0
    6.6015   -1.9819   44.9313 C   0  0  0  0  0  0  0  0  0  0  0  0
    6.5459   -1.4293   45.9586 F   0  0  0  0  0  0  0  0  0  0  0  0
    6.9887   -1.0249   43.9742 F   0  0  0  0  0  0  0  0  0  0  0  0
    7.4911   -2.9562   45.0582 F   0  0  0  0  0  0  0  0  0  0  0  0
  1  2  1  0
  2  3  1  0
  3  4  1  0
  7 11  1  0
 15 18  1  0
 18 19  1  0
 19 20  1  0
 20 21  1  0
  2 22  1  0
  2 23  1  0
 10 24  1  0
 24 25  1  0
 18 26  2  0
 21 27  1  0
 21 28  2  0
  9 29  1  0
 29 30  1  0
 29 31  1  0
 29 32  1  0
  4  5  1  0
 11 12  1  0
 12 13  2  0
 13 14  1  0
 14 15  2  0
 15 16  1  0
 16 17  2  0
 17 12  1  0
  5  6  2  0
  6  7  1  0
  7  8  2  0
  8  9  1  0
  9 10  2  0
 10  5  1  0
M  END
$$$$
O14757_PocketFlow_idx-in-all-generaetd-522
     RDKit          3D

 35 37  0  0  0  0  0  0  0  0999 V2000
   -0.6395   -2.0713   41.4947 C   0  0  0  0  0  0  0  0  0  0  0  0
    0.1859   -1.1027   41.5970 C   0  0  0  0  0  0  0  0  0  0  0  0
    1.5836   -1.3270   41.4670 C   0  0  0  0  0  0  0  0  0  0  0  0
    2.3803   -1.4174   42.6857 C   0  0  0  0  0  0  0  0  0  0  0  0
    3.6730   -0.8928   42.6924 C   0  0  2  0  0  0  0  0  0  0  0  0
    4.7094   -1.5370   43.4434 C   0  0  0  0  0  0  0  0  0  0  0  0
    4.3797   -2.7523   44.0939 C   0  0  0  0  0  0  0  0  0  0  0  0
    5.2518   -3.3584   45.0304 C   0  0  0  0  0  0  0  0  0  0  0  0
   -2.0543   -1.8623   41.2437 C   0  0  0  0  0  0  0  0  0  0  0  0
    6.4645   -2.6426   45.3420 C   0  0  0  0  0  0  0  0  0  0  0  0
    6.7607   -1.4273   44.6891 C   0  0  0  0  0  0  0  0  0  0  0  0
    5.8708   -0.8218   43.8744 C   0  0  0  0  0  0  0  0  0  0  0  0
   -2.5137   -1.4024   40.1634 C   0  0  0  0  0  0  0  0  0  0  0  0
   -3.9927   -1.2457   40.0061 C   0  0  0  0  0  0  0  0  0  0  0  0
    7.4527   -3.2622   46.2717 C   0  0  0  0  0  0  0  0  0  0  0  0
    8.7824   -3.0279   46.2047 C   0  0  0  0  0  0  0  0  0  0  0  0
    9.6908   -3.6060   47.1218 C   0  0  0  0  0  0  0  0  0  0  0  0
    9.2016   -4.5913   47.9888 C   0  0  0  0  0  0  0  0  0  0  0  0
    6.9217   -4.1307   47.3384 C   0  0  0  0  0  0  0  0  0  0  0  0
    7.8071   -4.7176   48.1948 C   0  0  0  0  0  0  0  0  0  0  0  0
    3.8780    0.3962   42.1695 C   0  0  0  0  0  0  0  0  0  0  0  0
    7.2078   -5.5998   49.2450 C   0  0  0  0  0  0  0  0  0  0  0  0
    7.4604   -5.3449   50.2879 O   0  0  0  0  0  0  0  0  0  0  0  0
    6.7495   -6.7382   48.7725 O   0  0  0  0  0  0  0  0  0  0  0  0
   -0.2697   -3.2920   41.8119 O   0  0  0  0  0  0  0  0  0  0  0  0
   -4.5792   -0.5531   40.9228 O   0  0  0  0  0  0  0  0  0  0  0  0
   -4.5123   -1.5904   38.9440 O   0  0  0  0  0  0  0  0  0  0  0  0
   11.1132   -3.4212   46.9014 C   0  0  0  0  0  0  0  0  0  0  0  0
   11.5373   -2.2555   46.5879 N   0  0  0  0  0  0  0  0  0  0  0  0
   12.7176   -1.8980   46.1487 C   0  0  0  0  0  0  0  0  0  0  0  0
   13.8011   -2.3167   46.9338 C   0  0  0  0  0  0  0  0  0  0  0  0
   12.0704   -4.4206   47.2234 C   0  0  0  0  0  0  0  0  0  0  0  0
   13.5818   -3.9218   47.1253 C   0  0  0  0  0  0  0  0  0  0  0  0
   14.6510   -4.7601   47.5078 C   0  0  0  0  0  0  0  0  0  0  0  0
   14.9223   -5.5774   46.6279 O   0  0  0  0  0  0  0  0  0  0  0  0
  1  2  1  0
  2  3  1  0
  3  4  1  0
  4  5  1  0
  5  6  1  0
  1  9  2  3
  9 13  1  0
 13 14  1  0
 10 15  1  0
  5 21  1  1
 20 22  1  0
 22 23  2  0
 22 24  1  0
  1 25  1  0
 14 26  1  0
 14 27  2  0
 17 28  1  0
 33 34  1  0
 34 35  2  0
  6  7  2  0
  7  8  1  0
  8 10  2  0
 10 11  1  0
 11 12  2  0
 12  6  1  0
 28 29  2  0
 29 30  1  0
 30 31  2  0
 31 33  1  0
 33 32  2  0
 32 28  1  0
 15 16  2  0
 16 17  1  0
 17 18  2  0
 18 20  1  0
 20 19  2  0
 19 15  1  0
M  END
$$$$
O14757_PocketFlow_idx-in-all-generaetd-523
     RDKit          3D

  9  9  0  0  0  0  0  0  0  0999 V2000
   -0.6395   -2.0713   41.4947 C   0  0  0  0  0  0  0  0  0  0  0  0
    0.1859   -1.1027   41.5970 C   0  0  0  0  0  0  0  0  0  0  0  0
   -0.2410   -3.3795   41.5297 C   0  0  0  0  0  0  0  0  0  0  0  0
    1.6125   -1.3641   41.8466 C   0  0  0  0  0  0  0  0  0  0  0  0
    1.9568   -2.7213   42.1561 C   0  0  0  0  0  0  0  0  0  0  0  0
    0.9568   -3.6932   42.0424 C   0  0  0  0  0  0  0  0  0  0  0  0
    2.5392   -0.3092   42.1184 C   0  0  0  0  0  0  0  0  0  0  0  0
    3.8447   -0.5588   42.5830 C   0  0  0  0  0  0  0  0  0  0  0  0
    4.1653   -1.7547   43.2622 C   0  0  0  0  0  0  0  0  0  0  0  0
  4  7  1  0
  7  8  2  3
  8  9  1  0
  1  2  2  0
  2  4  1  0
  4  5  2  0
  5  6  1  0
  6  3  2  0
  3  1  1  0
M  END
$$$$
O14757_PocketFlow_idx-in-all-generaetd-524
     RDKit          3D

 30 33  0  0  0  0  0  0  0  0999 V2000
   -0.8794   -1.9236   41.9357 O   0  0  0  0  0  0  0  0  0  0  0  0
    0.3070   -1.6014   41.6735 C   0  0  0  0  0  0  0  0  0  0  0  0
    1.2176   -1.8259   42.4685 C   0  0  0  0  0  0  0  0  0  0  0  0
    2.6500   -1.5520   42.2564 C   0  0  0  0  0  0  0  0  0  0  0  0
    3.6431   -1.8689   43.1793 C   0  0  0  0  0  0  0  0  0  0  0  0
    4.8366   -1.1028   43.2537 C   0  0  0  0  0  0  0  0  0  0  0  0
    5.7375   -1.3948   44.2867 C   0  0  0  0  0  0  0  0  0  0  0  0
    5.6145   -2.5340   45.1357 C   0  0  0  0  0  0  0  0  0  0  0  0
    4.4704   -3.3418   44.9310 C   0  0  0  0  0  0  0  0  0  0  0  0
    3.4777   -3.0261   44.0047 C   0  0  0  0  0  0  0  0  0  0  0  0
    6.6596   -2.9182   46.0580 C   0  0  0  0  0  0  0  0  0  0  0  0
    7.9694   -2.4934   45.9409 C   0  0  0  0  0  0  0  0  0  0  0  0
    8.9442   -2.9300   46.8624 C   0  0  0  0  0  0  0  0  0  0  0  0
    8.6385   -3.9443   47.7698 C   0  0  0  0  0  0  0  0  0  0  0  0
    6.6329   -3.9755   47.0572 C   0  0  0  0  0  0  0  0  0  0  0  0
    7.4003   -4.3910   47.9280 C   0  0  0  0  0  0  0  0  0  0  0  0
    5.0197   -0.0591   42.5277 F   0  0  0  0  0  0  0  0  0  0  0  0
    0.5148   -1.3464   40.4833 O   0  0  0  0  0  0  0  0  0  0  0  0
    2.4039   -3.7386   43.9403 O   0  0  0  0  0  0  0  0  0  0  0  0
    2.3323   -4.7665   44.8776 C   0  0  0  0  0  0  0  0  0  0  0  0
    3.1311   -5.6261   44.9429 C   0  0  0  0  0  0  0  0  0  0  0  0
    3.2172   -6.3953   44.2443 F   0  0  0  0  0  0  0  0  0  0  0  0
    4.5005   -5.0525   45.1896 C   0  0  0  0  0  0  0  0  0  0  0  0
    0.8558   -5.3245   44.6674 N   0  0  0  0  0  0  0  0  0  0  0  0
    0.3695   -6.4297   45.3095 C   0  0  0  0  0  0  0  0  0  0  0  0
   -0.8567   -6.9604   44.7921 C   0  0  0  0  0  0  0  0  0  0  0  0
   -1.5369   -7.9390   45.5652 C   0  0  0  0  0  0  0  0  0  0  0  0
   -0.8724   -8.5021   46.6913 C   0  0  0  0  0  0  0  0  0  0  0  0
    0.3204   -7.9464   47.1533 C   0  0  0  0  0  0  0  0  0  0  0  0
    0.9121   -6.8906   46.5005 C   0  0  0  0  0  0  0  0  0  0  0  0
  1  2  1  0
  2  3  1  0
  3  4  1  0
  4  5  1  0
  8 11  1  0
  6 17  1  0
  2 18  2  0
 10 19  1  0
 19 20  1  0
 20 21  2  0
 21 22  1  0
  9 23  1  0
 21 23  1  0
 20 24  1  0
 24 25  1  0
 25 26  2  0
 26 27  1  0
 27 28  2  0
 28 29  1  0
 29 30  2  0
 30 25  1  0
 11 12  2  0
 12 13  1  0
 13 14  2  0
 14 16  1  0
 16 15  2  0
 15 11  1  0
  5  6  2  0
  6  7  1  0
  7  8  2  0
  8  9  1  0
  9 10  2  0
 10  5  1  0
M  END
$$$$
O14757_PocketFlow_idx-in-all-generaetd-525
     RDKit          3D

 35 40  0  0  0  0  0  0  0  0999 V2000
   -0.6395   -2.0713   41.4947 C   0  0  0  0  0  0  0  0  0  0  0  0
   -0.2671   -3.2464   41.6546 C   0  0  0  0  0  0  0  0  0  0  0  0
    0.2407   -0.9706   41.5952 C   0  0  0  0  0  0  0  0  0  0  0  0
    1.6195   -1.2958   41.8767 C   0  0  0  0  0  0  0  0  0  0  0  0
    2.6583   -0.3517   42.0703 C   0  0  0  0  0  0  0  0  0  0  0  0
    3.9275   -0.7702   42.5387 C   0  0  0  0  0  0  0  0  0  0  0  0
    3.9444   -2.1081   43.0865 C   0  0  0  0  0  0  0  0  0  0  0  0
    5.1382   -2.5953   43.7918 C   0  0  0  0  0  0  0  0  0  0  0  0
    1.0365   -3.6149   41.9399 N   0  0  0  0  0  0  0  0  0  0  0  0
    1.9324   -2.5864   42.1364 C   0  0  0  0  0  0  0  0  0  0  0  0
    2.9936   -2.8736   42.7843 N   0  0  0  0  0  0  0  0  0  0  0  0
    5.9629   -1.5498   44.4405 C   0  0  0  0  0  0  0  0  0  0  0  0
    6.9397   -1.9808   45.3917 C   0  0  0  0  0  0  0  0  0  0  0  0
    6.8767   -3.3258   45.9051 C   0  0  0  0  0  0  0  0  0  0  0  0
    7.7944   -3.6048   46.9355 C   0  0  0  0  0  0  0  0  0  0  0  0
    7.5876   -4.7614   47.7229 C   0  0  0  0  0  0  0  0  0  0  0  0
    6.2274   -5.2109   47.8098 C   0  0  0  0  0  0  0  0  0  0  0  0
    5.2403   -4.7119   46.9644 C   0  0  0  0  0  0  0  0  0  0  0  0
    5.5618   -3.6512   46.0980 C   0  0  0  0  0  0  0  0  0  0  0  0
    4.5499   -3.3601   45.0621 C   0  0  0  0  0  0  0  0  0  0  0  0
   -1.9645   -1.7495   41.1161 N   0  0  0  0  0  0  0  0  0  0  0  0
    5.9279   -6.2481   48.8616 C   0  0  0  0  0  0  0  0  0  0  0  0
    6.6976   -6.4330   49.7550 O   0  0  0  0  0  0  0  0  0  0  0  0
    4.8885   -6.9529   48.6608 O   0  0  0  0  0  0  0  0  0  0  0  0
   -3.0421   -1.7191   40.7178 C   0  0  0  0  0  0  0  0  0  0  0  0
   -3.6805   -0.5375   40.4299 N   0  0  0  0  0  0  0  0  0  0  0  0
   -3.8234   -2.7455   40.6133 O   0  0  0  0  0  0  0  0  0  0  0  0
    4.9947    0.0205   42.7651 N   0  0  0  0  0  0  0  0  0  0  0  0
    6.0278   -0.3312   43.6241 C   0  0  0  0  0  0  0  0  0  0  0  0
    8.1712   -1.1423   45.4895 C   0  0  0  0  0  0  0  0  0  0  0  0
    9.1629   -3.0047   46.9494 C   0  0  2  0  0  0  0  0  0  0  0  0
   10.2307   -3.5263   47.6873 C   0  0  0  0  0  0  0  0  0  0  0  0
    9.2460   -1.7278   46.2073 C   0  0  0  0  0  0  0  0  0  0  0  0
   10.3433   -3.2449   48.8167 N   0  0  0  0  0  0  0  0  0  0  0  0
   11.2376   -2.8889   49.5293 C   0  0  0  0  0  0  0  0  0  0  0  0
  1 21  1  0
 17 22  1  0
 22 23  1  0
 22 24  2  0
 21 25  1  0
 25 26  1  0
 25 27  2  0
 13 30  1  0
 15 31  1  0
 31 32  1  1
 30 33  1  0
 31 33  1  0
 32 34  1  0
 34 35  1  0
 12 13  2  0
 13 14  1  0
 19 20  1  0
 20  8  2  0
 14 15  2  0
 15 16  1  0
 16 17  2  0
 17 18  1  0
 18 19  2  0
 19 14  1  0
  4  5  1  0
  5  6  2  0
  7 11  2  0
 11 10  1  0
  6  7  1  0
  7  8  1  0
  8 12  1  0
 12 29  1  0
 29 28  2  0
 28  6  1  0
  1  2  2  0
  2  9  1  0
  9 10  2  0
 10  4  1  0
  4  3  2  0
  3  1  1  0
M  END
$$$$
O14757_PocketFlow_idx-in-all-generaetd-526
     RDKit          3D

 35 41  0  0  0  0  0  0  0  0999 V2000
   -0.6395   -2.0713   41.4947 C   0  0  1  0  0  0  0  0  0  0  0  0
   -0.2671   -3.2464   41.6546 C   0  0  0  0  0  0  0  0  0  0  0  0
   -2.0053   -1.6706   41.3987 C   0  0  0  0  0  0  0  0  0  0  0  0
   -2.2862   -0.2693   41.2308 C   0  0  0  0  0  0  0  0  0  0  0  0
   -3.6308    0.0652   41.1365 C   0  0  0  0  0  0  0  0  0  0  0  0
    0.6018   -3.5802   42.7038 C   0  0  0  0  0  0  0  0  0  0  0  0
    0.6902   -4.7075   43.4850 C   0  0  0  0  0  0  0  0  0  0  0  0
    1.7323   -4.7641   44.5149 C   0  0  0  0  0  0  0  0  0  0  0  0
    2.5489   -3.5944   44.5438 C   0  0  0  0  0  0  0  0  0  0  0  0
    3.6169   -3.6282   45.6063 C   0  0  0  0  0  0  0  0  0  0  0  0
    4.5476   -2.5444   45.6710 C   0  0  0  0  0  0  0  0  0  0  0  0
    1.8044   -2.7290   43.1442 C   0  0  1  0  0  0  0  0  0  0  0  0
    4.4894   -1.4867   44.7619 C   0  0  0  0  0  0  0  0  0  0  0  0
    5.6501   -1.2201   43.8857 C   0  0  0  0  0  0  0  0  0  0  0  0
    5.3657   -0.4877   42.8457 N   0  0  0  0  0  0  0  0  0  0  0  0
    4.0864   -0.0111   42.5953 C   0  0  0  0  0  0  0  0  0  0  0  0
    0.2174   -0.8988   41.7745 C   0  0  2  0  0  0  0  0  0  0  0  0
    3.6214    0.5724   41.6734 N   0  0  0  0  0  0  0  0  0  0  0  0
    2.2409    0.7705   41.7342 C   0  0  0  0  0  0  0  0  0  0  0  0
    3.4545   -0.5874   43.7220 N   0  0  0  0  0  0  0  0  0  0  0  0
    3.7046   -4.7190   46.4466 C   0  0  0  0  0  0  0  0  0  0  0  0
    3.4531   -5.9908   45.9952 C   0  0  0  0  0  0  0  0  0  0  0  0
    2.1998   -6.0179   45.1273 C   0  0  0  0  0  0  0  0  0  0  0  0
    1.5644   -7.2574   44.9562 C   0  0  0  0  0  0  0  0  0  0  0  0
    1.7618   -8.1613   45.7669 O   0  0  0  0  0  0  0  0  0  0  0  0
    0.4115   -7.2589   44.3806 O   0  0  0  0  0  0  0  0  0  0  0  0
   -0.7500    0.1694   41.4948 N   0  0  0  0  0  0  0  0  0  0  0  0
    1.4763   -0.4685   41.7286 C   0  0  0  0  0  0  0  0  0  0  0  0
    2.4617   -1.7301   41.6555 C   0  0  0  0  0  0  0  0  0  0  0  0
   -3.7210    1.4152   41.3737 O   0  0  0  0  0  0  0  0  0  0  0  0
   -4.4291   -0.6275   40.6905 O   0  0  0  0  0  0  0  0  0  0  0  0
    6.8249   -1.7352   44.3629 N   0  0  0  0  0  0  0  0  0  0  0  0
    6.9746   -2.5036   45.4564 C   0  0  0  0  0  0  0  0  0  0  0  0
    5.7823   -3.0416   46.0329 C   0  0  0  0  0  0  0  0  0  0  0  0
    8.2542   -2.7403   45.7850 N   0  0  0  0  0  0  0  0  0  0  0  0
  1  2  1  1
  1  3  1  0
  3  4  2  0
  4  5  1  0
  2  6  2  0
  6  7  1  0
  6 12  1  0
  9 12  1  0
 14 15  1  0
 15 16  1  0
  1 17  1  0
 16 18  1  0
 18 19  1  0
 13 20  1  0
 16 20  2  0
 23 24  1  0
 24 25  1  0
 24 26  2  0
  4 27  1  0
 17 27  1  6
 17 28  1  0
 19 28  1  0
 12 29  1  6
 28 29  1  0
  5 30  1  0
  5 31  2  0
 33 35  1  0
  7  8  1  0
 10 11  1  0
 11 13  2  0
 13 14  1  0
 14 32  2  0
 32 33  1  0
 33 34  2  0
 34 11  1  0
  8  9  2  0
  9 10  1  0
 10 21  2  0
 21 22  1  0
 22 23  2  0
 23  8  1  0
M  END
$$$$
O14757_PocketFlow_idx-in-all-generaetd-527
     RDKit          3D

 24 24  0  0  0  0  0  0  0  0999 V2000
    0.2881   -2.9111   42.4378 C   0  0  0  0  0  0  0  0  0  0  0  0
   -0.0650   -2.5021   41.5798 C   0  0  0  0  0  0  0  0  0  0  0  0
    1.6108   -3.5167   42.6657 C   0  0  0  0  0  0  0  0  0  0  0  0
    2.0262   -4.1022   43.9169 C   0  0  0  0  0  0  0  0  0  0  0  0
    3.3116   -4.3084   44.3274 C   0  0  0  0  0  0  0  0  0  0  0  0
    3.6450   -5.1190   45.4311 C   0  0  0  0  0  0  0  0  0  0  0  0
   -1.4394   -2.0612   41.3929 C   0  0  0  0  0  0  0  0  0  0  0  0
    2.5476   -5.6667   46.0877 C   0  0  0  0  0  0  0  0  0  0  0  0
    1.2661   -5.5240   45.7305 C   0  0  0  0  0  0  0  0  0  0  0  0
    0.9667   -4.7252   44.5486 C   0  0  0  0  0  0  0  0  0  0  0  0
    0.1453   -6.2162   46.3839 C   0  0  0  0  0  0  0  0  0  0  0  0
   -0.4093   -7.1413   45.6983 O   0  0  0  0  0  0  0  0  0  0  0  0
   -1.9014   -1.5681   40.2325 N   0  0  0  0  0  0  0  0  0  0  0  0
   -1.6926   -7.4822   45.7839 C   0  0  0  0  0  0  0  0  0  0  0  0
   -2.2351   -8.1165   44.6373 C   0  0  0  0  0  0  0  0  0  0  0  0
   -3.4864   -7.5331   44.2899 C   0  0  0  0  0  0  0  0  0  0  0  0
   -4.0453   -8.2695   43.1156 C   0  0  0  0  0  0  0  0  0  0  0  0
   -4.9964   -9.0181   43.2744 O   0  0  0  0  0  0  0  0  0  0  0  0
   -5.9704   -9.0587   42.2974 C   0  0  0  0  0  0  0  0  0  0  0  0
    4.4607   -3.4957   43.7661 C   0  0  0  0  0  0  0  0  0  0  0  0
    4.6854   -2.1529   44.3700 C   0  0  1  0  0  0  0  0  0  0  0  0
    5.3984   -1.9647   45.5088 C   0  0  0  0  0  0  0  0  0  0  0  0
    4.3478   -1.0394   43.5115 C   0  0  0  0  0  0  0  0  0  0  0  0
    3.1936   -0.6947   42.9142 C   0  0  0  0  0  0  0  0  0  0  0  0
  1  2  2  3
  1  3  1  0
  3  4  1  0
  2  7  1  0
  9 11  1  0
 11 12  1  0
  7 13  1  0
 12 14  1  0
 14 15  1  0
 15 16  1  0
 16 17  1  0
 17 18  1  0
 18 19  1  0
  5 20  1  0
 20 21  1  0
 21 22  1  6
 21 23  1  0
 23 24  2  0
  4  5  2  0
  5  6  1  0
  6  8  2  0
  8  9  1  0
  9 10  2  0
 10  4  1  0
M  END
$$$$
O14757_PocketFlow_idx-in-all-generaetd-528
     RDKit          3D

 20 22  0  0  0  0  0  0  0  0999 V2000
    0.2881   -2.9111   42.4378 C   0  0  0  0  0  0  0  0  0  0  0  0
   -0.0650   -2.5021   41.5798 C   0  0  0  0  0  0  0  0  0  0  0  0
    1.5111   -2.4518   43.1047 C   0  0  0  0  0  0  0  0  0  0  0  0
    2.1892   -1.4341   42.4770 C   0  0  0  0  0  0  0  0  0  0  0  0
    1.5990   -0.8333   41.3694 C   0  0  0  0  0  0  0  0  0  0  0  0
    0.4724   -1.3248   40.8538 C   0  0  0  0  0  0  0  0  0  0  0  0
    3.4542   -0.9703   43.0418 C   0  0  0  0  0  0  0  0  0  0  0  0
    4.0907   -1.7054   44.0419 C   0  0  0  0  0  0  0  0  0  0  0  0
    5.2300   -1.2356   44.6514 C   0  0  0  0  0  0  0  0  0  0  0  0
    4.0788    0.2058   42.6499 C   0  0  0  0  0  0  0  0  0  0  0  0
    5.3019    0.5577   43.2121 N   0  0  0  0  0  0  0  0  0  0  0  0
    5.8855   -0.1383   44.1050 C   0  0  0  0  0  0  0  0  0  0  0  0
   -1.2536   -2.9248   40.9251 O   0  0  0  0  0  0  0  0  0  0  0  0
    5.8602   -2.1258   45.6908 C   0  0  0  0  0  0  0  0  0  0  0  0
    7.2051   -2.0935   46.0307 C   0  0  0  0  0  0  0  0  0  0  0  0
    7.7796   -3.0061   46.9051 C   0  0  0  0  0  0  0  0  0  0  0  0
    9.1517   -3.1087   47.2302 C   0  0  0  0  0  0  0  0  0  0  0  0
    9.9492   -2.1777   46.5535 C   0  0  0  0  0  0  0  0  0  0  0  0
    9.4464   -1.1546   45.7669 C   0  0  0  0  0  0  0  0  0  0  0  0
    8.1316   -1.0995   45.5412 C   0  0  0  0  0  0  0  0  0  0  0  0
  4  7  1  0
  2 13  1  0
  9 14  1  0
 14 15  1  0
 15 16  2  0
 16 17  1  0
 17 18  2  0
 18 19  1  0
 19 20  2  0
 20 15  1  0
  1  2  2  0
  2  6  1  0
  6  5  2  0
  5  4  1  0
  4  3  2  0
  3  1  1  0
  7  8  2  0
  8  9  1  0
  9 12  2  0
 12 11  1  0
 11 10  2  0
 10  7  1  0
M  END
$$$$
O14757_PocketFlow_idx-in-all-generaetd-529
     RDKit          3D

 27 30  0  0  0  0  0  0  0  0999 V2000
    0.2881   -2.9111   42.4378 C   0  0  0  0  0  0  0  0  0  0  0  0
   -0.0650   -2.5021   41.5798 C   0  0  0  0  0  0  0  0  0  0  0  0
    1.6108   -3.5167   42.6657 C   0  0  0  0  0  0  0  0  0  0  0  0
    2.5982   -2.5638   42.1593 C   0  0  0  0  0  0  0  0  0  0  0  0
    3.9444   -2.5446   42.8117 C   0  0  0  0  0  0  0  0  0  0  0  0
    4.1723   -3.4006   43.8810 C   0  0  0  0  0  0  0  0  0  0  0  0
    5.4073   -3.3609   44.6063 C   0  0  0  0  0  0  0  0  0  0  0  0
   -1.4992   -2.1592   41.3372 C   0  0  0  0  0  0  0  0  0  0  0  0
    5.5368   -4.1393   45.7918 C   0  0  0  0  0  0  0  0  0  0  0  0
    4.4292   -4.8747   46.2314 C   0  0  0  0  0  0  0  0  0  0  0  0
    3.2769   -4.8872   45.5417 C   0  0  0  0  0  0  0  0  0  0  0  0
    3.0942   -4.1150   44.4028 C   0  0  0  0  0  0  0  0  0  0  0  0
    1.8077   -4.0897   43.8198 C   0  0  0  0  0  0  0  0  0  0  0  0
   -2.1315   -1.3228   42.2366 C   0  0  0  0  0  0  0  0  0  0  0  0
   -3.2567   -0.8415   41.6369 N   0  0  0  0  0  0  0  0  0  0  0  0
    2.3144   -5.6147   46.0542 F   0  0  0  0  0  0  0  0  0  0  0  0
   -3.4116    0.2957   41.1687 C   0  0  0  0  0  0  0  0  0  0  0  0
    2.2498   -1.6852   41.1174 C   0  0  0  0  0  0  0  0  0  0  0  0
    0.8190   -1.5882   40.8682 C   0  0  0  0  0  0  0  0  0  0  0  0
    6.8515   -4.0359   46.5370 C   0  0  0  0  0  0  0  0  0  0  0  0
    7.0147   -3.0266   47.4486 C   0  0  0  0  0  0  0  0  0  0  0  0
    8.2153   -3.0251   48.2217 C   0  0  0  0  0  0  0  0  0  0  0  0
    8.2900   -3.2161   49.5063 C   0  0  0  0  0  0  0  0  0  0  0  0
    9.3928   -2.9195   50.3449 C   0  0  0  0  0  0  0  0  0  0  0  0
    9.4753   -2.8537   47.5687 C   0  0  0  0  0  0  0  0  0  0  0  0
   10.6862   -2.6002   48.2790 C   0  0  0  0  0  0  0  0  0  0  0  0
   10.6262   -2.6607   49.7077 C   0  0  0  0  0  0  0  0  0  0  0  0
  2  8  1  0
  8 14  2  3
 14 15  1  0
 11 16  1  0
 15 17  2  0
  9 20  1  0
 20 21  1  0
 21 22  1  0
  6  7  2  0
  7  9  1  0
  9 10  2  0
 10 11  1  0
 11 12  2  0
  4  5  2  0
  5  6  1  0
  6 12  1  0
 12 13  1  0
 13  3  2  0
  1  2  2  0
  2 19  1  0
 19 18  2  0
 18  4  1  0
  4  3  1  0
  3  1  1  0
 22 23  2  0
 23 24  1  0
 24 27  2  0
 27 26  1  0
 26 25  2  0
 25 22  1  0
M  END
$$$$
O14757_PocketFlow_idx-in-all-generaetd-530
     RDKit          3D

 12 13  0  0  0  0  0  0  0  0999 V2000
    0.2881   -2.9111   42.4378 C   0  0  0  0  0  0  0  0  0  0  0  0
   -0.0650   -2.5021   41.5798 C   0  0  0  0  0  0  0  0  0  0  0  0
    1.5584   -2.5265   43.0885 C   0  0  0  0  0  0  0  0  0  0  0  0
    2.2571   -1.5118   42.4661 C   0  0  0  0  0  0  0  0  0  0  0  0
    3.4685   -1.0138   43.0315 C   0  0  0  0  0  0  0  0  0  0  0  0
    4.1109    0.1029   42.5142 C   0  0  0  0  0  0  0  0  0  0  0  0
    0.4869   -1.3196   40.9457 C   0  0  0  0  0  0  0  0  0  0  0  0
    1.6899   -0.7933   41.4707 C   0  0  0  0  0  0  0  0  0  0  0  0
    4.2827   -1.8520   43.9534 C   0  0  0  0  0  0  0  0  0  0  0  0
    5.4085   -1.4203   44.5753 C   0  0  0  0  0  0  0  0  0  0  0  0
    5.3895    0.5033   43.2020 C   0  0  0  0  0  0  0  0  0  0  0  0
    6.0170   -0.2575   44.0858 C   0  0  0  0  0  0  0  0  0  0  0  0
  4  5  1  0
  5  6  2  0
  6 11  1  0
 11 12  2  0
 12 10  1  0
 10  9  2  0
  9  5  1  0
  1  2  2  0
  2  7  1  0
  7  8  2  0
  8  4  1  0
  4  3  2  0
  3  1  1  0
M  END
$$$$
O14757_PocketFlow_idx-in-all-generaetd-531
     RDKit          3D

 35 37  0  0  0  0  0  0  0  0999 V2000
   -0.6395   -2.0713   41.4947 C   0  0  0  0  0  0  0  0  0  0  0  0
   -0.2671   -3.2464   41.6546 C   0  0  0  0  0  0  0  0  0  0  0  0
    0.2407   -0.9706   41.5952 C   0  0  0  0  0  0  0  0  0  0  0  0
    1.6195   -1.2958   41.8767 C   0  0  0  0  0  0  0  0  0  0  0  0
    1.9162   -2.6816   42.2016 C   0  0  0  0  0  0  0  0  0  0  0  0
    0.9422   -3.6324   42.1156 C   0  0  0  0  0  0  0  0  0  0  0  0
    2.6136   -0.2815   42.1191 C   0  0  0  0  0  0  0  0  0  0  0  0
    3.6171   -0.3660   43.0798 C   0  0  0  0  0  0  0  0  0  0  0  0
    4.8998   -0.8501   42.6430 C   0  0  0  0  0  0  0  0  0  0  0  0
    5.8298   -1.0002   43.7732 C   0  0  0  0  0  0  0  0  0  0  0  0
    5.6744   -2.2099   44.6398 C   0  0  0  0  0  0  0  0  0  0  0  0
    4.6468   -3.1036   44.5590 C   0  0  0  0  0  0  0  0  0  0  0  0
    4.5955   -4.1905   45.4260 C   0  0  0  0  0  0  0  0  0  0  0  0
    4.4500   -4.0294   46.4983 C   0  0  0  0  0  0  0  0  0  0  0  0
    5.5081   -3.0231   47.1259 C   0  0  0  0  0  0  0  0  0  0  0  0
    6.1297   -2.0794   46.1251 C   0  0  0  0  0  0  0  0  0  0  0  0
   -1.8330   -1.6927   40.9376 F   0  0  0  0  0  0  0  0  0  0  0  0
    2.8223    0.6896   41.2785 O   0  0  0  0  0  0  0  0  0  0  0  0
    3.8189   -5.3795   44.8630 C   0  0  0  0  0  0  0  0  0  0  0  0
    2.5180   -5.7019   45.1964 N   0  0  0  0  0  0  0  0  0  0  0  0
    2.0176   -6.8804   45.0653 C   0  0  0  0  0  0  0  0  0  0  0  0
    0.6376   -7.0630   45.3480 C   0  0  0  0  0  0  0  0  0  0  0  0
   -0.2417   -7.3467   44.6127 C   0  0  0  0  0  0  0  0  0  0  0  0
   -1.7140   -7.4297   44.9023 C   0  0  0  0  0  0  0  0  0  0  0  0
   -1.8721   -8.0092   45.9442 C   0  0  0  0  0  0  0  0  0  0  0  0
   -1.0110   -7.8099   47.0965 C   0  0  0  0  0  0  0  0  0  0  0  0
    0.3293   -7.4154   46.7629 C   0  0  0  0  0  0  0  0  0  0  0  0
   -3.3412   -8.2903   46.3912 C   0  0  0  0  0  0  0  0  0  0  0  0
   -3.5974   -8.8320   47.5013 N   0  0  0  0  0  0  0  0  0  0  0  0
   -4.3353   -7.9182   45.6881 O   0  0  0  0  0  0  0  0  0  0  0  0
    1.5734   -4.5350   44.9528 C   0  0  0  0  0  0  0  0  0  0  0  0
    0.5148   -4.5143   45.9219 C   0  0  0  0  0  0  0  0  0  0  0  0
   -0.4932   -3.5459   45.6350 C   0  0  0  0  0  0  0  0  0  0  0  0
    2.7692   -7.8336   44.8510 O   0  0  0  0  0  0  0  0  0  0  0  0
   -1.4095   -3.3732   46.5542 O   0  0  0  0  0  0  0  0  0  0  0  0
  4  7  1  0
  7  8  1  0
  8  9  1  0
  9 10  1  0
 10 11  1  0
  1 17  1  0
  7 18  2  0
 13 19  1  0
 19 20  1  0
 20 21  1  0
 21 22  1  0
 25 28  1  0
 28 29  1  0
 28 30  2  0
 20 31  1  0
 31 32  1  0
 32 33  2  3
 21 34  2  0
 33 35  1  0
 11 12  2  0
 12 13  1  0
 13 14  2  0
 14 15  1  0
 15 16  2  0
 16 11  1  0
  1  2  2  0
  2  6  1  0
  6  5  2  0
  5  4  1  0
  4  3  2  0
  3  1  1  0
 22 23  2  0
 23 24  1  0
 24 25  2  0
 25 26  1  0
 26 27  2  0
 27 22  1  0
M  END
$$$$
O14757_PocketFlow_idx-in-all-generaetd-532
     RDKit          3D

 35 38  0  0  0  0  0  0  0  0999 V2000
    0.0138   -2.7927   42.5918 N   0  0  0  0  0  0  0  0  0  0  0  0
    1.1722   -3.1858   42.8673 C   0  0  0  0  0  0  0  0  0  0  0  0
    2.0106   -2.4736   43.6736 C   0  0  0  0  0  0  0  0  0  0  0  0
    3.0022   -3.1582   44.4022 C   0  0  0  0  0  0  0  0  0  0  0  0
    2.7765   -4.5175   44.8423 C   0  0  0  0  0  0  0  0  0  0  0  0
    1.6582   -5.1733   44.3343 C   0  0  0  0  0  0  0  0  0  0  0  0
    0.7750   -4.4320   43.5391 C   0  0  0  0  0  0  0  0  0  0  0  0
   -0.0047   -1.8275   41.5611 C   0  0  0  0  0  0  0  0  0  0  0  0
   -1.2006   -1.4065   41.2351 O   0  0  0  0  0  0  0  0  0  0  0  0
    1.4468   -1.2325   40.4863 Br  0  0  0  0  0  0  0  0  0  0  0  0
    4.2159   -2.4292   44.8877 C   0  0  0  0  0  0  0  0  0  0  0  0
    5.0382   -3.0151   45.9224 C   0  0  0  0  0  0  0  0  0  0  0  0
    4.6336   -4.3077   46.4136 C   0  0  0  0  0  0  0  0  0  0  0  0
    3.6496   -5.0551   45.8392 C   0  0  0  0  0  0  0  0  0  0  0  0
    5.6184   -4.8649   47.4298 C   0  0  0  0  0  0  0  0  0  0  0  0
    5.1515   -5.5352   48.3224 O   0  0  0  0  0  0  0  0  0  0  0  0
    6.7003   -4.0578   47.7467 O   0  0  0  0  0  0  0  0  0  0  0  0
    7.8768   -4.7791   48.0133 C   0  0  0  0  0  0  0  0  0  0  0  0
    8.9132   -3.9801   47.4405 C   0  0  0  0  0  0  0  0  0  0  0  0
    8.7584   -2.6398   47.1062 C   0  0  0  0  0  0  0  0  0  0  0  0
    9.8457   -1.7559   47.0324 C   0  0  0  0  0  0  0  0  0  0  0  0
   11.1411   -2.1943   46.9818 C   0  0  0  0  0  0  0  0  0  0  0  0
   11.3614   -3.5520   47.2012 C   0  0  0  0  0  0  0  0  0  0  0  0
   10.3167   -4.4522   47.4586 C   0  0  0  0  0  0  0  0  0  0  0  0
   12.2274   -1.2032   46.7235 C   0  0  0  0  0  0  0  0  0  0  0  0
   12.0726   -0.1315   47.1266 O   0  0  0  0  0  0  0  0  0  0  0  0
   13.4162   -1.6092   46.3277 N   0  0  0  0  0  0  0  0  0  0  0  0
   14.4985   -0.6749   45.9825 C   0  0  0  0  0  0  0  0  0  0  0  0
   10.5919   -5.8449   47.5997 C   0  0  0  0  0  0  0  0  0  0  0  0
   10.4449   -6.6100   46.4553 C   0  0  0  0  0  0  0  0  0  0  0  0
   10.6139   -7.8892   46.6061 C   0  0  0  0  0  0  0  0  0  0  0  0
   10.8026   -8.4937   47.7676 C   0  0  0  0  0  0  0  0  0  0  0  0
   10.7438   -6.5139   48.7835 C   0  0  0  0  0  0  0  0  0  0  0  0
   10.8731   -7.7888   48.9159 C   0  0  0  0  0  0  0  0  0  0  0  0
   14.8403    0.1419   46.5665 C   0  0  0  0  0  0  0  0  0  0  0  0
  1  2  1  0
  1  8  1  0
  8  9  2  0
  8 10  1  0
 13 15  1  0
 15 16  2  0
 15 17  1  0
 17 18  1  0
 18 19  1  0
 22 25  1  0
 25 26  2  0
 25 27  1  0
 27 28  1  0
 24 29  1  0
 28 35  1  0
  5 14  2  0
 14 13  1  0
 13 12  2  0
 12 11  1  0
 11  4  2  0
  2  3  2  0
  3  4  1  0
  4  5  1  0
  5  6  1  0
  6  7  2  0
  7  2  1  0
 19 20  2  0
 20 21  1  0
 21 22  2  0
 22 23  1  0
 23 24  2  0
 24 19  1  0
 29 30  2  0
 30 31  1  0
 31 32  2  0
 32 34  1  0
 34 33  2  0
 33 29  1  0
M  END
$$$$
O14757_PocketFlow_idx-in-all-generaetd-533
     RDKit          3D

 35 38  0  0  0  0  0  0  0  0999 V2000
   -0.6395   -2.0713   41.4947 C   0  0  0  0  0  0  0  0  0  0  0  0
    0.6719   -2.2449   41.7518 C   0  0  0  0  0  0  0  0  0  0  0  0
    1.5951   -1.1948   41.6106 C   0  0  0  0  0  0  0  0  0  0  0  0
    2.9587   -1.3961   42.0240 C   0  0  0  0  0  0  0  0  0  0  0  0
    3.1652   -2.3460   43.1085 C   0  0  0  0  0  0  0  0  0  0  0  0
    2.2115   -3.3199   43.4243 C   0  0  0  0  0  0  0  0  0  0  0  0
    0.9094   -3.1578   42.8194 C   0  0  0  0  0  0  0  0  0  0  0  0
    4.4667   -2.5092   43.7281 C   0  0  0  0  0  0  0  0  0  0  0  0
    5.3774   -1.4371   43.8700 C   0  0  0  0  0  0  0  0  0  0  0  0
    6.5472   -1.6455   44.6976 C   0  0  0  0  0  0  0  0  0  0  0  0
    6.6772   -2.7703   45.5348 C   0  0  0  0  0  0  0  0  0  0  0  0
    5.6360   -3.7213   45.4602 C   0  0  0  0  0  0  0  0  0  0  0  0
    4.5590   -3.5952   44.6337 C   0  0  0  0  0  0  0  0  0  0  0  0
   -1.6805   -2.0282   41.1603 N   0  0  0  0  0  0  0  0  0  0  0  0
    7.7324   -2.9501   46.5046 C   0  0  0  0  0  0  0  0  0  0  0  0
    7.8019   -4.0061   47.3999 C   0  0  0  0  0  0  0  0  0  0  0  0
    8.5656   -4.0416   48.3368 C   0  0  0  0  0  0  0  0  0  0  0  0
    8.3891   -5.0086   49.4683 C   0  0  0  0  0  0  0  0  0  0  0  0
    7.2544   -5.8417   49.3978 C   0  0  0  0  0  0  0  0  0  0  0  0
    6.3528   -5.7087   48.3561 C   0  0  0  0  0  0  0  0  0  0  0  0
    6.5462   -4.7443   47.3957 C   0  0  0  0  0  0  0  0  0  0  0  0
    5.5174   -4.6035   46.4492 C   0  0  0  0  0  0  0  0  0  0  0  0
    9.8390   -3.1830   48.5173 C   0  0  0  0  0  0  0  0  0  0  0  0
    9.9136   -2.0855   48.4991 C   0  0  0  0  0  0  0  0  0  0  0  0
   10.3528   -1.2852   49.1266 C   0  0  0  0  0  0  0  0  0  0  0  0
    9.9872    0.1222   49.5237 C   0  0  0  0  0  0  0  0  0  0  0  0
   11.8043   -1.5232   49.7594 C   0  0  0  0  0  0  0  0  0  0  0  0
    5.2970   -6.4833   48.3314 O   0  0  0  0  0  0  0  0  0  0  0  0
    5.5088   -7.8817   48.3751 C   0  0  0  0  0  0  0  0  0  0  0  0
    5.5782   -8.3269   49.6360 C   0  0  0  0  0  0  0  0  0  0  0  0
    4.9791   -9.4227   49.9074 C   0  0  0  0  0  0  0  0  0  0  0  0
    3.7339   -9.3838   50.3623 C   0  0  1  0  0  0  0  0  0  0  0  0
    3.4398   -8.7009   51.4871 C   0  0  0  0  0  0  0  0  0  0  0  0
    2.6012   -9.9005   49.6580 C   0  0  0  0  0  0  0  0  0  0  0  0
    2.4507   -9.7320   48.4493 C   0  0  0  0  0  0  0  0  0  0  0  0
  1  2  1  0
  5  8  1  0
  1 14  3  0
 17 23  1  0
 23 24  1  0
 24 25  2  3
 25 26  1  0
 25 27  1  0
 20 28  1  0
 28 29  1  0
 29 30  1  0
 30 31  1  0
 31 32  1  0
 32 33  1  6
 32 34  1  0
 34 35  1  0
 12 22  1  0
 22 21  2  0
 16 15  2  0
 15 11  1  0
  2  3  2  0
  3  4  1  0
  4  5  2  0
  5  6  1  0
  6  7  2  0
  7  2  1  0
  8  9  2  0
  9 10  1  0
 10 11  2  0
 11 12  1  0
 12 13  2  0
 13  8  1  0
 16 17  1  0
 17 18  2  0
 18 19  1  0
 19 20  2  0
 20 21  1  0
 21 16  1  0
M  END
$$$$
O14757_PocketFlow_idx-in-all-generaetd-534
     RDKit          3D

 21 23  0  0  0  0  0  0  0  0999 V2000
   -0.6395   -2.0713   41.4947 C   0  0  0  0  0  0  0  0  0  0  0  0
    0.6719   -2.2449   41.7518 C   0  0  0  0  0  0  0  0  0  0  0  0
    1.5951   -1.1948   41.6106 C   0  0  0  0  0  0  0  0  0  0  0  0
    2.9587   -1.3961   42.0240 C   0  0  0  0  0  0  0  0  0  0  0  0
    3.1652   -2.3460   43.1085 C   0  0  0  0  0  0  0  0  0  0  0  0
    4.5010   -2.4269   43.6771 C   0  0  0  0  0  0  0  0  0  0  0  0
    4.6828   -3.3864   44.7249 C   0  0  0  0  0  0  0  0  0  0  0  0
    3.6723   -4.3752   44.9428 C   0  0  0  0  0  0  0  0  0  0  0  0
    2.4425   -4.2517   44.3109 C   0  0  0  0  0  0  0  0  0  0  0  0
    2.1736   -3.2460   43.3981 C   0  0  0  0  0  0  0  0  0  0  0  0
    0.8864   -3.1886   42.8454 C   0  0  0  0  0  0  0  0  0  0  0  0
    5.9643   -3.3977   45.4321 C   0  0  0  0  0  0  0  0  0  0  0  0
    6.1689   -2.4917   46.5066 C   0  0  0  0  0  0  0  0  0  0  0  0
   -1.3458   -1.1127   41.8427 F   0  0  0  0  0  0  0  0  0  0  0  0
   -1.4629   -3.1703   41.6451 F   0  0  0  0  0  0  0  0  0  0  0  0
    1.4262   -5.2345   44.7349 C   0  0  0  0  0  0  0  0  0  0  0  0
    0.4778   -4.9611   45.7305 C   0  0  0  0  0  0  0  0  0  0  0  0
   -0.4860   -5.8989   46.1665 C   0  0  0  0  0  0  0  0  0  0  0  0
   -0.7963   -6.9716   45.3006 C   0  0  0  0  0  0  0  0  0  0  0  0
   -0.0286   -7.1160   44.0884 C   0  0  0  0  0  0  0  0  0  0  0  0
    1.0843   -6.3281   43.8999 C   0  0  0  0  0  0  0  0  0  0  0  0
  1  2  1  0
  7 12  1  0
 12 13  1  0
  1 14  1  0
  1 15  1  0
  9 16  1  0
  2  3  2  0
  3  4  1  0
  4  5  2  0
 10 11  2  0
 11  2  1  0
  5  6  1  0
  6  7  2  0
  7  8  1  0
  8  9  2  0
  9 10  1  0
 10  5  1  0
 16 17  2  0
 17 18  1  0
 18 19  2  0
 19 20  1  0
 20 21  2  0
 21 16  1  0
M  END
$$$$
O14757_PocketFlow_idx-in-all-generaetd-535
     RDKit          3D

 20 21  0  0  0  0  0  0  0  0999 V2000
   -0.6395   -2.0713   41.4947 C   0  0  0  0  0  0  0  0  0  0  0  0
   -0.2671   -3.2464   41.6546 C   0  0  0  0  0  0  0  0  0  0  0  0
    0.2407   -0.9706   41.5952 C   0  0  0  0  0  0  0  0  0  0  0  0
    1.6195   -1.2958   41.8767 C   0  0  0  0  0  0  0  0  0  0  0  0
    1.9162   -2.6816   42.2016 C   0  0  0  0  0  0  0  0  0  0  0  0
    0.9422   -3.6324   42.1156 C   0  0  0  0  0  0  0  0  0  0  0  0
    2.4522   -0.1918   42.1376 C   0  0  0  0  0  0  0  0  0  0  0  0
    3.7906   -0.4191   42.2910 N   0  0  0  0  0  0  0  0  0  0  0  0
    4.6381    0.4581   42.8793 C   0  0  0  0  0  0  0  0  0  0  0  0
   -2.0725   -1.7773   41.0559 C   0  0  0  0  0  0  0  0  0  0  0  0
   -2.6032   -0.6640   41.3489 O   0  0  0  0  0  0  0  0  0  0  0  0
   -2.8474   -2.7659   40.7451 O   0  0  0  0  0  0  0  0  0  0  0  0
    2.2328    0.9491   41.7561 O   0  0  0  0  0  0  0  0  0  0  0  0
    5.5111   -0.3997   43.9054 C   0  0  0  0  0  0  0  0  0  0  0  0
    5.2110   -1.7728   44.1513 C   0  0  0  0  0  0  0  0  0  0  0  0
    5.8493   -2.3516   45.2888 C   0  0  0  0  0  0  0  0  0  0  0  0
    5.2427   -3.4036   45.9788 C   0  0  0  0  0  0  0  0  0  0  0  0
    4.0726   -4.0430   45.4168 C   0  0  0  0  0  0  0  0  0  0  0  0
    3.6092   -3.5207   44.1616 C   0  0  0  0  0  0  0  0  0  0  0  0
    4.0516   -2.3658   43.7128 C   0  0  0  0  0  0  0  0  0  0  0  0
  4  7  1  0
  7  8  1  0
  8  9  1  0
  1 10  1  0
 10 11  2  0
 10 12  1  0
  7 13  2  0
  9 14  1  0
 14 15  1  0
 15 16  2  0
 16 17  1  0
 17 18  2  0
 18 19  1  0
 19 20  2  0
 20 15  1  0
  1  2  2  0
  2  6  1  0
  6  5  2  0
  5  4  1  0
  4  3  2  0
  3  1  1  0
M  END
$$$$
O14757_PocketFlow_idx-in-all-generaetd-536
     RDKit          3D

 35 37  0  0  0  0  0  0  0  0999 V2000
   -0.8794   -1.9236   41.9357 O   0  0  0  0  0  0  0  0  0  0  0  0
    0.3070   -1.6014   41.6735 C   0  0  0  0  0  0  0  0  0  0  0  0
    1.3011   -2.6668   41.5732 C   0  0  1  0  0  0  0  0  0  0  0  0
    0.8912   -0.3922   41.9055 N   0  0  0  0  0  0  0  0  0  0  0  0
    2.2264   -0.0486   41.8349 C   0  0  0  0  0  0  0  0  0  0  0  0
    3.0729   -1.1153   41.8880 N   0  0  0  0  0  0  0  0  0  0  0  0
    2.6371   -2.3864   41.8390 C   0  0  0  0  0  0  0  0  0  0  0  0
    4.4057   -0.8596   42.2754 C   0  0  0  0  0  0  0  0  0  0  0  0
    4.6187    0.2046   43.2730 C   0  0  0  0  0  0  0  0  0  0  0  0
    5.1654   -0.2962   44.3060 N   0  0  0  0  0  0  0  0  0  0  0  0
    5.8464   -1.4899   44.2764 C   0  0  0  0  0  0  0  0  0  0  0  0
    5.5564   -2.3843   45.3569 C   0  0  0  0  0  0  0  0  0  0  0  0
    5.7437   -3.6758   45.4963 C   0  0  0  0  0  0  0  0  0  0  0  0
    5.3263   -4.4132   46.6070 C   0  0  0  0  0  0  0  0  0  0  0  0
    4.4816   -3.6953   47.4943 C   0  0  0  0  0  0  0  0  0  0  0  0
    4.2616   -2.3487   47.3128 C   0  0  0  0  0  0  0  0  0  0  0  0
    4.7018   -1.6897   46.1898 C   0  0  0  0  0  0  0  0  0  0  0  0
    0.6772   -3.8372   41.3755 N   0  0  0  0  0  0  0  0  0  0  0  0
   -0.0987   -4.6010   42.1526 C   0  0  0  0  0  0  0  0  0  0  0  0
   -0.0533   -6.0141   41.9697 C   0  0  0  0  0  0  0  0  0  0  0  0
    0.2863   -6.6230   43.1610 O   0  0  0  0  0  0  0  0  0  0  0  0
   -0.6776   -6.8686   44.1821 C   0  0  0  0  0  0  0  0  0  0  0  0
   -1.5609   -7.3556   44.1031 C   0  0  0  0  0  0  0  0  0  0  0  0
   -2.3558   -7.8727   45.2966 C   0  0  0  0  0  0  0  0  0  0  0  0
   -1.8138   -7.5646   46.5170 C   0  0  0  0  0  0  0  0  0  0  0  0
    0.0241   -6.6784   45.5489 C   0  0  0  0  0  0  0  0  0  0  0  0
   -0.6138   -6.9469   46.6406 C   0  0  0  0  0  0  0  0  0  0  0  0
   -3.6305   -8.5434   45.1126 C   0  0  0  0  0  0  0  0  0  0  0  0
   -4.6048   -8.1879   44.4588 N   0  0  0  0  0  0  0  0  0  0  0  0
   -5.1701   -8.3558   43.5644 C   0  0  0  0  0  0  0  0  0  0  0  0
   -6.2912   -7.5931   43.0202 C   0  0  0  0  0  0  0  0  0  0  0  0
   -3.4606   -9.9160   45.2210 O   0  0  0  0  0  0  0  0  0  0  0  0
   -6.7724   -7.6560   41.7966 C   0  0  0  0  0  0  0  0  0  0  0  0
   -6.3161   -8.6710   41.0199 C   0  0  0  0  0  0  0  0  0  0  0  0
   -5.2637   -9.4902   41.3692 C   0  0  0  0  0  0  0  0  0  0  0  0
  1  2  2  0
  2  3  1  0
  2  4  1  0
  4  5  1  0
  5  6  1  0
  3  7  1  0
  6  7  1  0
  6  8  1  0
  8  9  1  0
  9 10  1  0
 10 11  1  0
 11 12  1  0
  3 18  1  1
 18 19  1  0
 19 20  1  0
 20 21  1  0
 21 22  1  0
 24 28  1  0
 28 29  1  0
 29 30  1  0
 30 31  2  3
 28 32  2  0
 31 33  1  0
 33 34  2  3
 34 35  1  0
 12 13  2  0
 13 14  1  0
 14 15  2  0
 15 16  1  0
 16 17  2  0
 17 12  1  0
 22 23  2  0
 23 24  1  0
 24 25  2  0
 25 27  1  0
 27 26  2  0
 26 22  1  0
M  END
$$$$
O14757_PocketFlow_idx-in-all-generaetd-537
     RDKit          3D

 22 24  0  0  0  0  0  0  0  0999 V2000
   -0.8794   -1.9236   41.9357 O   0  0  0  0  0  0  0  0  0  0  0  0
    0.3070   -1.6014   41.6735 C   0  0  0  0  0  0  0  0  0  0  0  0
    0.8076   -0.3104   41.6588 C   0  0  0  0  0  0  0  0  0  0  0  0
    2.1973   -0.1560   42.0682 C   0  0  0  0  0  0  0  0  0  0  0  0
    3.0388   -1.2356   42.4097 C   0  0  0  0  0  0  0  0  0  0  0  0
    2.3612   -2.5152   42.5452 C   0  0  0  0  0  0  0  0  0  0  0  0
    1.0303   -2.6316   42.3240 C   0  0  0  0  0  0  0  0  0  0  0  0
    4.3707   -1.0801   42.7876 C   0  0  0  0  0  0  0  0  0  0  0  0
    4.9532   -1.8738   43.6465 N   0  0  0  0  0  0  0  0  0  0  0  0
    5.9347   -1.4875   44.5107 C   0  0  0  0  0  0  0  0  0  0  0  0
    6.3630   -2.5080   45.4217 C   0  0  1  0  0  0  0  0  0  0  0  0
    7.5421   -2.4497   46.2232 C   0  0  0  0  0  0  0  0  0  0  0  0
    8.4054   -1.3477   45.9959 C   0  0  0  0  0  0  0  0  0  0  0  0
    9.5085   -1.2874   46.7570 N   0  0  0  0  0  0  0  0  0  0  0  0
    4.9802    0.0110   42.4172 O   0  0  0  0  0  0  0  0  0  0  0  0
    9.8588   -2.2664   47.6041 C   0  0  0  0  0  0  0  0  0  0  0  0
    9.0452   -3.3725   47.7539 C   0  0  0  0  0  0  0  0  0  0  0  0
    7.8818   -3.5196   47.0145 C   0  0  0  0  0  0  0  0  0  0  0  0
    0.2621   -3.7332   42.4225 N   0  0  0  0  0  0  0  0  0  0  0  0
   -0.9092   -3.4330   41.9695 C   0  0  0  0  0  0  0  0  0  0  0  0
    5.4806   -3.5696   45.6525 C   0  0  0  0  0  0  0  0  0  0  0  0
    4.8356   -3.6923   46.9358 C   0  0  0  0  0  0  0  0  0  0  0  0
  1  2  1  0
  5  8  1  0
  8  9  1  0
  9 10  1  0
 11 10  1  1
  8 15  2  0
  7 19  1  0
  1 20  1  0
 19 20  1  0
 11 21  1  0
 21 22  3  0
 11 12  1  0
  2  3  2  0
  3  4  1  0
  4  5  2  0
  5  6  1  0
  6  7  2  0
  7  2  1  0
 12 13  2  0
 13 14  1  0
 14 16  2  0
 16 17  1  0
 17 18  2  0
 18 12  1  0
M  END
$$$$
O14757_PocketFlow_idx-in-all-generaetd-538
     RDKit          3D

 19 21  0  0  0  0  0  0  0  0999 V2000
    0.0138   -2.7927   42.5918 N   0  0  0  0  0  0  0  0  0  0  0  0
    1.0651   -2.2375   42.1679 C   0  0  0  0  0  0  0  0  0  0  0  0
    2.2627   -2.4916   42.7704 C   0  0  0  0  0  0  0  0  0  0  0  0
    3.4021   -1.7307   42.6181 C   0  0  0  0  0  0  0  0  0  0  0  0
    4.5393   -1.9366   43.4523 C   0  0  0  0  0  0  0  0  0  0  0  0
    4.4657   -2.9773   44.3743 C   0  0  0  0  0  0  0  0  0  0  0  0
    3.3167   -3.7983   44.4540 C   0  0  0  0  0  0  0  0  0  0  0  0
    2.1952   -3.5423   43.7645 C   0  0  0  0  0  0  0  0  0  0  0  0
    1.0919   -1.5729   41.0361 O   0  0  0  0  0  0  0  0  0  0  0  0
    5.6971   -3.2439   45.1646 C   0  0  0  0  0  0  0  0  0  0  0  0
    6.7267   -2.2549   45.1849 C   0  0  0  0  0  0  0  0  0  0  0  0
    6.6077   -1.1289   44.3637 C   0  0  0  0  0  0  0  0  0  0  0  0
    5.5705   -0.9613   43.5013 C   0  0  0  0  0  0  0  0  0  0  0  0
    7.9195   -2.4958   46.0236 C   0  0  0  0  0  0  0  0  0  0  0  0
    8.0969   -3.7431   46.6336 C   0  0  0  0  0  0  0  0  0  0  0  0
    9.2319   -3.9377   47.4212 C   0  0  0  0  0  0  0  0  0  0  0  0
    8.8926   -1.5392   46.2311 C   0  0  0  0  0  0  0  0  0  0  0  0
    9.9882   -1.6871   47.0667 C   0  0  0  0  0  0  0  0  0  0  0  0
   10.1559   -2.9092   47.6615 C   0  0  0  0  0  0  0  0  0  0  0  0
  1  2  1  0
  2  3  1  0
  2  9  2  0
 11 14  1  0
  3  4  2  0
  4  5  1  0
  6  7  1  0
  7  8  2  0
  8  3  1  0
 14 15  2  0
 15 16  1  0
 16 19  2  0
 19 18  1  0
 18 17  2  0
 17 14  1  0
  5  6  2  0
  6 10  1  0
 10 11  2  0
 11 12  1  0
 12 13  2  0
 13  5  1  0
M  END
$$$$
O14757_PocketFlow_idx-in-all-generaetd-539
     RDKit          3D

 30 32  0  0  0  0  0  0  0  0999 V2000
   -0.6395   -2.0713   41.4947 C   0  0  2  0  0  0  0  0  0  0  0  0
    0.1859   -1.1027   41.5970 C   0  0  0  0  0  0  0  0  0  0  0  0
    1.5836   -1.3270   41.4670 C   0  0  0  0  0  0  0  0  0  0  0  0
   -2.0616   -1.8375   41.5032 C   0  0  0  0  0  0  0  0  0  0  0  0
    2.5703   -0.3987   41.8488 C   0  0  0  0  0  0  0  0  0  0  0  0
    3.8557   -0.7227   42.2740 C   0  0  0  0  0  0  0  0  0  0  0  0
    4.7671    0.2474   42.7900 C   0  0  0  0  0  0  0  0  0  0  0  0
   -2.5414   -1.2747   40.2541 C   0  0  0  0  0  0  0  0  0  0  0  0
    5.8401   -0.3221   43.4919 N   0  0  0  0  0  0  0  0  0  0  0  0
    5.6955   -1.3762   44.3812 C   0  0  0  0  0  0  0  0  0  0  0  0
    4.8368   -1.6420   45.1233 C   0  0  0  0  0  0  0  0  0  0  0  0
    4.8193   -2.7920   45.9974 C   0  0  0  0  0  0  0  0  0  0  0  0
    6.0426   -3.3521   46.3246 C   0  0  0  0  0  0  0  0  0  0  0  0
    7.2013   -2.9055   45.6065 C   0  0  0  0  0  0  0  0  0  0  0  0
    7.0728   -1.9300   44.6907 C   0  0  0  0  0  0  0  0  0  0  0  0
    6.2675   -4.4448   47.2898 C   0  0  0  0  0  0  0  0  0  0  0  0
    7.2312   -4.5002   48.0998 N   0  0  0  0  0  0  0  0  0  0  0  0
    7.4344   -5.4654   49.0044 C   0  0  0  0  0  0  0  0  0  0  0  0
   -4.0827   -1.2079   40.2303 C   0  0  0  0  0  0  0  0  0  0  0  0
    5.3275   -5.3163   47.3406 O   0  0  0  0  0  0  0  0  0  0  0  0
    8.3730   -5.1479   49.8491 C   0  0  0  0  0  0  0  0  0  0  0  0
    8.8632   -3.8963   49.9506 C   0  0  0  0  0  0  0  0  0  0  0  0
    9.5675   -3.3091   51.0690 C   0  0  0  0  0  0  0  0  0  0  0  0
    9.6494   -1.9128   51.2067 C   0  0  0  0  0  0  0  0  0  0  0  0
    9.6772   -1.2046   49.9844 C   0  0  0  0  0  0  0  0  0  0  0  0
    9.2980   -1.7925   48.8116 C   0  0  0  0  0  0  0  0  0  0  0  0
    8.8785   -3.0483   48.8121 C   0  0  0  0  0  0  0  0  0  0  0  0
    7.9262   -3.2947   48.1301 C   0  0  0  0  0  0  0  0  0  0  0  0
   -0.1319   -3.4148   41.5972 C   0  0  0  0  0  0  0  0  0  0  0  0
   -0.2381   -4.1050   42.5267 N   0  0  0  0  0  0  0  0  0  0  0  0
  1  2  1  0
  2  3  2  3
  1  4  1  1
  3  5  1  0
  5  6  1  0
  6  7  1  0
  4  8  1  0
  7  9  1  0
  9 10  1  0
 13 16  1  0
 16 17  1  0
 17 18  1  0
  8 19  1  0
 16 20  2  0
 21 22  1  0
 17 28  1  0
 27 28  1  0
  1 29  1  0
 29 30  1  0
 18 21  1  0
 22 23  2  0
 23 24  1  0
 24 25  2  0
 25 26  1  0
 26 27  2  0
 27 22  1  0
 10 11  2  0
 11 12  1  0
 12 13  2  0
 13 14  1  0
 14 15  2  0
 15 10  1  0
M  END
$$$$
O14757_PocketFlow_idx-in-all-generaetd-540
     RDKit          3D

 14 15  0  0  0  0  0  0  0  0999 V2000
   -0.6395   -2.0713   41.4947 C   0  0  0  0  0  0  0  0  0  0  0  0
   -0.2671   -3.2464   41.6546 C   0  0  0  0  0  0  0  0  0  0  0  0
    0.2407   -0.9706   41.5952 C   0  0  0  0  0  0  0  0  0  0  0  0
    1.6195   -1.2958   41.8767 C   0  0  0  0  0  0  0  0  0  0  0  0
    1.9162   -2.6816   42.2016 C   0  0  0  0  0  0  0  0  0  0  0  0
    0.9422   -3.6324   42.1156 C   0  0  0  0  0  0  0  0  0  0  0  0
    2.7441   -0.4311   42.1842 C   0  0  0  0  0  0  0  0  0  0  0  0
    2.6688    0.9411   41.8402 C   0  0  0  0  0  0  0  0  0  0  0  0
    3.9483   -0.9356   42.7556 C   0  0  0  0  0  0  0  0  0  0  0  0
    5.0473    0.0191   43.0589 C   0  0  0  0  0  0  0  0  0  0  0  0
    6.1016   -0.6036   43.7800 C   0  0  0  0  0  0  0  0  0  0  0  0
    5.9492   -1.9299   44.4084 C   0  0  0  0  0  0  0  0  0  0  0  0
    4.7992   -2.6710   44.1321 C   0  0  0  0  0  0  0  0  0  0  0  0
    3.8401   -2.1660   43.3831 C   0  0  0  0  0  0  0  0  0  0  0  0
  4  7  1  0
  7  8  2  0
  7  9  1  0
  1  2  2  0
  2  6  1  0
  6  5  2  0
  5  4  1  0
  4  3  2  0
  3  1  1  0
  9 10  2  0
 10 11  1  0
 11 12  2  0
 12 13  1  0
 13 14  2  0
 14  9  1  0
M  END
$$$$
O14757_PocketFlow_idx-in-all-generaetd-541
     RDKit          3D

 35 38  0  0  0  0  0  0  0  0999 V2000
    0.2881   -2.9111   42.4378 C   0  0  0  0  0  0  0  0  0  0  0  0
    1.1784   -3.4293   42.9321 C   0  0  0  0  0  0  0  0  0  0  0  0
    2.4696   -2.7231   42.8997 C   0  0  0  0  0  0  0  0  0  0  0  0
    2.5380   -1.5398   42.2487 C   0  0  0  0  0  0  0  0  0  0  0  0
    0.2254   -1.7181   41.6878 C   0  0  0  0  0  0  0  0  0  0  0  0
    1.4043   -1.0577   41.5785 C   0  0  0  0  0  0  0  0  0  0  0  0
    3.7757   -2.9600   43.6042 C   0  0  0  0  0  0  0  0  0  0  0  0
    4.6688   -1.9959   43.9194 C   0  0  0  0  0  0  0  0  0  0  0  0
    5.5996   -2.1265   44.8931 C   0  0  0  0  0  0  0  0  0  0  0  0
    5.7770   -3.3201   45.6061 C   0  0  0  0  0  0  0  0  0  0  0  0
    4.7785   -4.2785   45.3972 C   0  0  0  0  0  0  0  0  0  0  0  0
    3.7235   -4.1475   44.5242 C   0  0  0  0  0  0  0  0  0  0  0  0
   -0.8694   -1.1095   41.0734 N   0  0  0  0  0  0  0  0  0  0  0  0
    6.8459   -3.4530   46.5980 C   0  0  0  0  0  0  0  0  0  0  0  0
    8.1112   -2.9076   46.4025 C   0  0  0  0  0  0  0  0  0  0  0  0
    9.1445   -3.0164   47.2771 C   0  0  0  0  0  0  0  0  0  0  0  0
    6.6159   -3.8698   47.9459 C   0  0  0  0  0  0  0  0  0  0  0  0
    7.6118   -3.9675   48.9381 C   0  0  0  0  0  0  0  0  0  0  0  0
    7.3218   -4.4186   50.2706 C   0  0  0  0  0  0  0  0  0  0  0  0
    8.8988   -3.5060   48.5152 C   0  0  0  0  0  0  0  0  0  0  0  0
    8.0939   -4.6341   51.0715 O   0  0  0  0  0  0  0  0  0  0  0  0
    5.9826   -4.5321   50.4175 O   0  0  0  0  0  0  0  0  0  0  0  0
   -2.1592   -1.3265   41.5785 C   0  0  0  0  0  0  0  0  0  0  0  0
   -3.2042   -0.6820   40.7818 C   0  0  0  0  0  0  0  0  0  0  0  0
   -4.4542   -1.6889   39.8921 Br  0  0  0  0  0  0  0  0  0  0  0  0
   10.4890   -2.5149   46.9488 C   0  0  0  0  0  0  0  0  0  0  0  0
   10.6938   -1.1699   46.6830 C   0  0  0  0  0  0  0  0  0  0  0  0
   11.5515   -3.4799   46.9165 C   0  0  0  0  0  0  0  0  0  0  0  0
   12.7839   -3.0511   46.8616 C   0  0  0  0  0  0  0  0  0  0  0  0
   12.0288   -0.7154   46.5166 C   0  0  0  0  0  0  0  0  0  0  0  0
   13.0986   -1.6030   46.5300 C   0  0  0  0  0  0  0  0  0  0  0  0
   14.4599   -1.1303   46.3429 C   0  0  0  0  0  0  0  0  0  0  0  0
   14.7872   -1.3660   45.3889 F   0  0  0  0  0  0  0  0  0  0  0  0
   14.4244    0.2480   46.4571 F   0  0  0  0  0  0  0  0  0  0  0  0
   15.0740   -1.6531   47.3673 F   0  0  0  0  0  0  0  0  0  0  0  0
  3  7  1  0
  5 13  1  0
 10 14  1  0
 18 19  1  0
 19 21  1  0
 19 22  2  0
 13 23  1  0
 23 24  1  0
 24 25  1  0
 16 26  1  0
 31 32  1  0
 32 33  1  0
 32 34  1  0
 32 35  1  0
 26 27  2  0
 27 30  1  0
 30 31  2  0
 31 29  1  0
 29 28  2  0
 28 26  1  0
  1  2  2  0
  2  3  1  0
  3  4  2  0
  4  6  1  0
  6  5  2  0
  5  1  1  0
 14 15  2  0
 15 16  1  0
 16 20  2  0
 20 18  1  0
 18 17  2  0
 17 14  1  0
  7  8  2  0
  8  9  1  0
  9 10  2  0
 10 11  1  0
 11 12  2  0
 12  7  1  0
M  END
$$$$
O14757_PocketFlow_idx-in-all-generaetd-542
     RDKit          3D

 26 29  0  0  0  0  0  0  0  0999 V2000
    0.2881   -2.9111   42.4378 C   0  0  0  0  0  0  0  0  0  0  0  0
   -0.0650   -2.5021   41.5798 C   0  0  0  0  0  0  0  0  0  0  0  0
    1.5111   -2.4518   43.1047 C   0  0  0  0  0  0  0  0  0  0  0  0
    2.1892   -1.4341   42.4770 C   0  0  0  0  0  0  0  0  0  0  0  0
    1.5990   -0.8333   41.3694 C   0  0  0  0  0  0  0  0  0  0  0  0
    0.4724   -1.3248   40.8538 C   0  0  0  0  0  0  0  0  0  0  0  0
    3.3880   -1.0814   43.1788 C   0  0  0  0  0  0  0  0  0  0  0  0
    4.1216   -1.8140   44.0908 C   0  0  0  0  0  0  0  0  0  0  0  0
    5.2955   -1.3514   44.6322 C   0  0  0  0  0  0  0  0  0  0  0  0
    5.9732   -0.3323   44.0156 C   0  0  0  0  0  0  0  0  0  0  0  0
    4.1602    0.1167   42.7169 C   0  0  0  0  0  0  0  0  0  0  0  0
    5.3468    0.4396   43.2031 N   0  0  0  0  0  0  0  0  0  0  0  0
   -1.2610   -2.9176   40.9186 O   0  0  0  0  0  0  0  0  0  0  0  0
    5.9955   -2.2611   45.6332 C   0  0  0  0  0  0  0  0  0  0  0  0
    7.3182   -2.1445   45.9779 C   0  0  0  0  0  0  0  0  0  0  0  0
    7.9307   -3.0338   46.8423 C   0  0  0  0  0  0  0  0  0  0  0  0
    5.3321   -3.2805   46.3163 C   0  0  0  0  0  0  0  0  0  0  0  0
    5.8584   -4.0571   47.2805 C   0  0  0  0  0  0  0  0  0  0  0  0
    7.1968   -3.9634   47.5436 C   0  0  0  0  0  0  0  0  0  0  0  0
    7.8382   -4.8360   48.5506 C   0  0  0  0  0  0  0  0  0  0  0  0
    7.7382   -6.0750   48.4541 C   0  0  0  0  0  0  0  0  0  0  0  0
    8.1487   -6.9846   49.4432 C   0  0  0  0  0  0  0  0  0  0  0  0
    8.7608   -6.4458   50.5844 C   0  0  0  0  0  0  0  0  0  0  0  0
    8.8798   -5.0694   50.7045 C   0  0  0  0  0  0  0  0  0  0  0  0
    8.3830   -4.2101   49.7363 C   0  0  0  0  0  0  0  0  0  0  0  0
    3.5826   -3.4831   46.0834 Cl  0  0  0  0  0  0  0  0  0  0  0  0
  4  7  1  0
  2 13  1  0
  9 14  1  0
 19 20  1  0
 17 26  1  0
  7  8  2  0
  8  9  1  0
  9 10  2  0
 10 12  1  0
 12 11  2  0
 11  7  1  0
 20 21  2  0
 21 22  1  0
 22 23  2  0
 23 24  1  0
 24 25  2  0
 25 20  1  0
  1  2  2  0
  2  6  1  0
  6  5  2  0
  5  4  1  0
  4  3  2  0
  3  1  1  0
 14 15  2  0
 15 16  1  0
 16 19  2  0
 19 18  1  0
 18 17  2  0
 17 14  1  0
M  END
$$$$
O14757_PocketFlow_idx-in-all-generaetd-543
     RDKit          3D

 35 36  0  0  0  0  0  0  0  0999 V2000
    0.2881   -2.9111   42.4378 C   0  0  0  0  0  0  0  0  0  0  0  0
   -0.0650   -2.5020   41.5798 C   0  0  0  0  0  0  0  0  0  0  0  0
    1.6108   -3.5167   42.6657 C   0  0  0  0  0  0  0  0  0  0  0  0
    2.0262   -4.1022   43.9169 C   0  0  2  0  0  0  0  0  0  0  0  0
    0.9628   -4.5654   44.7705 C   0  0  0  0  0  0  0  0  0  0  0  0
    1.0204   -4.9444   45.6975 C   0  0  0  0  0  0  0  0  0  0  0  0
   -0.1919   -5.3588   46.4703 C   0  0  1  0  0  0  0  0  0  0  0  0
   -1.4240   -1.9629   41.3105 C   0  0  0  0  0  0  0  0  0  0  0  0
   -0.8274   -4.5162   47.0634 F   0  0  0  0  0  0  0  0  0  0  0  0
   -1.0959   -6.2817   45.7262 C   0  0  0  0  0  0  0  0  0  0  0  0
   -0.7638   -7.4986   46.0467 F   0  0  0  0  0  0  0  0  0  0  0  0
   -2.3456   -6.2388   46.3582 F   0  0  0  0  0  0  0  0  0  0  0  0
   -1.2562   -6.1692   44.5163 F   0  0  0  0  0  0  0  0  0  0  0  0
    3.3498   -4.1462   44.3151 C   0  0  0  0  0  0  0  0  0  0  0  0
    4.1735   -2.9257   44.1967 C   0  0  0  0  0  0  0  0  0  0  0  0
    5.2966   -2.6759   45.0066 C   0  0  0  0  0  0  0  0  0  0  0  0
    5.9922   -1.4508   44.9303 C   0  0  0  0  0  0  0  0  0  0  0  0
    5.6428   -0.5540   43.8918 C   0  0  0  0  0  0  0  0  0  0  0  0
    4.5645   -0.8245   43.0329 C   0  0  0  0  0  0  0  0  0  0  0  0
    3.8453   -1.9733   43.2297 C   0  0  0  0  0  0  0  0  0  0  0  0
    5.6744   -3.5803   46.1045 C   0  0  0  0  0  0  0  0  0  0  0  0
    6.9726   -3.6396   46.5441 C   0  0  0  0  0  0  0  0  0  0  0  0
    7.3560   -4.4206   47.6751 C   0  0  0  0  0  0  0  0  0  0  0  0
    6.3570   -5.1535   48.3476 C   0  0  0  0  0  0  0  0  0  0  0  0
    5.0366   -5.1112   47.7852 C   0  0  0  0  0  0  0  0  0  0  0  0
    4.7103   -4.3035   46.7711 C   0  0  0  0  0  0  0  0  0  0  0  0
   -1.7425   -0.9122   40.5103 C   0  0  0  0  0  0  0  0  0  0  0  0
   -3.1193   -0.4752   40.6262 C   0  0  0  0  0  0  0  0  0  0  0  0
    6.6244   -5.8543   49.3831 F   0  0  0  0  0  0  0  0  0  0  0  0
    4.2137    0.1398   42.1773 N   0  0  0  0  0  0  0  0  0  0  0  0
    8.7590   -4.3990   48.1262 C   0  0  0  0  0  0  0  0  0  0  0  0
    9.6810   -4.4219   47.0879 C   0  0  0  0  0  0  0  0  0  0  0  0
   10.9691   -4.5854   47.3732 C   0  0  0  0  0  0  0  0  0  0  0  0
   11.3701   -4.8106   48.6587 C   0  0  0  0  0  0  0  0  0  0  0  0
   10.4722   -4.8359   49.6672 C   0  0  0  0  0  0  0  0  0  0  0  0
  1  2  2  3
  1  3  1  0
  4  3  1  1
  4  5  1  0
  5  6  2  3
  6  7  1  0
  2  8  1  0
  7  9  1  6
  7 10  1  0
 10 11  1  0
 10 12  1  0
 10 13  1  0
  4 14  1  0
 14 15  1  0
 16 21  1  0
  8 27  2  3
 27 28  1  0
 24 29  1  0
 19 30  1  0
 23 31  1  0
 31 32  1  0
 32 33  2  3
 33 34  1  0
 34 35  2  0
 15 16  2  0
 16 17  1  0
 17 18  2  0
 18 19  1  0
 19 20  2  0
 20 15  1  0
 21 22  2  0
 22 23  1  0
 23 24  2  0
 24 25  1  0
 25 26  2  0
 26 21  1  0
M  END
$$$$
O14757_PocketFlow_idx-in-all-generaetd-544
     RDKit          3D

 21 23  0  0  0  0  0  0  0  0999 V2000
   -0.6395   -2.0713   41.4947 C   0  0  0  0  0  0  0  0  0  0  0  0
    0.1859   -1.1027   41.5970 C   0  0  0  0  0  0  0  0  0  0  0  0
   -0.2410   -3.3795   41.5297 C   0  0  0  0  0  0  0  0  0  0  0  0
    1.6125   -1.3641   41.8466 C   0  0  0  0  0  0  0  0  0  0  0  0
    1.9568   -2.7213   42.1561 C   0  0  0  0  0  0  0  0  0  0  0  0
    3.2405   -2.9356   42.7549 C   0  0  0  0  0  0  0  0  0  0  0  0
    1.0096   -3.6953   41.9519 C   0  0  0  0  0  0  0  0  0  0  0  0
    4.0634   -1.9089   43.1818 C   0  0  0  0  0  0  0  0  0  0  0  0
    5.1418   -2.1490   44.0325 C   0  0  0  0  0  0  0  0  0  0  0  0
    5.9934   -1.0886   44.4540 C   0  0  0  0  0  0  0  0  0  0  0  0
    7.1354   -1.4709   45.2086 C   0  0  0  0  0  0  0  0  0  0  0  0
    7.3840   -2.7108   45.8099 C   0  0  0  0  0  0  0  0  0  0  0  0
    6.2615   -3.6434   45.5056 C   0  0  0  0  0  0  0  0  0  0  0  0
    5.2450   -3.3837   44.7155 C   0  0  0  0  0  0  0  0  0  0  0  0
   -2.3203   -1.9373   41.0519 Cl  0  0  0  0  0  0  0  0  0  0  0  0
    8.4185   -2.9694   46.7080 C   0  0  0  0  0  0  0  0  0  0  0  0
    9.5677   -2.3519   46.6729 C   0  0  0  0  0  0  0  0  0  0  0  0
   10.6637   -2.6156   47.5339 C   0  0  0  0  0  0  0  0  0  0  0  0
   10.5347   -3.5977   48.4755 C   0  0  0  0  0  0  0  0  0  0  0  0
    8.3119   -4.0225   47.6861 C   0  0  0  0  0  0  0  0  0  0  0  0
    9.3469   -4.3454   48.5271 C   0  0  0  0  0  0  0  0  0  0  0  0
  5  6  1  0
  6  8  2  3
  8  9  1  0
  1 15  1  0
 12 16  1  0
  1  2  2  0
  2  4  1  0
  4  5  2  0
  5  7  1  0
  7  3  2  0
  3  1  1  0
  9 10  2  0
 10 11  1  0
 11 12  2  0
 12 13  1  0
 13 14  2  0
 14  9  1  0
 16 17  2  0
 17 18  1  0
 18 19  2  0
 19 21  1  0
 21 20  2  0
 20 16  1  0
M  END
$$$$
O14757_PocketFlow_idx-in-all-generaetd-545
     RDKit          3D

 28 29  0  0  0  0  0  0  0  0999 V2000
   -0.8794   -1.9236   41.9357 O   0  0  0  0  0  0  0  0  0  0  0  0
    0.3182   -2.2442   41.7074 C   0  0  0  0  0  0  0  0  0  0  0  0
    1.3036   -2.2273   42.6607 C   0  0  0  0  0  0  0  0  0  0  0  0
    2.6349   -1.9130   42.3734 C   0  0  0  0  0  0  0  0  0  0  0  0
    3.2669   -0.9912   43.0169 C   0  0  1  0  0  0  0  0  0  0  0  0
    4.2540   -1.4123   44.0689 C   0  0  0  0  0  0  0  0  0  0  0  0
    5.5501   -0.9127   44.1573 C   0  0  0  0  0  0  0  0  0  0  0  0
    3.8078   -2.2224   45.0943 C   0  0  0  0  0  0  0  0  0  0  0  0
    6.5064   -1.4228   45.0328 C   0  0  0  0  0  0  0  0  0  0  0  0
    4.8324   -2.7643   46.0528 C   0  0  0  0  0  0  0  0  0  0  0  0
    6.1450   -2.3353   45.9754 C   0  0  0  0  0  0  0  0  0  0  0  0
    7.1496   -2.9317   46.9035 C   0  0  0  0  0  0  0  0  0  0  0  0
    8.5322   -2.7519   46.7570 C   0  0  0  0  0  0  0  0  0  0  0  0
    9.0976   -1.6899   46.1947 C   0  0  0  0  0  0  0  0  0  0  0  0
    9.3600   -3.9436   46.6807 C   0  0  0  0  0  0  0  0  0  0  0  0
    8.9080   -5.1837   47.1449 C   0  0  0  0  0  0  0  0  0  0  0  0
   10.5278   -1.5350   46.2232 C   0  0  0  0  0  0  0  0  0  0  0  0
   10.7780   -3.8513   46.5563 C   0  0  0  0  0  0  0  0  0  0  0  0
   11.3373   -2.5909   46.3228 C   0  0  0  0  0  0  0  0  0  0  0  0
    0.6505   -2.2641   40.5369 O   0  0  0  0  0  0  0  0  0  0  0  0
    8.1714   -5.3274   48.2673 N   0  0  0  0  0  0  0  0  0  0  0  0
    7.1264   -6.1320   48.4621 C   0  0  0  0  0  0  0  0  0  0  0  0
    6.3022   -5.9223   49.6061 C   0  0  0  0  0  0  0  0  0  0  0  0
    5.5270   -6.7741   50.0260 O   0  0  0  0  0  0  0  0  0  0  0  0
    6.2374   -4.7133   50.1321 O   0  0  0  0  0  0  0  0  0  0  0  0
    3.2569    0.3667   42.6113 C   0  0  0  0  0  0  0  0  0  0  0  0
    9.5016   -6.2355   46.8134 O   0  0  0  0  0  0  0  0  0  0  0  0
   12.9519   -2.3137   45.9168 Cl  0  0  0  0  0  0  0  0  0  0  0  0
  1  2  1  0
  2  3  1  0
  3  4  2  3
  4  5  1  0
  5  6  1  0
 11 12  1  0
 12 13  1  0
 15 16  1  0
  2 20  2  0
 16 21  1  0
 21 22  1  0
 22 23  2  3
 23 24  1  0
 23 25  1  0
  5 26  1  6
 16 27  2  0
 19 28  1  0
  6  7  2  0
  7  9  1  0
  9 11  2  0
 11 10  1  0
 10  8  2  0
  8  6  1  0
 13 14  2  0
 14 17  1  0
 17 19  2  0
 19 18  1  0
 18 15  2  0
 15 13  1  0
M  END
$$$$
O14757_PocketFlow_idx-in-all-generaetd-546
     RDKit          3D

 18 20  0  0  0  0  0  0  0  0999 V2000
    0.2881   -2.9111   42.4378 C   0  0  0  0  0  0  0  0  0  0  0  0
   -0.0650   -2.5021   41.5798 C   0  0  0  0  0  0  0  0  0  0  0  0
    1.5111   -2.4518   43.1047 C   0  0  0  0  0  0  0  0  0  0  0  0
    2.1892   -1.4341   42.4770 C   0  0  0  0  0  0  0  0  0  0  0  0
    1.5990   -0.8333   41.3694 C   0  0  0  0  0  0  0  0  0  0  0  0
    0.4724   -1.3248   40.8538 C   0  0  0  0  0  0  0  0  0  0  0  0
    3.4529   -0.9652   43.0489 C   0  0  0  0  0  0  0  0  0  0  0  0
    4.0630   -1.6642   44.0811 C   0  0  0  0  0  0  0  0  0  0  0  0
    5.3121   -1.1810   44.5785 C   0  0  0  0  0  0  0  0  0  0  0  0
    5.8951   -2.0482   45.6337 C   0  0  0  0  0  0  0  0  0  0  0  0
    5.2766   -3.2443   46.0293 C   0  0  0  0  0  0  0  0  0  0  0  0
    4.0919   -3.6178   45.4322 C   0  0  0  0  0  0  0  0  0  0  0  0
    3.5145   -2.8901   44.4758 C   0  0  0  0  0  0  0  0  0  0  0  0
    2.2302   -3.3033   43.9810 C   0  0  0  0  0  0  0  0  0  0  0  0
    5.9807   -4.0439   47.0999 C   0  0  0  0  0  0  0  0  0  0  0  0
    5.2310   -4.9454   47.5860 F   0  0  0  0  0  0  0  0  0  0  0  0
    6.3953   -3.2496   48.1620 F   0  0  0  0  0  0  0  0  0  0  0  0
    7.1441   -4.5452   46.6012 F   0  0  0  0  0  0  0  0  0  0  0  0
 11 15  1  0
 15 16  1  0
 15 17  1  0
 15 18  1  0
  4  7  2  0
  7  8  1  0
 13 14  1  0
 14  3  2  0
  1  2  2  0
  2  6  1  0
  6  5  2  0
  5  4  1  0
  4  3  1  0
  3  1  1  0
  8  9  2  0
  9 10  1  0
 10 11  2  0
 11 12  1  0
 12 13  2  0
 13  8  1  0
M  END
$$$$
O14757_PocketFlow_idx-in-all-generaetd-547
     RDKit          3D

 32 34  0  0  0  0  0  0  0  0999 V2000
   -0.6395   -2.0713   41.4947 C   0  0  0  0  0  0  0  0  0  0  0  0
   -0.3332   -1.0550   41.5644 N   0  0  0  0  0  0  0  0  0  0  0  0
   -1.9394   -2.5096   41.3401 N   0  0  0  0  0  0  0  0  0  0  0  0
    0.3896   -3.1751   41.4035 C   0  0  0  0  0  0  0  0  0  0  0  0
    1.0144   -0.5596   41.6586 C   0  0  0  0  0  0  0  0  0  0  0  0
    2.0105   -1.4826   41.7523 C   0  0  0  0  0  0  0  0  0  0  0  0
    1.6809   -2.8186   41.6041 C   0  0  0  0  0  0  0  0  0  0  0  0
    3.3705   -1.0821   41.9615 C   0  0  0  0  0  0  0  0  0  0  0  0
    4.2632   -1.7987   42.8311 C   0  0  0  0  0  0  0  0  0  0  0  0
    5.3618   -1.1371   43.4771 C   0  0  0  0  0  0  0  0  0  0  0  0
    5.5264    0.2113   43.2083 C   0  0  0  0  0  0  0  0  0  0  0  0
    3.6525    0.3700   42.1709 C   0  0  0  0  0  0  0  0  0  0  0  0
    4.6996    0.8830   42.6969 N   0  0  0  0  0  0  0  0  0  0  0  0
    6.2626   -2.2326   44.4570 Cl  0  0  0  0  0  0  0  0  0  0  0  0
   -2.7444   -1.8513   40.3932 C   0  0  0  0  0  0  0  0  0  0  0  0
   -3.9830   -1.2679   40.8159 C   0  0  0  0  0  0  0  0  0  0  0  0
   -4.7524   -0.2835   39.6122 P   0  0  0  0  0  0  0  0  0  0  0  0
   -4.0350   -0.1616   38.7870 O   0  0  0  0  0  0  0  0  0  0  0  0
   -5.9032   -1.4196   39.4051 O   0  0  0  0  0  0  0  0  0  0  0  0
   -5.2730    0.8226   40.4489 O   0  0  0  0  0  0  0  0  0  0  0  0
    0.0176   -4.4219   41.3713 O   0  0  0  0  0  0  0  0  0  0  0  0
   -4.6353   -2.1953   41.3614 F   0  0  0  0  0  0  0  0  0  0  0  0
   -3.5519   -0.3890   41.9338 F   0  0  0  0  0  0  0  0  0  0  0  0
   -0.1309   -5.2654   42.1446 C   0  0  0  0  0  0  0  0  0  0  0  0
    0.2846   -5.0752   43.5317 C   0  0  0  0  0  0  0  0  0  0  0  0
    0.3021   -6.1254   44.4665 C   0  0  0  0  0  0  0  0  0  0  0  0
    0.8022   -5.8233   45.7870 C   0  0  0  0  0  0  0  0  0  0  0  0
    1.3301   -4.4966   45.9855 C   0  0  0  0  0  0  0  0  0  0  0  0
    1.2738   -3.5003   44.9667 C   0  0  0  0  0  0  0  0  0  0  0  0
    0.8071   -3.8335   43.8236 C   0  0  0  0  0  0  0  0  0  0  0  0
    0.7040   -7.0013   46.9829 Cl  0  0  0  0  0  0  0  0  0  0  0  0
   -0.2009   -7.2500   44.2054 O   0  0  0  0  0  0  0  0  0  0  0  0
  1  3  1  0
  6  8  1  0
 10 14  1  0
  3 15  1  0
 15 16  1  0
 16 17  1  0
 17 18  1  0
 17 19  1  0
 17 20  2  0
  4 21  1  0
 16 22  1  0
 16 23  1  0
 21 24  1  0
 27 31  1  0
 26 32  1  0
 24 25  1  0
 25 26  2  0
 26 27  1  0
 27 28  2  0
 28 29  1  0
 29 30  2  0
 30 25  1  0
  8  9  2  0
  9 10  1  0
 10 11  2  0
 11 13  1  0
 13 12  2  0
 12  8  1  0
  1  2  2  0
  2  5  1  0
  5  6  2  0
  6  7  1  0
  7  4  2  0
  4  1  1  0
M  END
$$$$
O14757_PocketFlow_idx-in-all-generaetd-548
     RDKit          3D

 35 36  0  0  0  0  0  0  0  0999 V2000
   -0.6395   -2.0713   41.4947 C   0  0  0  0  0  0  0  0  0  0  0  0
    0.1859   -1.1027   41.5970 C   0  0  0  0  0  0  0  0  0  0  0  0
    1.5836   -1.3270   41.4670 C   0  0  0  0  0  0  0  0  0  0  0  0
   -0.2462   -3.3905   41.2409 C   0  0  0  0  0  0  0  0  0  0  0  0
    2.0075   -2.6977   41.3341 C   0  0  0  0  0  0  0  0  0  0  0  0
    1.0655   -3.6470   41.1373 C   0  0  0  0  0  0  0  0  0  0  0  0
    2.4818   -0.3899   41.6447 F   0  0  0  0  0  0  0  0  0  0  0  0
   -2.0303   -1.8328   41.6063 O   0  0  0  0  0  0  0  0  0  0  0  0
   -2.6992   -1.3475   40.4971 C   0  0  0  0  0  0  0  0  0  0  0  0
   -4.0011   -2.0296   40.4323 C   0  0  0  0  0  0  0  0  0  0  0  0
   -4.1236   -3.0957   40.5626 O   0  0  0  0  0  0  0  0  0  0  0  0
   -4.9703   -1.2850   39.9365 O   0  0  0  0  0  0  0  0  0  0  0  0
   -0.2513    0.1643   41.8832 O   0  0  0  0  0  0  0  0  0  0  0  0
   -1.1834   -4.3378   41.1658 O   0  0  0  0  0  0  0  0  0  0  0  0
   -0.6005   -5.6183   41.6173 C   0  0  0  0  0  0  0  0  0  0  0  0
   -0.7973   -5.8168   43.1579 C   0  0  0  0  0  0  0  0  0  0  0  0
   -0.3597   -7.1898   43.6310 C   0  0  0  0  0  0  0  0  0  0  0  0
   -0.4598   -7.1548   45.1275 C   0  0  2  0  0  0  0  0  0  0  0  0
    0.6565   -7.2396   45.8537 C   0  0  0  0  0  0  0  0  0  0  0  0
    1.8041   -6.6379   45.2753 C   0  0  0  0  0  0  0  0  0  0  0  0
    1.9521   -5.2592   45.3295 C   0  0  0  0  0  0  0  0  0  0  0  0
    3.1308   -4.5963   44.9740 C   0  0  0  0  0  0  0  0  0  0  0  0
    3.3114   -3.1697   44.9888 C   0  0  0  0  0  0  0  0  0  0  0  0
    4.5454   -2.5765   44.9324 C   0  0  0  0  0  0  0  0  0  0  0  0
    4.7555   -1.4081   44.2903 C   0  0  0  0  0  0  0  0  0  0  0  0
    5.9658   -0.6941   44.4105 C   0  0  0  0  0  0  0  0  0  0  0  0
    7.0773   -1.3675   44.8803 C   0  0  0  0  0  0  0  0  0  0  0  0
    6.9560   -2.6356   45.4640 C   0  0  0  0  0  0  0  0  0  0  0  0
    5.6540   -3.2237   45.4248 C   0  0  0  0  0  0  0  0  0  0  0  0
   -1.6180   -8.0568   45.6133 C   0  0  0  0  0  0  0  0  0  0  0  0
   -2.7974   -8.0489   45.1737 C   0  0  0  0  0  0  0  0  0  0  0  0
   -3.8266   -8.8079   45.6848 C   0  0  0  0  0  0  0  0  0  0  0  0
   -5.1426   -8.7450   45.0964 C   0  0  0  0  0  0  0  0  0  0  0  0
   -5.3073   -7.9651   43.9702 C   0  0  0  0  0  0  0  0  0  0  0  0
   -4.2128   -7.3889   43.3005 C   0  0  0  0  0  0  0  0  0  0  0  0
  3  7  1  0
  1  8  1  0
  8  9  1  0
  9 10  1  0
 10 11  2  0
 10 12  1  0
  2 13  1  0
  4 14  1  0
 14 15  1  0
 15 16  1  0
 16 17  2  3
 17 18  1  0
 18 19  1  1
 19 20  1  0
 20 21  1  0
 21 22  2  3
 22 23  1  0
 18 30  1  0
 30 31  1  0
 31 32  2  3
 32 33  1  0
 33 34  2  3
 34 35  1  0
 23 24  1  0
 24 25  2  0
 25 26  1  0
 26 27  2  0
 27 28  1  0
 28 29  2  0
 29 24  1  0
  1  2  2  0
  2  3  1  0
  3  5  2  0
  5  6  1  0
  6  4  2  0
  4  1  1  0
M  END
$$$$
O14757_PocketFlow_idx-in-all-generaetd-549
     RDKit          3D

 18 20  0  0  0  0  0  0  0  0999 V2000
    0.2881   -2.9111   42.4378 C   0  0  0  0  0  0  0  0  0  0  0  0
    1.1784   -3.4293   42.9321 C   0  0  0  0  0  0  0  0  0  0  0  0
    2.4696   -2.7231   42.8997 C   0  0  0  0  0  0  0  0  0  0  0  0
    3.6320   -3.1839   43.6508 C   0  0  0  0  0  0  0  0  0  0  0  0
    3.5151   -4.3427   44.4594 C   0  0  0  0  0  0  0  0  0  0  0  0
    0.4213   -1.9819   41.4649 C   0  0  0  0  0  0  0  0  0  0  0  0
    2.2706   -4.9681   44.5907 C   0  0  1  0  0  0  0  0  0  0  0  0
    1.1873   -4.5313   43.9308 C   0  0  0  0  0  0  0  0  0  0  0  0
    1.5988   -1.2321   41.3765 C   0  0  0  0  0  0  0  0  0  0  0  0
    2.6658   -1.5995   42.1142 C   0  0  1  0  0  0  0  0  0  0  0  0
    4.8655   -2.3971   43.6707 C   0  0  0  0  0  0  0  0  0  0  0  0
    4.8063   -1.0244   43.4836 C   0  0  0  0  0  0  0  0  0  0  0  0
    3.8882   -0.4445   42.5744 C   0  0  0  0  0  0  0  0  0  0  0  0
    2.1597   -6.1988   45.4331 C   0  0  0  0  0  0  0  0  0  0  0  0
    3.2849   -6.4618   45.9362 F   0  0  0  0  0  0  0  0  0  0  0  0
    1.3224   -5.9515   46.4399 F   0  0  0  0  0  0  0  0  0  0  0  0
    1.6600   -7.1936   44.6153 F   0  0  0  0  0  0  0  0  0  0  0  0
    5.8853   -0.2384   43.6451 N   0  0  0  0  0  0  0  0  0  0  0  0
  1  2  1  0
  2  3  2  0
  3  4  1  0
  4  5  2  0
  1  6  2  0
  5  7  1  0
  2  8  1  0
  7  8  1  0
  6  9  1  0
  3 10  1  0
 10  9  1  1
  4 11  1  0
 11 12  1  0
 10 13  1  0
 12 13  2  0
  7 14  1  6
 14 15  1  0
 14 16  1  0
 14 17  1  0
 12 18  1  0
M  END
$$$$
O14757_PocketFlow_idx-in-all-generaetd-550
     RDKit          3D

 17 19  0  0  0  0  0  0  0  0999 V2000
    0.2881   -2.9111   42.4378 C   0  0  0  0  0  0  0  0  0  0  0  0
    1.1784   -3.4293   42.9321 C   0  0  0  0  0  0  0  0  0  0  0  0
    2.4507   -2.7243   42.9621 C   0  0  0  0  0  0  0  0  0  0  0  0
    3.6020   -3.2282   43.7398 C   0  0  2  0  0  0  0  0  0  0  0  0
    3.4876   -4.4021   44.5035 C   0  0  0  0  0  0  0  0  0  0  0  0
    2.2359   -5.0120   44.5568 C   0  0  1  0  0  0  0  0  0  0  0  0
    2.0352   -6.1105   45.4480 C   0  0  0  0  0  0  0  0  0  0  0  0
    1.1907   -4.5385   43.8855 C   0  0  0  0  0  0  0  0  0  0  0  0
    0.2200   -1.5967   41.8052 C   0  0  0  0  0  0  0  0  0  0  0  0
    1.4300   -0.8859   41.7460 C   0  0  0  0  0  0  0  0  0  0  0  0
    2.5555   -1.4133   42.4233 C   0  0  0  0  0  0  0  0  0  0  0  0
    1.5560   -7.3583   44.9237 C   0  0  0  0  0  0  0  0  0  0  0  0
    3.6169   -0.4521   42.5872 C   0  0  0  0  0  0  0  0  0  0  0  0
    4.8316   -0.8962   43.1011 N   0  0  0  0  0  0  0  0  0  0  0  0
    4.8891   -2.0681   43.8231 C   0  0  2  0  0  0  0  0  0  0  0  0
    3.7327    0.6633   42.0063 O   0  0  0  0  0  0  0  0  0  0  0  0
    5.8682   -2.5564   44.4135 F   0  0  0  0  0  0  0  0  0  0  0  0
  3  4  1  0
  4  5  1  1
  5  6  1  0
  6  7  1  1
  2  8  1  0
  6  8  1  0
  7 12  1  0
 11 13  1  0
 13 14  1  0
  4 15  1  0
 14 15  1  0
 13 16  2  0
 15 17  1  6
  1  2  2  0
  2  3  1  0
  3 11  2  0
 11 10  1  0
 10  9  2  0
  9  1  1  0
M  END
$$$$
O14757_PocketFlow_idx-in-all-generaetd-551
     RDKit          3D

 28 32  0  0  0  0  0  0  0  0999 V2000
    0.2881   -2.9111   42.4378 C   0  0  0  0  0  0  0  0  0  0  0  0
   -0.0650   -2.5020   41.5798 C   0  0  0  0  0  0  0  0  0  0  0  0
    0.3903   -4.2958   42.8988 C   0  0  0  0  0  0  0  0  0  0  0  0
    0.9283   -4.7375   44.0590 C   0  0  0  0  0  0  0  0  0  0  0  0
    1.8430   -3.7864   44.6834 C   0  0  0  0  0  0  0  0  0  0  0  0
    0.0683   -1.0389   41.2168 C   0  0  0  0  0  0  0  0  0  0  0  0
    2.1679   -2.6058   44.0572 C   0  0  0  0  0  0  0  0  0  0  0  0
    1.4762   -2.1784   42.9196 C   0  0  0  0  0  0  0  0  0  0  0  0
    1.5907   -0.9250   42.4657 N   0  0  0  0  0  0  0  0  0  0  0  0
    2.8027   -0.1790   42.8052 C   0  0  0  0  0  0  0  0  0  0  0  0
    0.8386   -0.3943   41.4414 C   0  0  0  0  0  0  0  0  0  0  0  0
    4.0282   -0.7935   43.0619 C   0  0  0  0  0  0  0  0  0  0  0  0
    5.2694   -0.0286   43.0636 C   0  0  0  0  0  0  0  0  0  0  0  0
    0.6999   -6.0348   44.6068 C   0  0  0  0  0  0  0  0  0  0  0  0
    1.5465   -6.6813   45.0219 O   0  0  0  0  0  0  0  0  0  0  0  0
   -0.5718   -6.3332   44.8823 O   0  0  0  0  0  0  0  0  0  0  0  0
    2.7934    1.0975   42.8262 O   0  0  0  0  0  0  0  0  0  0  0  0
   -0.9299   -7.6588   44.7622 C   0  0  0  0  0  0  0  0  0  0  0  0
   -2.4087   -7.6690   44.3968 C   0  0  0  0  0  0  0  0  0  0  0  0
   -3.1349   -8.3911   45.3887 C   0  0  0  0  0  0  0  0  0  0  0  0
   -4.5950   -8.3986   45.1464 C   0  0  0  0  0  0  0  0  0  0  0  0
   -5.0248   -7.9747   43.8657 C   0  0  0  0  0  0  0  0  0  0  0  0
   -4.1127   -7.5513   42.8633 C   0  0  0  0  0  0  0  0  0  0  0  0
   -2.8027   -7.4429   43.2146 C   0  0  0  0  0  0  0  0  0  0  0  0
    6.2847   -0.8467   43.6006 N   0  0  0  0  0  0  0  0  0  0  0  0
    5.9436   -2.0017   44.3883 C   0  0  0  0  0  0  0  0  0  0  0  0
    4.2746   -1.9887   43.8965 C   0  0  0  0  0  0  0  0  0  0  0  0
    3.5940   -2.7766   44.2373 N   0  0  0  0  0  0  0  0  0  0  0  0
  1  2  1  0
  2  6  1  0
  8  9  1  0
  9 10  1  0
  9 11  1  0
 10 12  1  0
 12 13  2  0
  4 14  1  0
 14 15  2  0
 14 16  1  0
 10 17  2  0
 16 18  1  0
 18 19  1  0
 13 25  1  0
 25 26  2  0
 12 27  1  0
 26 27  1  0
  7 28  1  0
 27 28  1  0
  6 11  1  0
  1  3  2  0
  3  4  1  0
  4  5  2  0
  5  7  1  0
  7  8  2  0
  8  1  1  0
 19 20  2  0
 20 21  1  0
 21 22  2  0
 22 23  1  0
 23 24  2  0
 24 19  1  0
M  END
$$$$
O14757_PocketFlow_idx-in-all-generaetd-552
     RDKit          3D

 13 14  0  0  0  0  0  0  0  0999 V2000
    0.2881   -2.9111   42.4378 C   0  0  0  0  0  0  0  0  0  0  0  0
   -0.0650   -2.5020   41.5798 C   0  0  0  0  0  0  0  0  0  0  0  0
    1.5111   -2.4518   43.1047 C   0  0  0  0  0  0  0  0  0  0  0  0
    2.2161   -3.1002   44.2235 C   0  0  0  0  0  0  0  0  0  0  0  0
    3.4509   -2.7433   44.6316 C   0  0  0  0  0  0  0  0  0  0  0  0
    4.1086   -1.7199   43.9236 C   0  0  0  0  0  0  0  0  0  0  0  0
    3.4504   -1.0922   42.8410 C   0  0  0  0  0  0  0  0  0  0  0  0
    2.2723   -1.5008   42.4730 C   0  0  0  0  0  0  0  0  0  0  0  0
    0.5504   -1.3378   40.8846 C   0  0  0  0  0  0  0  0  0  0  0  0
    1.7513   -0.9006   41.3359 C   0  0  0  0  0  0  0  0  0  0  0  0
    1.5099   -4.2511   44.8996 C   0  0  0  0  0  0  0  0  0  0  0  0
    2.1421   -5.2548   45.4639 C   0  0  0  0  0  0  0  0  0  0  0  0
    3.5882   -4.9898   45.7318 C   0  0  0  0  0  0  0  0  0  0  0  0
  4 11  1  0
 11 12  2  3
 12 13  1  0
  1  2  2  0
  2  9  1  0
  9 10  2  0
 10  8  1  0
  3  1  1  0
  3  4  2  0
  4  5  1  0
  5  6  2  0
  6  7  1  0
  7  8  2  0
  8  3  1  0
M  END
$$$$
O14757_PocketFlow_idx-in-all-generaetd-553
     RDKit          3D

 35 37  0  0  0  0  0  0  0  0999 V2000
   -0.6395   -2.0713   41.4947 C   0  0  0  0  0  0  0  0  0  0  0  0
    0.1859   -1.1027   41.5970 C   0  0  0  0  0  0  0  0  0  0  0  0
    1.5836   -1.3270   41.4669 C   0  0  0  0  0  0  0  0  0  0  0  0
   -0.2462   -3.3905   41.2409 C   0  0  0  0  0  0  0  0  0  0  0  0
    2.5788   -0.3160   41.7511 C   0  0  0  0  0  0  0  0  0  0  0  0
    3.8805   -0.6481   42.0316 C   0  0  2  0  0  0  0  0  0  0  0  0
    4.1140   -1.7786   42.9289 C   0  0  0  0  0  0  0  0  0  0  0  0
    3.6402   -2.0432   43.9582 C   0  0  0  0  0  0  0  0  0  0  0  0
    3.9867   -3.3567   44.6558 C   0  0  0  0  0  0  0  0  0  0  0  0
    5.0512   -3.2830   45.4854 C   0  0  0  0  0  0  0  0  0  0  0  0
    5.9216   -2.2070   45.6792 C   0  0  0  0  0  0  0  0  0  0  0  0
    7.1193   -2.4523   46.4181 C   0  0  0  0  0  0  0  0  0  0  0  0
    8.2726   -1.6169   46.3586 C   0  0  0  0  0  0  0  0  0  0  0  0
    1.1484   -3.6400   41.2015 C   0  0  0  0  0  0  0  0  0  0  0  0
    2.0032   -2.6360   41.3549 C   0  0  0  0  0  0  0  0  0  0  0  0
    9.4491   -2.0095   46.9821 C   0  0  0  0  0  0  0  0  0  0  0  0
    9.5317   -3.1833   47.6516 C   0  0  0  0  0  0  0  0  0  0  0  0
    8.4415   -4.0615   47.6349 C   0  0  0  0  0  0  0  0  0  0  0  0
    7.2524   -3.6597   46.9940 C   0  0  0  0  0  0  0  0  0  0  0  0
    3.4505   -4.5129   44.2266 C   0  0  0  0  0  0  0  0  0  0  0  0
    3.5560   -5.6642   45.0947 C   0  0  0  0  0  0  0  0  0  0  0  0
    2.7054   -6.7632   44.7485 C   0  0  0  0  0  0  0  0  0  0  0  0
   -2.0189   -1.8357   41.5327 O   0  0  0  0  0  0  0  0  0  0  0  0
    1.4968   -6.4830   44.1307 C   0  0  0  0  0  0  0  0  0  0  0  0
    0.3332   -7.1768   44.5067 C   0  0  0  0  0  0  0  0  0  0  0  0
   -0.7594   -6.6756   44.8340 C   0  0  0  0  0  0  0  0  0  0  0  0
   -1.9926   -7.4960   45.0867 C   0  0  0  0  0  0  0  0  0  0  0  0
   -2.6921   -7.9441   43.9281 C   0  0  0  0  0  0  0  0  0  0  0  0
   -4.0814   -8.1349   44.1556 C   0  0  0  0  0  0  0  0  0  0  0  0
   -4.4929   -9.2804   44.5030 C   0  0  0  0  0  0  0  0  0  0  0  0
   -5.9351   -9.5122   44.5938 C   0  0  0  0  0  0  0  0  0  0  0  0
   -6.7804   -8.4818   44.1244 C   0  0  0  0  0  0  0  0  0  0  0  0
   -6.3053   -7.2420   43.7415 C   0  0  0  0  0  0  0  0  0  0  0  0
   -4.8653   -7.1137   43.6649 C   0  0  0  0  0  0  0  0  0  0  0  0
    4.9140    0.3776   41.9743 C   0  0  0  0  0  0  0  0  0  0  0  0
  3  5  1  0
  5  6  1  0
  6  7  1  0
  7  8  1  0
  8  9  1  0
  9 10  2  3
 10 11  1  0
  9 20  1  0
 20 21  2  3
 21 22  1  0
  1 23  1  0
 22 24  1  0
 24 25  2  3
 25 26  1  0
 26 27  1  0
 27 28  1  0
 28 29  1  0
  6 35  1  1
 11 12  1  0
  1  2  2  0
  2  3  1  0
  3 15  2  0
 15 14  1  0
 14  4  2  0
  4  1  1  0
 29 30  2  0
 30 31  1  0
 31 32  2  0
 32 33  1  0
 33 34  2  0
 34 29  1  0
 12 13  2  0
 13 16  1  0
 16 17  2  0
 17 18  1  0
 18 19  2  0
 19 12  1  0
M  END
$$$$
O14757_PocketFlow_idx-in-all-generaetd-554
     RDKit          3D

 35 37  0  0  0  0  0  0  0  0999 V2000
   -0.6395   -2.0713   41.4947 C   0  0  0  0  0  0  0  0  0  0  0  0
   -0.2671   -3.2464   41.6546 C   0  0  0  0  0  0  0  0  0  0  0  0
    0.2277   -0.9875   41.6495 C   0  0  0  0  0  0  0  0  0  0  0  0
    1.6284   -1.2752   41.8841 C   0  0  0  0  0  0  0  0  0  0  0  0
    1.8971   -2.6873   42.1685 C   0  0  0  0  0  0  0  0  0  0  0  0
    0.9380   -3.6379   42.0922 C   0  0  0  0  0  0  0  0  0  0  0  0
    2.5765   -0.2838   42.1328 C   0  0  0  0  0  0  0  0  0  0  0  0
    3.8437   -0.6218   42.5176 N   0  0  0  0  0  0  0  0  0  0  0  0
    4.4726   -0.3119   43.5402 C   0  0  0  0  0  0  0  0  0  0  0  0
    5.8211   -0.9507   43.7916 C   0  0  0  0  0  0  0  0  0  0  0  0
    6.2383   -1.1263   45.1305 C   0  0  0  0  0  0  0  0  0  0  0  0
    7.3285   -2.1166   45.3289 C   0  0  0  0  0  0  0  0  0  0  0  0
   -2.0172   -2.0003   41.1437 N   0  0  0  0  0  0  0  0  0  0  0  0
    7.4037   -2.8663   46.5325 C   0  0  0  0  0  0  0  0  0  0  0  0
    6.2359   -3.5776   46.9632 C   0  0  0  0  0  0  0  0  0  0  0  0
    6.2455   -4.3046   48.1744 C   0  0  0  0  0  0  0  0  0  0  0  0
    7.4280   -4.3078   48.9290 C   0  0  0  0  0  0  0  0  0  0  0  0
    8.5663   -3.6927   48.5467 C   0  0  0  0  0  0  0  0  0  0  0  0
    8.5737   -2.9402   47.3526 C   0  0  0  0  0  0  0  0  0  0  0  0
    2.3543    0.9180   41.9357 O   0  0  0  0  0  0  0  0  0  0  0  0
    4.9219   -3.5441   46.3775 C   0  0  0  0  0  0  0  0  0  0  0  0
    4.1524   -4.6809   46.2361 C   0  0  0  0  0  0  0  0  0  0  0  0
    2.9904   -4.6110   45.4617 C   0  0  0  0  0  0  0  0  0  0  0  0
    2.1720   -5.7138   45.3711 C   0  0  0  0  0  0  0  0  0  0  0  0
    0.8183   -5.5650   45.0627 C   0  0  0  0  0  0  0  0  0  0  0  0
   -0.0050   -6.6966   44.9871 C   0  0  0  0  0  0  0  0  0  0  0  0
   -1.3683   -6.5408   44.6392 C   0  0  0  0  0  0  0  0  0  0  0  0
   -2.0748   -7.8975   44.7194 C   0  0  0  0  0  0  0  0  0  0  0  0
   -2.8516   -8.0566   45.6299 C   0  0  0  0  0  0  0  0  0  0  0  0
   -3.8393   -9.1961   45.4265 C   0  0  0  0  0  0  0  0  0  0  0  0
   -4.6409   -9.0742   44.2632 C   0  0  0  0  0  0  0  0  0  0  0  0
   -5.7763   -9.8591   44.0476 C   0  0  0  0  0  0  0  0  0  0  0  0
   -6.6814   -9.6357   44.8536 C   0  0  0  0  0  0  0  0  0  0  0  0
   -6.2830   -9.8570   46.3268 C   0  0  0  0  0  0  0  0  0  0  0  0
   -5.0309   -9.0045   46.5990 C   0  0  0  0  0  0  0  0  0  0  0  0
  4  7  1  0
  7  8  1  0
  8  9  1  0
  9 10  2  3
 10 11  1  0
 11 12  1  0
  1 13  1  0
 12 14  1  0
  7 20  2  0
 15 21  1  0
 21 22  1  0
 22 23  2  3
 23 24  1  0
 24 25  2  3
 25 26  1  0
 26 27  2  3
 27 28  1  0
 28 29  1  0
 29 30  1  0
 30 31  1  0
 31 32  1  0
 32 33  1  0
 33 34  1  0
 30 35  1  0
 34 35  1  0
 14 15  1  0
 15 16  2  0
 16 17  1  0
 17 18  2  0
 18 19  1  0
 19 14  2  0
  1  2  2  0
  2  6  1  0
  6  5  2  0
  5  4  1  0
  4  3  2  0
  3  1  1  0
M  END
$$$$
O14757_PocketFlow_idx-in-all-generaetd-555
     RDKit          3D

 24 26  0  0  0  0  0  0  0  0999 V2000
   -0.6395   -2.0713   41.4947 C   0  0  0  0  0  0  0  0  0  0  0  0
    0.1859   -1.1027   41.5970 C   0  0  0  0  0  0  0  0  0  0  0  0
    1.5836   -1.3270   41.4670 C   0  0  0  0  0  0  0  0  0  0  0  0
    2.3803   -1.4174   42.6857 C   0  0  0  0  0  0  0  0  0  0  0  0
    3.6730   -0.8928   42.6924 C   0  0  0  0  0  0  0  0  0  0  0  0
    3.9416    0.2839   42.4870 C   0  0  0  0  0  0  0  0  0  0  0  0
   -2.0408   -1.8862   41.2221 C   0  0  0  0  0  0  0  0  0  0  0  0
    4.6455   -1.6548   43.6030 C   0  0  1  0  0  0  0  0  0  0  0  0
    5.7010   -1.0589   44.2179 C   0  0  0  0  0  0  0  0  0  0  0  0
    6.2622   -1.8346   45.3825 C   0  0  0  0  0  0  0  0  0  0  0  0
    5.6028   -2.7256   45.9935 C   0  0  2  0  0  0  0  0  0  0  0  0
    6.0446   -3.4217   47.1498 C   0  0  0  0  0  0  0  0  0  0  0  0
    5.1386   -4.3655   47.8096 C   0  0  0  0  0  0  0  0  0  0  0  0
    4.3926   -3.0531   43.8917 C   0  0  0  0  0  0  0  0  0  0  0  0
    4.8511   -3.5603   45.1400 C   0  0  0  0  0  0  0  0  0  0  0  0
   -2.7581   -2.9475   40.6584 C   0  0  0  0  0  0  0  0  0  0  0  0
    7.3896   -3.3747   47.6453 C   0  0  0  0  0  0  0  0  0  0  0  0
    7.8906   -4.0696   48.7248 C   0  0  0  0  0  0  0  0  0  0  0  0
    5.7144   -5.0286   49.0266 C   0  0  0  0  0  0  0  0  0  0  0  0
    7.0167   -4.9182   49.4171 C   0  0  0  0  0  0  0  0  0  0  0  0
    9.2335   -3.8572   49.1941 C   0  0  0  0  0  0  0  0  0  0  0  0
   10.0094   -3.3863   48.6617 N   0  0  0  0  0  0  0  0  0  0  0  0
    9.9787   -3.0065   47.5212 C   0  0  0  0  0  0  0  0  0  0  0  0
    8.6043   -2.7670   46.9478 C   0  0  0  0  0  0  0  0  0  0  0  0
  1  2  1  0
  2  3  1  0
  3  4  1  0
  4  5  1  0
  5  6  2  0
  1  7  2  3
  8  5  1  1
  8  9  1  0
  9 10  1  0
 10 11  1  0
 11 12  1  6
  8 14  1  0
 11 15  1  0
 14 15  1  0
  7 16  1  0
 12 13  2  0
 13 19  1  0
 19 20  2  0
 20 18  1  0
 17 12  1  0
 17 18  2  0
 18 21  1  0
 21 22  2  0
 22 23  1  0
 23 24  2  0
 24 17  1  0
M  END
$$$$
O14757_PocketFlow_idx-in-all-generaetd-556
     RDKit          3D

 11 11  0  0  0  0  0  0  0  0999 V2000
   -0.6395   -2.0713   41.4947 C   0  0  0  0  0  0  0  0  0  0  0  0
   -0.2671   -3.2464   41.6546 C   0  0  0  0  0  0  0  0  0  0  0  0
    0.2407   -0.9706   41.5952 C   0  0  0  0  0  0  0  0  0  0  0  0
    1.6195   -1.2958   41.8767 C   0  0  0  0  0  0  0  0  0  0  0  0
    1.9162   -2.6816   42.2016 C   0  0  0  0  0  0  0  0  0  0  0  0
    0.9422   -3.6324   42.1156 C   0  0  0  0  0  0  0  0  0  0  0  0
    2.6088   -0.2775   42.1300 C   0  0  0  0  0  0  0  0  0  0  0  0
    3.9059   -0.5876   42.5995 C   0  0  0  0  0  0  0  0  0  0  0  0
    4.1036   -1.8148   43.2659 C   0  0  0  0  0  0  0  0  0  0  0  0
    5.2154   -2.1376   44.0733 C   0  0  0  0  0  0  0  0  0  0  0  0
    6.0803   -1.1116   44.4834 C   0  0  0  0  0  0  0  0  0  0  0  0
  4  7  1  0
  7  8  2  3
  8  9  1  0
  9 10  1  0
 10 11  2  0
  1  2  2  0
  2  6  1  0
  6  5  2  0
  5  4  1  0
  4  3  2  0
  3  1  1  0
M  END
$$$$
O14757_PocketFlow_idx-in-all-generaetd-557
     RDKit          3D

  6  6  0  0  0  0  0  0  0  0999 V2000
   -0.6395   -2.0713   41.4947 C   0  0  0  0  0  0  0  0  0  0  0  0
   -0.2671   -3.2464   41.6546 C   0  0  0  0  0  0  0  0  0  0  0  0
    0.2407   -0.9706   41.5952 C   0  0  0  0  0  0  0  0  0  0  0  0
    1.6195   -1.2958   41.8767 C   0  0  0  0  0  0  0  0  0  0  0  0
    1.9162   -2.6816   42.2016 C   0  0  0  0  0  0  0  0  0  0  0  0
    0.9422   -3.6324   42.1156 C   0  0  0  0  0  0  0  0  0  0  0  0
  1  2  2  0
  2  6  1  0
  6  5  2  0
  5  4  1  0
  4  3  2  0
  3  1  1  0
M  END
$$$$
O14757_PocketFlow_idx-in-all-generaetd-558
     RDKit          3D

 35 37  0  0  0  0  0  0  0  0999 V2000
   -0.6395   -2.0713   41.4947 C   0  0  0  0  0  0  0  0  0  0  0  0
    0.6719   -2.2449   41.7518 C   0  0  0  0  0  0  0  0  0  0  0  0
    1.5951   -1.1948   41.6106 C   0  0  0  0  0  0  0  0  0  0  0  0
    2.8936   -1.2860   42.2441 C   0  0  0  0  0  0  0  0  0  0  0  0
    3.7940   -0.2219   42.2897 C   0  0  0  0  0  0  0  0  0  0  0  0
   -1.5784   -3.1018   41.3985 C   0  0  0  0  0  0  0  0  0  0  0  0
    4.9967   -0.3723   43.0615 C   0  0  0  0  0  0  0  0  0  0  0  0
    5.2691   -1.5132   43.7867 C   0  0  0  0  0  0  0  0  0  0  0  0
    4.3008   -2.5888   43.7317 C   0  0  0  0  0  0  0  0  0  0  0  0
    4.4951   -3.7191   44.4667 C   0  0  0  0  0  0  0  0  0  0  0  0
    3.1446   -2.4258   42.9621 C   0  0  0  0  0  0  0  0  0  0  0  0
   -0.9287   -4.3506   41.3844 N   0  0  0  0  0  0  0  0  0  0  0  0
    4.0030   -4.1390   45.4300 N   0  0  0  0  0  0  0  0  0  0  0  0
    3.4350   -5.3604   45.7559 C   0  0  0  0  0  0  0  0  0  0  0  0
    2.0675   -5.5479   45.3424 C   0  0  0  0  0  0  0  0  0  0  0  0
    1.1673   -4.5580   45.4572 C   0  0  0  0  0  0  0  0  0  0  0  0
    1.5992   -6.8180   44.9021 C   0  0  0  0  0  0  0  0  0  0  0  0
    0.2688   -6.9573   44.4380 C   0  0  0  0  0  0  0  0  0  0  0  0
   -0.2382   -4.6218   45.1544 C   0  0  0  0  0  0  0  0  0  0  0  0
   -0.5777   -5.8952   44.6279 C   0  0  0  0  0  0  0  0  0  0  0  0
   -2.7597   -3.0004   41.0313 F   0  0  0  0  0  0  0  0  0  0  0  0
    6.6931   -1.6187   44.6738 Cl  0  0  0  0  0  0  0  0  0  0  0  0
    4.1433   -6.2782   46.2540 O   0  0  0  0  0  0  0  0  0  0  0  0
   -1.1233   -0.7978   41.4756 O   0  0  0  0  0  0  0  0  0  0  0  0
    1.3417   -0.1588   40.8911 O   0  0  0  0  0  0  0  0  0  0  0  0
    4.0151   -3.2231   46.6878 C   0  0  0  0  0  0  0  0  0  0  0  0
   -1.6598   -6.4302   45.4090 O   0  0  0  0  0  0  0  0  0  0  0  0
   -2.2048   -7.6181   45.2758 C   0  0  0  0  0  0  0  0  0  0  0  0
   -3.4276   -7.7288   44.7953 C   0  0  0  0  0  0  0  0  0  0  0  0
   -3.9693   -9.0231   44.3864 C   0  0  0  0  0  0  0  0  0  0  0  0
   -3.7907  -10.0573   45.3253 C   0  0  0  0  0  0  0  0  0  0  0  0
   -2.5657   -9.9277   46.1091 C   0  0  0  0  0  0  0  0  0  0  0  0
   -1.7476   -8.7032   46.1017 C   0  0  0  0  0  0  0  0  0  0  0  0
   -5.2022   -9.0255   43.5918 C   0  0  0  0  0  0  0  0  0  0  0  0
   -6.1100   -9.9335   43.6152 C   0  0  0  0  0  0  0  0  0  0  0  0
  1  2  1  0
  2  3  1  0
  3  4  1  0
  1  6  2  3
  9 10  1  0
  6 12  1  0
 10 13  1  0
 13 14  1  0
 14 15  1  0
  6 21  1  0
  8 22  1  0
 14 23  2  0
  1 24  1  0
  3 25  2  0
 13 26  1  0
 20 27  1  0
 27 28  1  0
 30 34  1  0
 34 35  2  0
 28 29  2  0
 29 30  1  0
 30 31  2  0
 31 32  1  0
 32 33  2  0
 33 28  1  0
  4  5  2  0
  5  7  1  0
  7  8  2  0
  8  9  1  0
  9 11  2  0
 11  4  1  0
 15 16  2  0
 16 19  1  0
 19 20  2  0
 20 18  1  0
 18 17  2  0
 17 15  1  0
M  END
$$$$
O14757_PocketFlow_idx-in-all-generaetd-559
     RDKit          3D

 15 15  0  0  0  0  0  0  0  0999 V2000
   -0.6395   -2.0713   41.4947 C   0  0  0  0  0  0  0  0  0  0  0  0
    0.6719   -2.2449   41.7518 C   0  0  1  0  0  0  0  0  0  0  0  0
    1.5951   -1.1948   41.6106 C   0  0  0  0  0  0  0  0  0  0  0  0
    2.8936   -1.2860   42.2441 C   0  0  0  0  0  0  0  0  0  0  0  0
    3.7940   -0.2219   42.2897 C   0  0  0  0  0  0  0  0  0  0  0  0
   -1.5413   -3.1234   41.4338 C   0  0  0  0  0  0  0  0  0  0  0  0
    5.0120   -0.3694   42.9827 C   0  0  0  0  0  0  0  0  0  0  0  0
    5.3025   -1.4947   43.7553 C   0  0  0  0  0  0  0  0  0  0  0  0
    4.3310   -2.5622   43.7178 C   0  0  0  0  0  0  0  0  0  0  0  0
    3.1286   -2.4010   43.0159 C   0  0  0  0  0  0  0  0  0  0  0  0
   -0.9010   -4.3604   41.4446 N   0  0  0  0  0  0  0  0  0  0  0  0
    4.5605   -3.7962   44.4651 C   0  0  0  0  0  0  0  0  0  0  0  0
    5.5871   -3.9071   45.9381 Br  0  0  0  0  0  0  0  0  0  0  0  0
    0.8241   -3.0839   42.8013 F   0  0  0  0  0  0  0  0  0  0  0  0
   -1.1510   -0.8155   41.3808 O   0  0  0  0  0  0  0  0  0  0  0  0
  1  2  1  0
  2  3  1  0
  3  4  1  0
  1  6  2  3
  6 11  1  0
  9 12  1  0
 12 13  1  0
  2 14  1  1
  1 15  1  0
  4  5  2  0
  5  7  1  0
  7  8  2  0
  8  9  1  0
  9 10  2  0
 10  4  1  0
M  END
$$$$
O14757_PocketFlow_idx-in-all-generaetd-560
     RDKit          3D

 17 19  0  0  0  0  0  0  0  0999 V2000
    0.2881   -2.9111   42.4378 C   0  0  0  0  0  0  0  0  0  0  0  0
   -0.0650   -2.5020   41.5798 C   0  0  0  0  0  0  0  0  0  0  0  0
    1.6108   -3.5167   42.6657 C   0  0  0  0  0  0  0  0  0  0  0  0
    2.5982   -2.5638   42.1593 C   0  0  1  0  0  0  0  0  0  0  0  0
    2.5296   -1.3468   42.3708 C   0  0  0  0  0  0  0  0  0  0  0  0
    1.7672   -0.5868   42.2195 C   0  0  0  0  0  0  0  0  0  0  0  0
    0.3031   -1.0105   41.6212 C   0  0  0  0  0  0  0  0  0  0  0  0
    3.9008   -0.6924   42.6936 C   0  0  0  0  0  0  0  0  0  0  0  0
    4.1965    0.3435   42.1868 F   0  0  0  0  0  0  0  0  0  0  0  0
    4.8169   -1.2843   43.5390 N   0  0  0  0  0  0  0  0  0  0  0  0
    4.6724   -2.4054   44.2257 C   0  0  0  0  0  0  0  0  0  0  0  0
    5.2943   -2.4241   45.6038 C   0  0  0  0  0  0  0  0  0  0  0  0
    4.9670   -3.5088   46.4104 C   0  0  0  0  0  0  0  0  0  0  0  0
    4.0913   -4.5089   45.9336 C   0  0  0  0  0  0  0  0  0  0  0  0
    3.7119   -4.5066   44.5891 C   0  0  0  0  0  0  0  0  0  0  0  0
    3.9769   -3.4168   43.8560 C   0  0  0  0  0  0  0  0  0  0  0  0
    3.6157   -3.2455   43.2194 N   0  0  0  0  0  0  0  0  0  0  0  0
  1  2  2  0
  1  3  1  0
  4  3  1  1
  4  5  1  0
  5  6  2  0
  2  7  1  0
  6  7  1  0
  5  8  1  0
  8  9  1  0
  8 10  2  0
 10 11  1  0
  4 17  1  0
 16 17  1  0
 11 12  2  0
 12 13  1  0
 13 14  2  0
 14 15  1  0
 15 16  2  0
 16 11  1  0
M  END
$$$$
O14757_PocketFlow_idx-in-all-generaetd-561
     RDKit          3D

 35 41  0  0  0  0  0  0  0  0999 V2000
    0.2881   -2.9111   42.4378 C   0  0  0  0  0  0  0  0  0  0  0  0
   -0.0650   -2.5020   41.5798 C   0  0  0  0  0  0  0  0  0  0  0  0
    0.4265   -4.3024   42.9098 C   0  0  0  0  0  0  0  0  0  0  0  0
    0.9679   -4.7232   44.0725 C   0  0  0  0  0  0  0  0  0  0  0  0
    0.7052   -5.8239   44.8215 C   0  0  0  0  0  0  0  0  0  0  0  0
   -0.2350   -6.6760   44.1365 C   0  0  0  0  0  0  0  0  0  0  0  0
    0.1177   -1.0648   41.1693 C   0  0  0  0  0  0  0  0  0  0  0  0
    1.2408   -0.3297   41.7570 C   0  0  0  0  0  0  0  0  0  0  0  0
    2.1827   -1.1522   42.2375 C   0  0  0  0  0  0  0  0  0  0  0  0
    3.4330   -0.6288   42.6059 C   0  0  1  0  0  0  0  0  0  0  0  0
    4.3629   -1.5668   43.2277 C   0  0  0  0  0  0  0  0  0  0  0  0
    5.5998   -1.1539   43.7529 C   0  0  0  0  0  0  0  0  0  0  0  0
    1.8438   -2.4533   42.7957 C   0  0  0  0  0  0  0  0  0  0  0  0
   -0.6205   -6.4650   42.8289 C   0  0  0  0  0  0  0  0  0  0  0  0
   -0.4915   -5.2258   42.3412 C   0  0  0  0  0  0  0  0  0  0  0  0
    6.2955   -2.0980   44.5816 C   0  0  0  0  0  0  0  0  0  0  0  0
    5.6663   -3.3017   45.0194 C   0  0  0  0  0  0  0  0  0  0  0  0
    4.4045   -3.5801   44.5025 C   0  0  0  0  0  0  0  0  0  0  0  0
    3.7482   -2.7145   43.7429 C   0  0  0  0  0  0  0  0  0  0  0  0
    2.5300   -3.0580   43.3635 N   0  0  0  0  0  0  0  0  0  0  0  0
    2.1310   -3.9658   44.3964 N   0  0  0  0  0  0  0  0  0  0  0  0
    3.9015    0.4765   42.1509 F   0  0  0  0  0  0  0  0  0  0  0  0
    7.6427   -1.6582   45.0915 C   0  0  0  0  0  0  0  0  0  0  0  0
    8.1956   -2.3557   46.2459 C   0  0  0  0  0  0  0  0  0  0  0  0
    7.7884   -3.5542   46.7202 C   0  0  0  0  0  0  0  0  0  0  0  0
    8.2106   -4.1925   47.7694 C   0  0  0  0  0  0  0  0  0  0  0  0
    6.4343   -3.9798   46.1393 C   0  0  0  0  0  0  0  0  0  0  0  0
    7.8988   -3.7646   49.0479 C   0  0  0  0  0  0  0  0  0  0  0  0
    8.8668   -3.5834   50.1288 C   0  0  0  0  0  0  0  0  0  0  0  0
    8.4505   -2.8350   51.2517 C   0  0  0  0  0  0  0  0  0  0  0  0
    7.0350   -2.7881   51.5081 C   0  0  0  0  0  0  0  0  0  0  0  0
    6.1980   -3.2472   50.5521 C   0  0  0  0  0  0  0  0  0  0  0  0
    6.5682   -3.7430   49.3750 C   0  0  0  0  0  0  0  0  0  0  0  0
    9.4494   -2.3251   52.1948 C   0  0  0  0  0  0  0  0  0  0  0  0
   10.3260   -3.0162   52.5479 C   0  0  0  0  0  0  0  0  0  0  0  0
  1  3  1  0
  9 10  1  0
 13 20  1  0
 19 20  1  0
 20 21  1  0
 10 22  1  6
 25 26  1  0
 26 28  1  0
 30 34  1  0
 34 35  1  0
  4 21  1  0
 10 11  1  0
 17 27  2  0
 27 25  1  0
 25 24  2  0
 24 23  1  0
 23 16  2  0
  1  2  2  0
  2  7  1  0
  7  8  2  0
  8  9  1  0
  9 13  2  0
 13  1  1  0
 11 12  2  0
 12 16  1  0
 16 17  1  0
 17 18  1  0
 18 19  2  0
 19 11  1  0
 28 29  2  0
 29 30  1  0
 30 31  2  0
 31 32  1  0
 32 33  2  0
 33 28  1  0
  3  4  2  0
  4  5  1  0
  5  6  2  0
  6 14  1  0
 14 15  2  0
 15  3  1  0
M  END
$$$$
O14757_PocketFlow_idx-in-all-generaetd-562
     RDKit          3D

 26 29  0  0  0  0  0  0  0  0999 V2000
   -0.6395   -2.0713   41.4947 C   0  0  0  0  0  0  0  0  0  0  0  0
    0.6719   -2.2449   41.7518 C   0  0  1  0  0  0  0  0  0  0  0  0
    1.1287   -3.3339   42.4778 C   0  0  0  0  0  0  0  0  0  0  0  0
    0.1107   -4.1457   43.0600 C   0  0  0  0  0  0  0  0  0  0  0  0
    0.7117   -5.1117   44.0336 C   0  0  0  0  0  0  0  0  0  0  0  0
    1.8902   -4.7250   44.6620 C   0  0  0  0  0  0  0  0  0  0  0  0
    2.7386   -3.6942   44.2820 C   0  0  0  0  0  0  0  0  0  0  0  0
    2.3033   -2.9177   43.2705 C   0  0  0  0  0  0  0  0  0  0  0  0
    1.5590   -1.3603   41.0778 C   0  0  0  0  0  0  0  0  0  0  0  0
    3.9870   -3.4547   44.9478 C   0  0  0  0  0  0  0  0  0  0  0  0
    4.9359   -2.6027   44.4312 C   0  0  0  0  0  0  0  0  0  0  0  0
    6.1742   -2.4108   45.1448 C   0  0  0  0  0  0  0  0  0  0  0  0
    7.2084   -1.4924   44.7362 C   0  0  0  0  0  0  0  0  0  0  0  0
    4.3262   -4.0258   46.2226 C   0  0  0  0  0  0  0  0  0  0  0  0
    5.5372   -3.8713   46.9301 C   0  0  0  0  0  0  0  0  0  0  0  0
    6.4754   -3.0297   46.4326 C   0  0  0  0  0  0  0  0  0  0  0  0
    1.3697    0.1441   41.4894 C   0  0  0  0  0  0  0  0  0  0  0  0
   -1.4746   -2.9943   41.4663 O   0  0  0  0  0  0  0  0  0  0  0  0
   -1.2141   -0.8021   41.5918 N   0  0  0  0  0  0  0  0  0  0  0  0
   -0.1125    0.2857   41.6150 N   0  0  0  0  0  0  0  0  0  0  0  0
    8.3887   -1.4162   45.3904 N   0  0  0  0  0  0  0  0  0  0  0  0
    7.7128   -2.7860   47.0427 C   0  0  0  0  0  0  0  0  0  0  0  0
    8.6533   -1.9782   46.5015 C   0  0  0  0  0  0  0  0  0  0  0  0
    9.9507   -1.7037   47.1304 C   0  0  0  0  0  0  0  0  0  0  0  0
   10.9829   -1.6969   46.6203 C   0  0  0  0  0  0  0  0  0  0  0  0
   12.2483   -1.3894   47.2686 C   0  0  0  0  0  0  0  0  0  0  0  0
  1  2  1  0
  2  3  1  6
  2  9  1  0
  7 10  1  0
  9 17  1  0
  1 18  2  0
  1 19  1  0
 17 20  1  0
 19 20  1  0
 23 24  1  0
 24 25  2  3
 25 26  1  0
 10 11  2  0
 11 12  1  0
 16 15  1  0
 15 14  2  0
 14 10  1  0
  3  4  2  0
  4  5  1  0
  5  6  2  0
  6  7  1  0
  7  8  2  0
  8  3  1  0
 12 13  2  0
 13 21  1  0
 21 23  2  0
 23 22  1  0
 22 16  2  0
 16 12  1  0
M  END
$$$$
O14757_PocketFlow_idx-in-all-generaetd-563
     RDKit          3D

 20 20  0  0  0  0  0  0  0  0999 V2000
   -0.6395   -2.0713   41.4947 C   0  0  0  0  0  0  0  0  0  0  0  0
    0.1859   -1.1027   41.5970 C   0  0  0  0  0  0  0  0  0  0  0  0
    1.5858   -1.4430   41.9548 C   0  0  0  0  0  0  0  0  0  0  0  0
    2.6622   -0.5501   42.0082 C   0  0  0  0  0  0  0  0  0  0  0  0
    3.5605   -0.6515   43.1147 C   0  0  0  0  0  0  0  0  0  0  0  0
    4.7238    0.1772   43.2470 C   0  0  0  0  0  0  0  0  0  0  0  0
   -0.1965   -3.4391   41.4713 C   0  0  0  0  0  0  0  0  0  0  0  0
    0.4741   -3.7616   42.3769 C   0  0  0  0  0  0  0  0  0  0  0  0
    0.7215   -4.9891   42.8999 C   0  0  0  0  0  0  0  0  0  0  0  0
    1.6924   -2.7505   42.6773 C   0  0  0  0  0  0  0  0  0  0  0  0
    1.3955   -5.2428   44.2328 C   0  0  0  0  0  0  0  0  0  0  0  0
    1.4013   -6.5041   44.8294 C   0  0  0  0  0  0  0  0  0  0  0  0
    0.3505   -7.3136   44.6675 C   0  0  0  0  0  0  0  0  0  0  0  0
   -0.8495   -6.8808   44.7796 C   0  0  0  0  0  0  0  0  0  0  0  0
   -2.0104   -7.8258   44.6138 C   0  0  0  0  0  0  0  0  0  0  0  0
   -2.8720   -8.1490   45.1344 C   0  0  0  0  0  0  0  0  0  0  0  0
   -3.9930   -8.9837   44.6351 C   0  0  0  0  0  0  0  0  0  0  0  0
   -4.7843   -9.7288   45.4073 C   0  0  0  0  0  0  0  0  0  0  0  0
   -4.6276   -9.5453   46.6597 C   0  0  0  0  0  0  0  0  0  0  0  0
   -3.7507   -8.8010   47.3421 C   0  0  0  0  0  0  0  0  0  0  0  0
  3  4  1  0
  4  5  1  0
  5  6  1  0
  9 11  1  0
 11 12  2  3
 12 13  1  0
 13 14  1  0
 14 15  2  3
 15 16  1  0
 16 17  2  3
 17 18  1  0
 18 19  2  3
 19 20  1  0
  9  8  1  0
  1  2  2  0
  2  3  1  0
  3 10  2  0
 10  8  1  0
  8  7  2  0
  7  1  1  0
M  END
$$$$
O14757_PocketFlow_idx-in-all-generaetd-564
     RDKit          3D

 16 18  0  0  0  0  0  0  0  0999 V2000
    0.2881   -2.9111   42.4378 C   0  0  0  0  0  0  0  0  0  0  0  0
    1.1784   -3.4293   42.9321 C   0  0  0  0  0  0  0  0  0  0  0  0
    1.1643   -4.3749   43.9960 C   0  0  0  0  0  0  0  0  0  0  0  0
    0.3914   -5.4664   43.9687 C   0  0  0  0  0  0  0  0  0  0  0  0
    0.3748   -1.9716   41.3841 C   0  0  0  0  0  0  0  0  0  0  0  0
    1.5343   -1.1717   41.4253 C   0  0  0  0  0  0  0  0  0  0  0  0
    2.5788   -1.5395   42.2773 C   0  0  0  0  0  0  0  0  0  0  0  0
    2.4406   -2.6300   43.1811 C   0  0  0  0  0  0  0  0  0  0  0  0
    0.4127   -6.5247   44.8652 C   0  0  2  0  0  0  0  0  0  0  0  0
   -0.6773   -7.3916   45.0821 C   0  0  0  0  0  0  0  0  0  0  0  0
   -1.5028   -7.0628   46.1842 C   0  0  0  0  0  0  0  0  0  0  0  0
   -2.4689   -7.6632   46.5843 O   0  0  0  0  0  0  0  0  0  0  0  0
    3.4607   -3.0337   44.0697 C   0  0  0  0  0  0  0  0  0  0  0  0
    3.1844   -4.1390   44.9033 C   0  0  0  0  0  0  0  0  0  0  0  0
    2.1157   -4.9158   44.8841 C   0  0  0  0  0  0  0  0  0  0  0  0
    1.5879   -6.2669   45.6089 C   0  0  0  0  0  0  0  0  0  0  0  0
  4  9  1  0
  9 10  1  1
 10 11  1  0
 11 12  1  0
  9 16  1  0
 15 16  1  0
  4  3  1  0
  1  2  2  0
  8  7  2  0
  7  6  1  0
  6  5  2  0
  5  1  1  0
  2  3  1  0
  3 15  2  0
 15 14  1  0
 14 13  2  0
 13  8  1  0
  8  2  1  0
M  END
$$$$
O14757_PocketFlow_idx-in-all-generaetd-565
     RDKit          3D

 18 18  0  0  0  0  0  0  0  0999 V2000
    0.2881   -2.9111   42.4378 C   0  0  0  0  0  0  0  0  0  0  0  0
   -0.0650   -2.5021   41.5798 C   0  0  0  0  0  0  0  0  0  0  0  0
    1.6108   -3.5167   42.6657 C   0  0  0  0  0  0  0  0  0  0  0  0
    2.0262   -4.1022   43.9169 C   0  0  2  0  0  0  0  0  0  0  0  0
    3.3116   -4.3084   44.3274 C   0  0  0  0  0  0  0  0  0  0  0  0
    3.9442   -3.6357   45.1397 C   0  0  0  0  0  0  0  0  0  0  0  0
   -1.4373   -2.0535   41.4069 C   0  0  0  0  0  0  0  0  0  0  0  0
    5.3218   -3.2549   45.2220 C   0  0  0  0  0  0  0  0  0  0  0  0
    5.8997   -2.8461   46.4019 C   0  0  0  0  0  0  0  0  0  0  0  0
    7.3127   -2.5263   46.3352 C   0  0  0  0  0  0  0  0  0  0  0  0
    8.2958   -3.3654   46.9762 C   0  0  0  0  0  0  0  0  0  0  0  0
    9.6248   -2.9401   46.8174 C   0  0  0  0  0  0  0  0  0  0  0  0
    7.8369   -1.6760   45.3410 C   0  0  0  0  0  0  0  0  0  0  0  0
    9.1265   -1.1834   45.4252 C   0  0  0  0  0  0  0  0  0  0  0  0
   10.0292   -1.8784   46.1424 C   0  0  0  0  0  0  0  0  0  0  0  0
   -1.8595   -1.5364   40.2577 N   0  0  0  0  0  0  0  0  0  0  0  0
    1.0040   -4.8150   44.7165 C   0  0  0  0  0  0  0  0  0  0  0  0
    0.5285   -5.7320   45.0448 N   0  0  0  0  0  0  0  0  0  0  0  0
  1  2  2  3
  1  3  1  0
  4  3  1  6
  4  5  1  0
  5  6  2  3
  2  7  1  0
  6  8  1  0
  8  9  1  0
  9 10  1  0
  7 16  1  0
  4 17  1  0
 17 18  3  0
 10 11  2  0
 11 12  1  0
 12 15  2  0
 15 14  1  0
 14 13  2  0
 13 10  1  0
M  END
$$$$
O14757_PocketFlow_idx-in-all-generaetd-566
     RDKit          3D

 28 31  0  0  0  0  0  0  0  0999 V2000
   -0.6395   -2.0713   41.4947 C   0  0  0  0  0  0  0  0  0  0  0  0
    0.1859   -1.1027   41.5970 C   0  0  0  0  0  0  0  0  0  0  0  0
    1.5858   -1.4431   41.9548 C   0  0  0  0  0  0  0  0  0  0  0  0
   -0.3290   -3.4217   41.4987 C   0  0  0  0  0  0  0  0  0  0  0  0
    1.8733   -2.7956   42.1741 C   0  0  0  0  0  0  0  0  0  0  0  0
    0.8724   -3.7449   42.0341 C   0  0  0  0  0  0  0  0  0  0  0  0
    2.6019   -0.4572   42.2191 C   0  0  0  0  0  0  0  0  0  0  0  0
    3.8719   -0.7666   42.7314 C   0  0  0  0  0  0  0  0  0  0  0  0
    4.8538    0.1420   43.0462 C   0  0  0  0  0  0  0  0  0  0  0  0
   -2.0919   -1.7412   41.0504 C   0  0  0  0  0  0  0  0  0  0  0  0
   -2.5478   -0.6063   41.3924 O   0  0  0  0  0  0  0  0  0  0  0  0
   -2.7770   -2.5508   40.3011 O   0  0  0  0  0  0  0  0  0  0  0  0
    6.0324   -0.3499   43.6132 C   0  0  0  0  0  0  0  0  0  0  0  0
    6.0650   -1.5263   44.4308 C   0  0  0  0  0  0  0  0  0  0  0  0
    4.9625   -2.4214   44.1572 C   0  0  0  0  0  0  0  0  0  0  0  0
    3.9224   -2.0274   43.4574 C   0  0  0  0  0  0  0  0  0  0  0  0
    3.0453   -3.0592   42.9889 C   0  0  0  0  0  0  0  0  0  0  0  0
    7.2035   -1.8417   45.2465 C   0  0  0  0  0  0  0  0  0  0  0  0
    7.2241   -3.0053   46.0436 C   0  0  0  0  0  0  0  0  0  0  0  0
    8.3419   -3.2162   46.8657 C   0  0  0  0  0  0  0  0  0  0  0  0
    8.3632   -4.3843   47.7424 C   0  0  0  0  0  0  0  0  0  0  0  0
    7.0949   -4.9479   48.0293 C   0  0  0  0  0  0  0  0  0  0  0  0
    5.9257   -4.5583   47.3585 C   0  0  0  0  0  0  0  0  0  0  0  0
    6.0227   -3.5302   46.4620 C   0  0  0  0  0  0  0  0  0  0  0  0
    7.0073   -6.0234   49.0786 C   0  0  0  0  0  0  0  0  0  0  0  0
    5.8390   -6.4527   49.2792 O   0  0  0  0  0  0  0  0  0  0  0  0
    8.0179   -6.4358   49.6423 O   0  0  0  0  0  0  0  0  0  0  0  0
    2.3963    0.7453   41.7291 O   0  0  0  0  0  0  0  0  0  0  0  0
  3  7  1  0
  7  8  1  0
  1 10  1  0
 10 11  2  0
 10 12  1  0
  5 17  1  0
 16 17  1  0
 14 18  1  0
 22 25  1  0
 25 26  1  0
 25 27  2  0
  7 28  2  0
 18 19  1  0
  8  9  2  0
  9 13  1  0
 13 14  2  0
 14 15  1  0
 15 16  2  0
 16  8  1  0
  1  2  2  0
  2  3  1  0
  3  5  2  0
  5  6  1  0
  6  4  2  0
  4  1  1  0
 19 20  2  0
 20 21  1  0
 21 22  2  0
 22 23  1  0
 23 24  2  0
 24 19  1  0
M  END
$$$$
O14757_PocketFlow_idx-in-all-generaetd-567
     RDKit          3D

 35 38  0  0  0  0  0  0  0  0999 V2000
   -0.6395   -2.0713   41.4947 C   0  0  0  0  0  0  0  0  0  0  0  0
   -0.2671   -3.2464   41.6546 C   0  0  0  0  0  0  0  0  0  0  0  0
   -1.9911   -1.6663   41.2869 C   0  0  0  0  0  0  0  0  0  0  0  0
   -2.8197   -2.6217   40.7055 C   0  0  0  0  0  0  0  0  0  0  0  0
    1.0882   -3.6261   41.9223 C   0  0  0  0  0  0  0  0  0  0  0  0
    1.9507   -2.5381   42.2089 C   0  0  0  0  0  0  0  0  0  0  0  0
    1.4880   -1.2272   42.1560 C   0  0  0  0  0  0  0  0  0  0  0  0
    0.1721   -0.9457   41.8050 C   0  0  0  0  0  0  0  0  0  0  0  0
    2.4862   -0.1031   42.3292 C   0  0  0  0  0  0  0  0  0  0  0  0
    3.7943   -0.3595   42.7846 C   0  0  0  0  0  0  0  0  0  0  0  0
    4.2740   -1.6087   42.7866 C   0  0  2  0  0  0  0  0  0  0  0  0
    3.3314   -2.7346   42.6741 C   0  0  1  0  0  0  0  0  0  0  0  0
   -4.0801   -2.1581   40.2093 C   0  0  0  0  0  0  0  0  0  0  0  0
   -4.4096   -0.8029   40.2790 C   0  0  0  0  0  0  0  0  0  0  0  0
   -3.5664    0.0983   40.8908 C   0  0  0  0  0  0  0  0  0  0  0  0
   -2.3206   -0.2999   41.3426 C   0  0  0  0  0  0  0  0  0  0  0  0
    5.8165   -1.8557   43.5441 Cl  0  0  0  0  0  0  0  0  0  0  0  0
    4.6203    0.6999   42.9325 O   0  0  0  0  0  0  0  0  0  0  0  0
   -4.0638    1.9053   41.0668 Br  0  0  0  0  0  0  0  0  0  0  0  0
    3.5149   -3.7438   43.5164 O   0  0  0  0  0  0  0  0  0  0  0  0
    3.2390   -3.7633   44.8751 C   0  0  0  0  0  0  0  0  0  0  0  0
    4.3278   -4.0268   45.7328 C   0  0  0  0  0  0  0  0  0  0  0  0
    4.9883   -2.9605   46.2600 C   0  0  0  0  0  0  0  0  0  0  0  0
    6.0887   -3.1902   47.1945 C   0  0  0  0  0  0  0  0  0  0  0  0
    6.2627   -4.4596   47.7662 C   0  0  0  0  0  0  0  0  0  0  0  0
    5.3384   -5.4841   47.3199 C   0  0  0  0  0  0  0  0  0  0  0  0
    4.4228   -5.2823   46.3395 C   0  0  0  0  0  0  0  0  0  0  0  0
    7.1894   -4.6760   48.8539 C   0  0  0  0  0  0  0  0  0  0  0  0
    7.3146   -3.7625   49.6477 O   0  0  0  0  0  0  0  0  0  0  0  0
    7.9728   -5.6943   48.8758 N   0  0  0  0  0  0  0  0  0  0  0  0
    8.8249   -5.9694   49.8305 C   0  0  0  0  0  0  0  0  0  0  0  0
    2.0195   -3.6854   45.2461 O   0  0  0  0  0  0  0  0  0  0  0  0
    9.6090   -5.1549   50.3512 C   0  0  0  0  0  0  0  0  0  0  0  0
    9.8303   -3.9974   49.8286 C   0  0  0  0  0  0  0  0  0  0  0  0
   10.8054   -3.0566   50.2123 C   0  0  0  0  0  0  0  0  0  0  0  0
  1  3  1  0
  7  9  1  0
  9 10  1  0
 10 11  1  0
  6 12  1  0
 11 12  1  0
 11 17  1  1
 10 18  2  0
 15 19  1  0
 12 20  1  1
 20 21  1  0
 21 22  1  0
 25 28  1  0
 28 29  2  0
 28 30  1  0
 30 31  1  0
 21 32  2  0
 31 33  1  0
 33 34  1  0
 34 35  2  0
 22 23  2  0
 23 24  1  0
 24 25  2  0
 25 26  1  0
 26 27  2  0
 27 22  1  0
  1  2  2  0
  2  5  1  0
  5  6  2  0
  6  7  1  0
  7  8  2  0
  8  1  1  0
  3  4  2  0
  4 13  1  0
 13 14  2  0
 14 15  1  0
 15 16  2  0
 16  3  1  0
M  END
$$$$
O14757_PocketFlow_idx-in-all-generaetd-568
     RDKit          3D

 33 36  0  0  0  0  0  0  0  0999 V2000
   -0.6395   -2.0713   41.4947 C   0  0  0  0  0  0  0  0  0  0  0  0
    0.6719   -2.2449   41.7518 C   0  0  0  0  0  0  0  0  0  0  0  0
    1.5951   -1.1948   41.6106 C   0  0  0  0  0  0  0  0  0  0  0  0
    2.8936   -1.2860   42.2441 C   0  0  0  0  0  0  0  0  0  0  0  0
    3.2021   -2.2591   43.1862 C   0  0  0  0  0  0  0  0  0  0  0  0
    4.4778   -2.3024   43.8362 C   0  0  0  0  0  0  0  0  0  0  0  0
    4.7426   -3.3366   44.7696 C   0  0  0  0  0  0  0  0  0  0  0  0
    3.7781   -4.3783   44.8929 C   0  0  0  0  0  0  0  0  0  0  0  0
    2.4629   -3.4328   43.5383 C   0  0  0  0  0  0  0  0  0  0  0  0
    2.6117   -4.3408   44.3879 C   0  0  0  0  0  0  0  0  0  0  0  0
    0.9834   -3.3323   42.8393 C   0  0  0  0  0  0  0  0  0  0  0  0
    5.4510   -1.2287   43.6367 C   0  0  0  0  0  0  0  0  0  0  0  0
    1.6210   -5.3727   44.6954 C   0  0  0  0  0  0  0  0  0  0  0  0
    1.8046   -6.6243   44.6301 C   0  0  0  0  0  0  0  0  0  0  0  0
    0.8096   -7.5774   45.0480 C   0  0  0  0  0  0  0  0  0  0  0  0
   -0.5541   -7.0569   45.1436 C   0  0  0  0  0  0  0  0  0  0  0  0
   -0.7238   -5.6444   45.2575 C   0  0  0  0  0  0  0  0  0  0  0  0
    0.3519   -4.7773   45.0320 C   0  0  0  0  0  0  0  0  0  0  0  0
   -1.3251   -7.9174   46.1237 C   0  0  0  0  0  0  0  0  0  0  0  0
   -2.4523   -8.5789   45.6158 C   0  0  0  0  0  0  0  0  0  0  0  0
   -3.2399   -9.3912   46.4520 C   0  0  0  0  0  0  0  0  0  0  0  0
   -2.9824   -9.4028   47.8780 C   0  0  0  0  0  0  0  0  0  0  0  0
   -1.8786   -8.6840   48.3374 C   0  0  0  0  0  0  0  0  0  0  0  0
   -1.0673   -7.9288   47.5153 C   0  0  0  0  0  0  0  0  0  0  0  0
   -1.3460   -3.0945   41.2277 O   0  0  0  0  0  0  0  0  0  0  0  0
   -1.1999   -0.9072   41.3895 O   0  0  0  0  0  0  0  0  0  0  0  0
    6.4743   -1.3531   44.3156 F   0  0  0  0  0  0  0  0  0  0  0  0
    5.2704   -0.3906   42.7711 F   0  0  0  0  0  0  0  0  0  0  0  0
   -4.4102  -10.0747   45.9832 C   0  0  0  0  0  0  0  0  0  0  0  0
   -5.4717   -9.3044   45.5777 C   0  0  0  0  0  0  0  0  0  0  0  0
   -5.4110   -8.8020   44.3255 C   0  0  0  0  0  0  0  0  0  0  0  0
   -6.2392   -7.8005   43.8699 C   0  0  0  0  0  0  0  0  0  0  0  0
   -6.1154   -6.7364   43.8327 C   0  0  0  0  0  0  0  0  0  0  0  0
  1  2  1  0
  6 12  1  0
 10 13  1  0
 16 19  1  0
  1 25  2  0
  1 26  1  0
 12 27  1  0
 12 28  1  0
 21 29  1  0
 29 30  1  0
 30 31  1  0
 31 32  2  3
 32 33  1  0
 13 14  2  0
 14 15  1  0
 15 16  2  0
 16 17  1  0
 17 18  2  0
 18 13  1  0
  5  6  1  0
  6  7  2  0
  7  8  1  0
  8 10  2  0
 10  9  1  0
 19 20  2  0
 20 21  1  0
 21 22  2  0
 22 23  1  0
 23 24  2  0
 24 19  1  0
  2  3  2  0
  3  4  1  0
  4  5  2  0
  5  9  1  0
  9 11  2  0
 11  2  1  0
M  END
$$$$
O14757_PocketFlow_idx-in-all-generaetd-569
     RDKit          3D

 24 26  0  0  0  0  0  0  0  0999 V2000
   -0.6395   -2.0713   41.4947 C   0  0  0  0  0  0  0  0  0  0  0  0
    0.6719   -2.2449   41.7518 C   0  0  0  0  0  0  0  0  0  0  0  0
    1.3815   -1.6359   42.7231 C   0  0  0  0  0  0  0  0  0  0  0  0
   -1.3884   -2.9047   40.6798 C   0  0  0  0  0  0  0  0  0  0  0  0
    2.7413   -2.0881   43.0207 C   0  0  0  0  0  0  0  0  0  0  0  0
    3.8593   -1.2723   42.8875 C   0  0  0  0  0  0  0  0  0  0  0  0
    5.0027   -1.4863   43.7350 C   0  0  0  0  0  0  0  0  0  0  0  0
    5.0420   -2.6779   44.4729 C   0  0  0  0  0  0  0  0  0  0  0  0
    6.1383   -2.9324   45.3636 C   0  0  0  0  0  0  0  0  0  0  0  0
    6.0453   -3.8971   46.4134 C   0  0  0  0  0  0  0  0  0  0  0  0
    7.0005   -3.9085   47.4602 C   0  0  0  0  0  0  0  0  0  0  0  0
    3.9253   -3.5275   44.4614 C   0  0  0  0  0  0  0  0  0  0  0  0
    2.7226   -3.1776   43.8363 C   0  0  0  0  0  0  0  0  0  0  0  0
    6.7872   -4.6933   48.6305 C   0  0  0  0  0  0  0  0  0  0  0  0
    7.6567   -4.6817   49.6687 C   0  0  0  0  0  0  0  0  0  0  0  0
    8.8175   -3.9613   49.6313 C   0  0  0  0  0  0  0  0  0  0  0  0
    9.1126   -3.2200   48.4395 C   0  0  0  0  0  0  0  0  0  0  0  0
    8.1942   -3.1707   47.3851 C   0  0  0  0  0  0  0  0  0  0  0  0
   -2.7787   -2.5683   40.6163 C   0  0  0  0  0  0  0  0  0  0  0  0
   -3.0035   -1.1795   40.4671 C   0  0  0  0  0  0  0  0  0  0  0  0
   -2.3457   -0.2637   41.2288 C   0  0  0  0  0  0  0  0  0  0  0  0
   -1.0797   -0.6633   41.5836 C   0  0  0  0  0  0  0  0  0  0  0  0
    3.5954   -0.0746   42.2622 N   0  0  0  0  0  0  0  0  0  0  0  0
   -4.4559   -0.8796   40.0986 C   0  0  0  0  0  0  0  0  0  0  0  0
  1  2  1  0
  2  3  2  3
  3  5  1  0
  8  9  1  0
  9 10  2  3
 10 11  1  0
  6 23  1  0
 20 24  1  0
  1  4  2  0
  4 19  1  0
 19 20  2  0
 20 21  1  0
 21 22  2  0
 22  1  1  0
  5  6  2  0
  6  7  1  0
  7  8  2  0
  8 12  1  0
 12 13  2  0
 13  5  1  0
 11 14  2  0
 14 15  1  0
 15 16  2  0
 16 17  1  0
 17 18  2  0
 18 11  1  0
M  END
$$$$
O14757_PocketFlow_idx-in-all-generaetd-570
     RDKit          3D

 20 21  0  0  0  0  0  0  0  0999 V2000
   -0.6395   -2.0713   41.4947 C   0  0  0  0  0  0  0  0  0  0  0  0
   -0.2671   -3.2464   41.6546 C   0  0  0  0  0  0  0  0  0  0  0  0
    0.2277   -0.9875   41.6495 C   0  0  0  0  0  0  0  0  0  0  0  0
    1.6284   -1.2752   41.8841 C   0  0  0  0  0  0  0  0  0  0  0  0
    1.8971   -2.6873   42.1685 C   0  0  0  0  0  0  0  0  0  0  0  0
    0.9380   -3.6379   42.0922 C   0  0  0  0  0  0  0  0  0  0  0  0
    2.5827   -0.2859   42.1122 C   0  0  0  0  0  0  0  0  0  0  0  0
    3.6162   -0.3498   43.0617 C   0  0  0  0  0  0  0  0  0  0  0  0
    4.9284    0.1161   42.7784 C   0  0  0  0  0  0  0  0  0  0  0  0
   -2.0729   -1.7448   41.0728 C   0  0  0  0  0  0  0  0  0  0  0  0
   -2.7853   -2.6157   40.5570 O   0  0  0  0  0  0  0  0  0  0  0  0
   -2.5342   -0.5398   41.2712 O   0  0  0  0  0  0  0  0  0  0  0  0
    5.9009   -0.4173   43.7674 C   0  0  0  0  0  0  0  0  0  0  0  0
    5.5219   -1.2663   44.7938 C   0  0  0  0  0  0  0  0  0  0  0  0
    4.2749   -1.8766   44.8025 C   0  0  0  0  0  0  0  0  0  0  0  0
    3.4500   -1.4479   43.9737 C   0  0  0  0  0  0  0  0  0  0  0  0
    6.6914   -1.6562   45.6879 C   0  0  0  0  0  0  0  0  0  0  0  0
    6.5924   -2.9226   46.3773 C   0  0  0  0  0  0  0  0  0  0  0  0
    5.5358   -3.7635   46.5132 C   0  0  0  0  0  0  0  0  0  0  0  0
    4.2972   -3.7860   45.9147 C   0  0  0  0  0  0  0  0  0  0  0  0
  4  7  1  0
  7  8  1  0
  1 10  1  0
 10 11  2  0
 10 12  1  0
 14 17  1  0
 17 18  2  3
 18 19  1  0
 19 20  2  0
  1  2  2  0
  2  6  1  0
  6  5  2  0
  5  4  1  0
  4  3  2  0
  3  1  1  0
  8  9  2  0
  9 13  1  0
 13 14  2  0
 14 15  1  0
 15 16  2  0
 16  8  1  0
M  END
$$$$
O14757_PocketFlow_idx-in-all-generaetd-571
     RDKit          3D

 35 39  0  0  0  0  0  0  0  0999 V2000
   -0.6395   -2.0713   41.4947 C   0  0  0  0  0  0  0  0  0  0  0  0
    0.6719   -2.2449   41.7518 C   0  0  1  0  0  0  0  0  0  0  0  0
    1.5951   -1.1948   41.6106 C   0  0  1  0  0  0  0  0  0  0  0  0
    1.2208    0.0789   41.5217 C   0  0  0  0  0  0  0  0  0  0  0  0
   -1.5615   -3.1145   41.4646 C   0  0  0  0  0  0  0  0  0  0  0  0
    2.2435    0.9409   41.5668 N   0  0  0  0  0  0  0  0  0  0  0  0
   -2.7443   -2.8417   41.0359 O   0  0  0  0  0  0  0  0  0  0  0  0
    3.3872    0.1808   41.9448 N   0  0  0  0  0  0  0  0  0  0  0  0
    2.9537   -1.0660   42.0560 C   0  0  1  0  0  0  0  0  0  0  0  0
    3.5837   -2.1342   42.5648 N   0  0  0  0  0  0  0  0  0  0  0  0
    3.0868   -3.0272   43.4326 C   0  0  0  0  0  0  0  0  0  0  0  0
    3.9573   -3.7454   44.3738 C   0  0  0  0  0  0  0  0  0  0  0  0
    3.5466   -4.9529   44.9308 C   0  0  0  0  0  0  0  0  0  0  0  0
    2.1889   -5.2806   44.8787 C   0  0  0  0  0  0  0  0  0  0  0  0
    1.2893   -4.5111   44.1791 C   0  0  0  0  0  0  0  0  0  0  0  0
    1.7351   -3.4512   43.4048 C   0  0  0  0  0  0  0  0  0  0  0  0
    0.9184   -2.8700   42.5411 C   0  0  0  0  0  0  0  0  0  0  0  0
    1.6799   -6.4402   45.6791 C   0  0  0  0  0  0  0  0  0  0  0  0
    0.6358   -6.2482   46.2570 O   0  0  0  0  0  0  0  0  0  0  0  0
   -0.6095   -6.8163   45.8263 C   0  0  2  0  0  0  0  0  0  0  0  0
   -1.6558   -6.8414   46.8148 C   0  0  0  0  0  0  0  0  0  0  0  0
   -2.5888   -7.9730   46.6186 C   0  0  2  0  0  0  0  0  0  0  0  0
   -2.4013   -9.0533   47.0125 C   0  0  0  0  0  0  0  0  0  0  0  0
   -1.1338   -9.3675   47.3815 C   0  0  0  0  0  0  0  0  0  0  0  0
   -0.1107   -8.5844   47.2782 C   0  0  0  0  0  0  0  0  0  0  0  0
   -0.3409   -8.1787   45.7071 O   0  0  0  0  0  0  0  0  0  0  0  0
   -0.8400  -10.8490   47.1149 N   0  0  0  0  0  0  0  0  0  0  0  0
   -3.0396   -7.8938   45.2009 O   0  0  0  0  0  0  0  0  0  0  0  0
   -1.5434  -11.8162   46.8719 C   0  0  0  0  0  0  0  0  0  0  0  0
   -0.9924  -13.0612   46.5735 C   0  0  0  0  0  0  0  0  0  0  0  0
    0.5792  -11.2756   47.1005 C   0  0  0  0  0  0  0  0  0  0  0  0
    0.4337  -12.7143   46.8312 C   0  0  0  0  0  0  0  0  0  0  0  0
   -4.3255   -8.0886   44.8914 C   0  0  0  0  0  0  0  0  0  0  0  0
   -4.4666   -9.1569   44.0138 C   0  0  0  0  0  0  0  0  0  0  0  0
   -5.3132   -9.0238   42.9490 C   0  0  0  0  0  0  0  0  0  0  0  0
  2  1  1  1
  2  3  1  0
  3  4  1  1
  1  5  1  0
  4  6  1  0
  5  7  2  0
  6  8  2  0
  3  9  1  0
  8  9  1  0
  9 10  1  1
 10 11  1  0
  2 17  1  0
 16 17  1  0
 14 18  1  0
 18 19  1  0
 20 19  1  1
 20 21  1  0
 21 22  1  0
 22 23  1  0
 23 24  2  0
 24 25  1  0
 20 26  1  0
 25 26  1  0
 24 27  1  0
 22 28  1  6
 27 29  1  0
 29 30  2  0
 27 31  1  0
 30 32  1  0
 31 32  1  0
 28 33  1  0
 33 34  1  0
 34 35  1  0
 11 12  2  0
 12 13  1  0
 13 14  2  0
 14 15  1  0
 15 16  2  0
 16 11  1  0
M  END
$$$$
O14757_PocketFlow_idx-in-all-generaetd-572
     RDKit          3D

 27 29  0  0  0  0  0  0  0  0999 V2000
   -0.6395   -2.0713   41.4947 C   0  0  0  0  0  0  0  0  0  0  0  0
    0.1859   -1.1027   41.5970 C   0  0  0  0  0  0  0  0  0  0  0  0
    1.5836   -1.3270   41.4670 C   0  0  0  0  0  0  0  0  0  0  0  0
   -0.2462   -3.3905   41.2409 C   0  0  0  0  0  0  0  0  0  0  0  0
    2.5788   -0.3160   41.7511 C   0  0  0  0  0  0  0  0  0  0  0  0
    3.8805   -0.6481   42.0316 C   0  0  2  0  0  0  0  0  0  0  0  0
    4.1140   -1.7786   42.9289 C   0  0  0  0  0  0  0  0  0  0  0  0
    3.0425   -2.6868   43.1417 C   0  0  1  0  0  0  0  0  0  0  0  0
    3.2654   -3.7751   44.0096 C   0  0  0  0  0  0  0  0  0  0  0  0
    2.1672   -4.4962   44.5051 C   0  0  0  0  0  0  0  0  0  0  0  0
    1.7408   -2.4013   42.5778 C   0  0  0  0  0  0  0  0  0  0  0  0
    2.2443   -5.5098   45.4288 C   0  0  0  0  0  0  0  0  0  0  0  0
    3.5812   -5.8211   45.8745 C   0  0  0  0  0  0  0  0  0  0  0  0
    4.6564   -5.0998   45.4001 C   0  0  0  0  0  0  0  0  0  0  0  0
    4.5018   -4.0708   44.5511 C   0  0  0  0  0  0  0  0  0  0  0  0
    0.9204   -3.6844   42.2143 C   0  0  0  0  0  0  0  0  0  0  0  0
    1.1034   -6.2468   45.8516 C   0  0  0  0  0  0  0  0  0  0  0  0
   -0.1525   -5.4305   46.2939 Cl  0  0  0  0  0  0  0  0  0  0  0  0
    0.6604   -7.1286   44.8491 F   0  0  0  0  0  0  0  0  0  0  0  0
    1.5089   -7.0812   46.7974 F   0  0  0  0  0  0  0  0  0  0  0  0
   -1.9976   -1.9022   41.9993 C   0  0  0  0  0  0  0  0  0  0  0  0
   -2.8057   -1.4024   40.8514 N   0  0  0  0  0  0  0  0  0  0  0  0
    4.9716    0.4106   42.1437 C   0  0  0  0  0  0  0  0  0  0  0  0
   -3.7837   -1.8365   40.2551 C   0  0  0  0  0  0  0  0  0  0  0  0
   -4.3574   -1.1492   39.2885 N   0  0  0  0  0  0  0  0  0  0  0  0
   -4.0589   -3.0843   40.3923 O   0  0  0  0  0  0  0  0  0  0  0  0
    5.2258    1.0438   43.2579 O   0  0  0  0  0  0  0  0  0  0  0  0
  3  5  1  0
  5  6  1  0
  6  7  1  0
  7  8  1  0
  8  9  1  1
  8 11  1  0
 12 17  1  0
 17 18  1  0
 17 19  1  0
 17 20  1  0
  1 21  1  0
 21 22  1  0
  6 23  1  1
 22 24  1  0
 24 25  1  0
 24 26  2  0
 23 27  2  0
  1  2  2  0
  2  3  1  0
  3 11  2  0
 11 16  1  0
 16  4  2  0
  4  1  1  0
  9 10  2  0
 10 12  1  0
 12 13  2  0
 13 14  1  0
 14 15  2  0
 15  9  1  0
M  END
$$$$
O14757_PocketFlow_idx-in-all-generaetd-573
     RDKit          3D

  9  9  0  0  0  0  0  0  0  0999 V2000
   -0.6395   -2.0713   41.4947 C   0  0  0  0  0  0  0  0  0  0  0  0
    0.1859   -1.1027   41.5970 C   0  0  0  0  0  0  0  0  0  0  0  0
   -0.2410   -3.3795   41.5297 C   0  0  0  0  0  0  0  0  0  0  0  0
    1.6125   -1.3641   41.8466 C   0  0  0  0  0  0  0  0  0  0  0  0
    1.9568   -2.7213   42.1561 C   0  0  0  0  0  0  0  0  0  0  0  0
    0.9568   -3.6932   42.0424 C   0  0  0  0  0  0  0  0  0  0  0  0
    2.6717   -0.4922   42.0678 C   0  0  0  0  0  0  0  0  0  0  0  0
    3.9464   -0.7097   42.5850 C   0  0  0  0  0  0  0  0  0  0  0  0
    4.2225   -1.9072   43.2727 C   0  0  0  0  0  0  0  0  0  0  0  0
  4  7  1  0
  7  8  1  0
  8  9  2  0
  1  2  2  0
  2  4  1  0
  4  5  2  0
  5  6  1  0
  6  3  2  0
  3  1  1  0
M  END
$$$$
O14757_PocketFlow_idx-in-all-generaetd-574
     RDKit          3D

 35 41  0  0  0  0  0  0  0  0999 V2000
    0.0138   -2.7927   42.5918 N   0  0  0  0  0  0  0  0  0  0  0  0
    1.0651   -2.2375   42.1679 C   0  0  0  0  0  0  0  0  0  0  0  0
    0.8947   -1.0867   41.3479 C   0  0  0  0  0  0  0  0  0  0  0  0
    2.1078   -0.3090   41.2076 C   0  0  0  0  0  0  0  0  0  0  0  0
    3.2530   -0.6966   41.8579 C   0  0  0  0  0  0  0  0  0  0  0  0
    3.2943   -1.7667   42.7668 C   0  0  0  0  0  0  0  0  0  0  0  0
    2.1563   -2.5113   42.9554 C   0  0  0  0  0  0  0  0  0  0  0  0
    2.0201   -3.5701   43.8094 N   0  0  0  0  0  0  0  0  0  0  0  0
    0.6219   -3.8754   43.5922 C   0  0  0  0  0  0  0  0  0  0  0  0
    2.8452   -4.2124   44.6442 C   0  0  0  0  0  0  0  0  0  0  0  0
    3.9369   -3.5258   45.1888 C   0  0  0  0  0  0  0  0  0  0  0  0
    4.7414   -4.0899   46.2270 C   0  0  0  0  0  0  0  0  0  0  0  0
    5.7946   -3.3437   46.8973 C   0  0  0  0  0  0  0  0  0  0  0  0
    6.1944   -2.1627   46.2749 C   0  0  0  0  0  0  0  0  0  0  0  0
    5.4578   -1.6256   45.1946 C   0  0  0  0  0  0  0  0  0  0  0  0
    4.4417   -2.2996   44.7017 C   0  0  0  0  0  0  0  0  0  0  0  0
    3.9344   -1.6723   43.5311 C   0  0  1  0  0  0  0  0  0  0  0  0
    6.5485   -3.9976   47.9776 C   0  0  0  0  0  0  0  0  0  0  0  0
    6.4775   -3.8971   49.0188 N   0  0  0  0  0  0  0  0  0  0  0  0
    7.6981   -4.6175   47.6112 N   0  0  0  0  0  0  0  0  0  0  0  0
    8.2589   -5.0793   48.7459 C   0  0  0  0  0  0  0  0  0  0  0  0
    7.0625   -4.4139   49.9626 C   0  0  0  0  0  0  0  0  0  0  0  0
    2.6064   -5.4176   44.8860 O   0  0  0  0  0  0  0  0  0  0  0  0
    5.1049   -0.7686   43.7495 N   0  0  0  0  0  0  0  0  0  0  0  0
    9.2261   -5.8859   49.2282 C   0  0  0  0  0  0  0  0  0  0  0  0
    9.3451   -6.2184   50.3522 C   0  0  0  0  0  0  0  0  0  0  0  0
    8.6836   -5.6228   51.4403 C   0  0  0  0  0  0  0  0  0  0  0  0
    7.5980   -4.7081   51.1744 C   0  0  0  0  0  0  0  0  0  0  0  0
    9.9489   -6.5017   48.0538 C   0  0  0  0  0  0  0  0  0  0  0  0
   11.0657   -5.8210   47.6074 C   0  0  0  0  0  0  0  0  0  0  0  0
    9.9360   -7.8627   47.9374 C   0  0  0  0  0  0  0  0  0  0  0  0
   10.4388   -8.4566   46.7472 C   0  0  0  0  0  0  0  0  0  0  0  0
   10.0426   -9.7581   46.4202 C   0  0  0  0  0  0  0  0  0  0  0  0
    8.8799  -10.0619   46.3923 C   0  0  0  0  0  0  0  0  0  0  0  0
    8.3593  -11.3989   46.1162 C   0  0  0  0  0  0  0  0  0  0  0  0
  1  2  1  0
  7  8  1  0
  1  9  2  0
  8  9  1  0
  8 10  1  0
 10 11  1  0
  6 17  1  0
 16 17  1  0
 13 18  1  0
 18 19  2  0
 18 20  1  0
 19 22  1  0
 10 23  2  0
 15 24  1  0
 17 24  1  6
 25 29  1  0
 29 30  2  0
 29 31  1  0
 31 32  1  0
 32 33  1  0
 33 34  2  3
 34 35  1  0
 20 21  1  0
 11 12  2  0
 12 13  1  0
 13 14  2  0
 14 15  1  0
 15 16  2  0
 16 11  1  0
  2  3  2  0
  3  4  1  0
  4  5  2  0
  5  6  1  0
  6  7  2  0
  7  2  1  0
 21 22  2  0
 22 28  1  0
 28 27  2  0
 27 26  1  0
 26 25  2  0
 25 21  1  0
M  END
$$$$
O14757_PocketFlow_idx-in-all-generaetd-575
     RDKit          3D

 14 15  0  0  0  0  0  0  0  0999 V2000
   -0.6395   -2.0713   41.4947 C   0  0  0  0  0  0  0  0  0  0  0  0
    0.6719   -2.2449   41.7518 C   0  0  0  0  0  0  0  0  0  0  0  0
    1.5951   -1.1948   41.6106 C   0  0  0  0  0  0  0  0  0  0  0  0
    2.9587   -1.3961   42.0240 C   0  0  0  0  0  0  0  0  0  0  0  0
    3.1652   -2.3460   43.1085 C   0  0  0  0  0  0  0  0  0  0  0  0
    4.5010   -2.4269   43.6771 C   0  0  0  0  0  0  0  0  0  0  0  0
    4.6828   -3.3864   44.7249 C   0  0  0  0  0  0  0  0  0  0  0  0
    3.6177   -4.3183   44.9719 C   0  0  0  0  0  0  0  0  0  0  0  0
    2.4149   -4.2162   44.3461 C   0  0  0  0  0  0  0  0  0  0  0  0
    2.1572   -3.2260   43.4208 C   0  0  0  0  0  0  0  0  0  0  0  0
    0.8810   -3.1540   42.8526 C   0  0  0  0  0  0  0  0  0  0  0  0
   -1.7179   -2.0447   41.1574 N   0  0  0  0  0  0  0  0  0  0  0  0
    5.9553   -3.4162   45.4299 C   0  0  0  0  0  0  0  0  0  0  0  0
    6.1103   -2.5906   46.6009 C   0  0  0  0  0  0  0  0  0  0  0  0
  1  2  1  0
  1 12  3  0
  7 13  1  0
 13 14  1  0
  2  3  2  0
  3  4  1  0
  4  5  2  0
 10 11  2  0
 11  2  1  0
  5  6  1  0
  6  7  2  0
  7  8  1  0
  8  9  2  0
  9 10  1  0
 10  5  1  0
M  END
$$$$
O14757_PocketFlow_idx-in-all-generaetd-576
     RDKit          3D

 13 13  0  0  0  0  0  0  0  0999 V2000
   -0.6395   -2.0713   41.4947 C   0  0  0  0  0  0  0  0  0  0  0  0
    0.1859   -1.1027   41.5970 C   0  0  0  0  0  0  0  0  0  0  0  0
    1.5836   -1.3270   41.4670 C   0  0  0  0  0  0  0  0  0  0  0  0
   -0.2462   -3.3905   41.2409 C   0  0  0  0  0  0  0  0  0  0  0  0
    2.3477   -1.2946   42.4061 C   0  0  0  0  0  0  0  0  0  0  0  0
    3.4036   -0.3247   42.5566 C   0  0  0  0  0  0  0  0  0  0  0  0
    4.5039   -0.4848   43.4699 C   0  0  0  0  0  0  0  0  0  0  0  0
    4.7147   -1.6153   44.1872 C   0  0  0  0  0  0  0  0  0  0  0  0
    5.7832   -1.7754   45.0546 C   0  0  0  0  0  0  0  0  0  0  0  0
    5.7858   -2.8640   45.9681 C   0  0  0  0  0  0  0  0  0  0  0  0
    4.7784   -3.8393   45.8506 C   0  0  0  0  0  0  0  0  0  0  0  0
    3.7132   -3.6346   45.0021 C   0  0  0  0  0  0  0  0  0  0  0  0
    3.6512   -2.5477   44.1489 C   0  0  0  0  0  0  0  0  0  0  0  0
  1  2  1  0
  2  3  2  3
  1  4  1  0
  3  5  1  0
  5  6  1  0
  6  7  2  3
  7  8  1  0
  8  9  2  0
  9 10  1  0
 10 11  2  0
 11 12  1  0
 12 13  2  0
 13  8  1  0
M  END
$$$$
O14757_PocketFlow_idx-in-all-generaetd-577
     RDKit          3D

 35 38  0  0  0  0  0  0  0  0999 V2000
   -0.6395   -2.0713   41.4947 C   0  0  2  0  0  0  0  0  0  0  0  0
   -0.3332   -1.0550   41.5644 N   0  0  0  0  0  0  0  0  0  0  0  0
    0.3239   -3.0948   41.3963 C   0  0  1  0  0  0  0  0  0  0  0  0
    1.0228   -0.7088   41.6009 C   0  0  0  0  0  0  0  0  0  0  0  0
    1.9102   -1.6153   41.6086 N   0  0  0  0  0  0  0  0  0  0  0  0
    1.5766   -2.8562   41.5183 C   0  0  0  0  0  0  0  0  0  0  0  0
   -2.0078   -2.4140   41.3697 N   0  0  0  0  0  0  0  0  0  0  0  0
    3.2663   -1.2081   41.8740 C   0  0  0  0  0  0  0  0  0  0  0  0
    3.5358    0.0144   42.4371 C   0  0  0  0  0  0  0  0  0  0  0  0
    4.8611    0.3036   42.8783 C   0  0  0  0  0  0  0  0  0  0  0  0
    5.7300   -0.8278   43.0935 C   0  0  0  0  0  0  0  0  0  0  0  0
    5.2159   -2.1340   42.9222 C   0  0  0  0  0  0  0  0  0  0  0  0
    3.9756   -2.2917   42.3986 C   0  0  0  0  0  0  0  0  0  0  0  0
   -2.7898   -1.7757   40.4130 C   0  0  0  0  0  0  0  0  0  0  0  0
   -4.2197   -2.2165   40.3753 C   0  0  0  0  0  0  0  0  0  0  0  0
   -4.9047   -1.4527   39.6097 O   0  0  0  0  0  0  0  0  0  0  0  0
   -0.1650   -4.4507   41.3474 N   0  0  0  0  0  0  0  0  0  0  0  0
   -4.4666   -3.3766   40.6088 O   0  0  0  0  0  0  0  0  0  0  0  0
    6.8703   -0.6315   43.7443 O   0  0  0  0  0  0  0  0  0  0  0  0
    7.2362   -1.5310   44.7627 C   0  0  0  0  0  0  0  0  0  0  0  0
    6.4689   -2.5051   45.3480 C   0  0  0  0  0  0  0  0  0  0  0  0
    7.0547   -3.2479   46.4056 C   0  0  0  0  0  0  0  0  0  0  0  0
    8.3101   -2.8859   46.9232 C   0  0  0  0  0  0  0  0  0  0  0  0
    8.4723   -1.2521   45.5188 C   0  0  0  0  0  0  0  0  0  0  0  0
    8.9864   -1.8638   46.5035 C   0  0  0  0  0  0  0  0  0  0  0  0
    8.7942   -3.7544   48.0777 C   0  0  0  0  0  0  0  0  0  0  0  0
    9.5557   -3.6721   48.7887 C   0  0  0  0  0  0  0  0  0  0  0  0
   10.1172   -2.2292   48.9211 C   0  0  0  0  0  0  0  0  0  0  0  0
   10.0612   -1.4429   47.6629 C   0  0  0  0  0  0  0  0  0  0  0  0
   11.1939   -1.7598   49.7738 C   0  0  0  0  0  0  0  0  0  0  0  0
   10.8480   -0.6121   50.4396 C   0  0  0  0  0  0  0  0  0  0  0  0
   11.1120   -0.5185   51.7973 C   0  0  0  0  0  0  0  0  0  0  0  0
   10.9351    0.6211   52.3838 N   0  0  0  0  0  0  0  0  0  0  0  0
   11.7966    1.6414   52.2801 C   0  0  0  0  0  0  0  0  0  0  0  0
   11.5576    2.7423   51.8308 C   0  0  0  0  0  0  0  0  0  0  0  0
  1  2  1  0
  4  5  1  0
  3  6  1  0
  5  6  1  0
  1  7  1  6
  5  8  1  0
  7 14  1  0
 14 15  1  0
 15 16  1  0
  3 17  1  1
 15 18  2  0
 11 19  1  0
 19 20  1  0
 28 30  1  0
 30 31  1  0
 31 32  1  0
 32 33  1  0
 33 34  1  0
 34 35  2  0
  4  2  1  0
  1  3  1  0
 20 21  2  0
 21 22  1  0
 22 23  2  0
 25 24  2  0
 24 20  1  0
  8  9  2  0
  9 10  1  0
 10 11  2  0
 11 12  1  0
 12 13  2  0
 13  8  1  0
 23 25  1  0
 25 29  1  0
 29 28  2  0
 28 27  1  0
 27 26  2  0
 26 23  1  0
M  END
$$$$
O14757_PocketFlow_idx-in-all-generaetd-578
     RDKit          3D

  9  9  0  0  0  0  0  0  0  0999 V2000
    0.2881   -2.9111   42.4378 C   0  0  0  0  0  0  0  0  0  0  0  0
    1.1784   -3.4293   42.9321 C   0  0  0  0  0  0  0  0  0  0  0  0
    2.4507   -2.7243   42.9621 C   0  0  0  0  0  0  0  0  0  0  0  0
    2.5762   -1.5430   42.3314 C   0  0  0  0  0  0  0  0  0  0  0  0
    0.2682   -1.7017   41.6882 C   0  0  0  0  0  0  0  0  0  0  0  0
    1.4524   -1.0424   41.6523 C   0  0  0  0  0  0  0  0  0  0  0  0
    3.6477   -3.1887   43.7399 C   0  0  0  0  0  0  0  0  0  0  0  0
    3.6644   -4.4752   44.3967 C   0  0  0  0  0  0  0  0  0  0  0  0
    4.7737   -4.7144   45.1974 C   0  0  0  0  0  0  0  0  0  0  0  0
  3  7  1  0
  7  8  2  3
  8  9  1  0
  1  2  2  0
  2  3  1  0
  3  4  2  0
  4  6  1  0
  6  5  2  0
  5  1  1  0
M  END
$$$$
O14757_PocketFlow_idx-in-all-generaetd-579
     RDKit          3D

 14 15  0  0  0  0  0  0  0  0999 V2000
   -0.6395   -2.0713   41.4947 C   0  0  0  0  0  0  0  0  0  0  0  0
   -0.2671   -3.2464   41.6546 C   0  0  0  0  0  0  0  0  0  0  0  0
    0.2277   -0.9875   41.6495 C   0  0  0  0  0  0  0  0  0  0  0  0
    1.6284   -1.2752   41.8841 C   0  0  0  0  0  0  0  0  0  0  0  0
    1.8971   -2.6873   42.1685 C   0  0  0  0  0  0  0  0  0  0  0  0
    0.9380   -3.6379   42.0922 C   0  0  0  0  0  0  0  0  0  0  0  0
    2.4263   -0.1961   42.1670 C   0  0  0  0  0  0  0  0  0  0  0  0
    3.6341   -0.2990   42.9972 C   0  0  0  0  0  0  0  0  0  0  0  0
    3.8974   -1.2955   43.7837 C   0  0  0  0  0  0  0  0  0  0  0  0
    5.0919   -1.3542   44.5742 C   0  0  0  0  0  0  0  0  0  0  0  0
    5.6982   -2.3030   44.9199 C   0  0  0  0  0  0  0  0  0  0  0  0
    5.1031   -3.6791   44.8109 C   0  0  0  0  0  0  0  0  0  0  0  0
    3.9376   -3.7226   44.0408 C   0  0  0  0  0  0  0  0  0  0  0  0
    3.4116   -2.6200   43.4957 C   0  0  0  0  0  0  0  0  0  0  0  0
  4  7  1  0
  7  8  1  0
  8  9  1  0
  1  2  2  0
  2  6  1  0
  6  5  2  0
  5  4  1  0
  4  3  2  0
  3  1  1  0
  9 10  2  0
 10 11  1  0
 11 12  2  0
 12 13  1  0
 13 14  2  0
 14  9  1  0
M  END
$$$$
O14757_PocketFlow_idx-in-all-generaetd-580
     RDKit          3D

 17 18  0  0  0  0  0  0  0  0999 V2000
    0.2881   -2.9111   42.4378 C   0  0  0  0  0  0  0  0  0  0  0  0
    1.3023   -2.0648   42.1981 C   0  0  0  0  0  0  0  0  0  0  0  0
    2.5313   -2.2887   42.6989 C   0  0  0  0  0  0  0  0  0  0  0  0
    3.5918   -1.3644   42.5325 C   0  0  0  0  0  0  0  0  0  0  0  0
    4.9074   -1.6090   43.1723 C   0  0  0  0  0  0  0  0  0  0  0  0
    5.7416   -0.6023   43.5479 C   0  0  0  0  0  0  0  0  0  0  0  0
   -0.8091   -2.9319   41.5347 C   0  0  0  0  0  0  0  0  0  0  0  0
    0.3740   -3.7907   43.5555 C   0  0  0  0  0  0  0  0  0  0  0  0
    1.6115   -3.8579   44.3332 C   0  0  0  0  0  0  0  0  0  0  0  0
    2.7091   -3.0104   43.9524 C   0  0  0  0  0  0  0  0  0  0  0  0
    5.3941    0.6260   42.9698 N   0  0  0  0  0  0  0  0  0  0  0  0
    4.1441    0.6959   42.3352 C   0  0  0  0  0  0  0  0  0  0  0  0
    3.2968   -0.1026   42.2403 C   0  0  0  0  0  0  0  0  0  0  0  0
    1.7159   -4.7594   45.4643 C   0  0  0  0  0  0  0  0  0  0  0  0
    0.6671   -5.0777   46.1045 N   0  0  0  0  0  0  0  0  0  0  0  0
    2.8405   -5.0822   45.9090 O   0  0  0  0  0  0  0  0  0  0  0  0
   -1.5756   -1.9873   41.3645 O   0  0  0  0  0  0  0  0  0  0  0  0
  3  4  1  0
  9 14  1  0
 14 15  1  0
 14 16  2  0
  7 17  1  0
  7  1  1  0
  4  5  2  0
  5  6  1  0
  6 11  2  0
 11 12  1  0
 12 13  2  0
 13  4  1  0
  1  2  2  0
  2  3  1  0
  3 10  2  0
 10  9  1  0
  9  8  2  0
  8  1  1  0
M  END
$$$$
O14757_PocketFlow_idx-in-all-generaetd-581
     RDKit          3D

 21 22  0  0  0  0  0  0  0  0999 V2000
   -0.6395   -2.0713   41.4947 C   0  0  0  0  0  0  0  0  0  0  0  0
    0.6719   -2.2449   41.7518 C   0  0  0  0  0  0  0  0  0  0  0  0
    1.5951   -1.1948   41.6106 C   0  0  0  0  0  0  0  0  0  0  0  0
    2.9587   -1.3961   42.0240 C   0  0  0  0  0  0  0  0  0  0  0  0
    3.8815   -0.3441   42.0598 C   0  0  0  0  0  0  0  0  0  0  0  0
   -1.0907   -0.7092   41.3763 C   0  0  0  0  0  0  0  0  0  0  0  0
    5.1514   -0.5484   42.6683 C   0  0  0  0  0  0  0  0  0  0  0  0
    5.2971   -1.7166   43.4995 C   0  0  0  0  0  0  0  0  0  0  0  0
    4.2746   -2.6771   43.5330 C   0  0  0  0  0  0  0  0  0  0  0  0
    4.4666   -3.7832   44.3711 C   0  0  0  0  0  0  0  0  0  0  0  0
    3.1083   -2.5127   42.8473 C   0  0  0  0  0  0  0  0  0  0  0  0
   -2.5100   -0.5627   41.1143 C   0  0  0  0  0  0  0  0  0  0  0  0
    5.0551   -3.7222   45.6692 C   0  0  0  0  0  0  0  0  0  0  0  0
    5.6935   -2.5707   46.1991 C   0  0  0  0  0  0  0  0  0  0  0  0
   -3.1560   -1.6740   40.7541 N   0  0  0  0  0  0  0  0  0  0  0  0
   -2.6485   -2.8826   40.6647 C   0  0  0  0  0  0  0  0  0  0  0  0
   -1.4667   -3.0845   41.0812 C   0  0  0  0  0  0  0  0  0  0  0  0
    6.9371   -2.2046   46.0290 C   0  0  0  0  0  0  0  0  0  0  0  0
    8.0373   -3.1511   46.3322 C   0  0  0  0  0  0  0  0  0  0  0  0
    9.3544   -2.6669   46.4820 C   0  0  0  0  0  0  0  0  0  0  0  0
    9.5627   -1.2963   46.1683 C   0  0  0  0  0  0  0  0  0  0  0  0
  1  2  1  0
  2  3  2  3
  3  4  1  0
  9 10  1  0
 10 13  2  3
 13 14  1  0
 14 18  2  3
 18 19  1  0
 19 20  2  3
 20 21  1  0
  1  6  2  0
  6 12  1  0
 12 15  2  0
 15 16  1  0
 16 17  2  0
 17  1  1  0
  4  5  2  0
  5  7  1  0
  7  8  2  0
  8  9  1  0
  9 11  2  0
 11  4  1  0
M  END
$$$$
O14757_PocketFlow_idx-in-all-generaetd-582
     RDKit          3D

 35 38  0  0  0  0  0  0  0  0999 V2000
   -0.6395   -2.0713   41.4947 C   0  0  0  0  0  0  0  0  0  0  0  0
    0.1859   -1.1027   41.5970 C   0  0  0  0  0  0  0  0  0  0  0  0
    1.5836   -1.3270   41.4670 C   0  0  0  0  0  0  0  0  0  0  0  0
   -0.2462   -3.3905   41.2409 C   0  0  0  0  0  0  0  0  0  0  0  0
    2.5675   -0.3473   41.7943 C   0  0  0  0  0  0  0  0  0  0  0  0
    3.8546   -0.6776   42.2362 C   0  0  0  0  0  0  0  0  0  0  0  0
    3.9971   -0.8191   43.6382 C   0  0  0  0  0  0  0  0  0  0  0  0
    5.3531   -1.1327   44.1210 C   0  0  0  0  0  0  0  0  0  0  0  0
    5.5678   -2.2292   44.9984 C   0  0  1  0  0  0  0  0  0  0  0  0
    4.7708   -3.3437   45.1299 C   0  0  0  0  0  0  0  0  0  0  0  0
    4.6745   -4.0463   46.2540 C   0  0  0  0  0  0  0  0  0  0  0  0
    3.7325   -5.0579   46.4213 C   0  0  0  0  0  0  0  0  0  0  0  0
    2.8362   -5.2812   45.3795 C   0  0  0  0  0  0  0  0  0  0  0  0
    1.9071   -6.3551   45.4789 C   0  0  0  0  0  0  0  0  0  0  0  0
    2.1051   -7.4925   45.4757 C   0  0  0  0  0  0  0  0  0  0  0  0
    3.1703   -4.4110   44.2950 C   0  0  0  0  0  0  0  0  0  0  0  0
    3.8803   -3.4661   44.0805 C   0  0  0  0  0  0  0  0  0  0  0  0
    0.4867   -5.8590   45.5540 C   0  0  0  0  0  0  0  0  0  0  0  0
   -0.5580   -6.8462   45.6263 C   0  0  0  0  0  0  0  0  0  0  0  0
    1.1689   -8.5654   45.6877 C   0  0  0  0  0  0  0  0  0  0  0  0
   -0.1576   -8.1684   45.7844 C   0  0  0  0  0  0  0  0  0  0  0  0
    1.1187   -3.6580   41.0964 C   0  0  0  0  0  0  0  0  0  0  0  0
    1.9836   -2.6061   41.2388 C   0  0  0  0  0  0  0  0  0  0  0  0
   -1.9893   -1.8738   41.6301 F   0  0  0  0  0  0  0  0  0  0  0  0
   -1.8354   -6.4761   45.7467 O   0  0  0  0  0  0  0  0  0  0  0  0
    6.9575   -2.2595   45.6555 C   0  0  0  0  0  0  0  0  0  0  0  0
    7.8490   -1.2103   45.6114 C   0  0  0  0  0  0  0  0  0  0  0  0
    7.4208   -3.4645   46.2616 C   0  0  0  0  0  0  0  0  0  0  0  0
    8.7170   -3.5416   46.8168 C   0  0  0  0  0  0  0  0  0  0  0  0
    9.1273   -1.2440   46.2723 C   0  0  0  0  0  0  0  0  0  0  0  0
    9.5295   -2.4097   46.8683 C   0  0  0  0  0  0  0  0  0  0  0  0
    9.1723   -4.7993   47.4203 C   0  0  0  0  0  0  0  0  0  0  0  0
    9.9259   -5.6018   46.6509 N   0  0  0  0  0  0  0  0  0  0  0  0
   10.0561   -6.9520   46.8097 C   0  0  0  0  0  0  0  0  0  0  0  0
    9.3083   -7.5313   47.7069 C   0  0  0  0  0  0  0  0  0  0  0  0
  3  5  1  0
  5  6  1  0
  6  7  1  0
  7  8  1  0
  9  8  1  6
  9 10  1  0
 13 14  1  0
  1 24  1  0
 19 25  1  0
  9 26  1  0
 29 32  1  0
 32 33  1  0
 33 34  2  3
 34 35  1  0
 14 15  2  0
 15 20  1  0
 20 21  2  0
 21 19  1  0
 19 18  2  0
 18 14  1  0
  1  2  2  0
  2  3  1  0
  3 23  2  0
 23 22  1  0
 22  4  2  0
  4  1  1  0
 26 27  2  0
 27 30  1  0
 30 31  2  0
 31 29  1  0
 29 28  2  0
 28 26  1  0
 10 11  2  0
 11 12  1  0
 12 13  2  0
 13 16  1  0
 16 17  2  0
 17 10  1  0
M  END
$$$$
O14757_PocketFlow_idx-in-all-generaetd-583
     RDKit          3D

 25 28  0  0  0  0  0  0  0  0999 V2000
   -0.6395   -2.0713   41.4947 C   0  0  0  0  0  0  0  0  0  0  0  0
    0.1859   -1.1027   41.5970 C   0  0  0  0  0  0  0  0  0  0  0  0
    1.5836   -1.3270   41.4669 C   0  0  0  0  0  0  0  0  0  0  0  0
   -0.2462   -3.3905   41.2409 C   0  0  0  0  0  0  0  0  0  0  0  0
    2.5675   -0.3472   41.7943 C   0  0  0  0  0  0  0  0  0  0  0  0
    3.8546   -0.6776   42.2362 C   0  0  0  0  0  0  0  0  0  0  0  0
    4.7501    0.3011   42.7357 C   0  0  0  0  0  0  0  0  0  0  0  0
    1.0806   -3.6013   41.1169 N   0  0  0  0  0  0  0  0  0  0  0  0
    1.9685   -2.5967   41.2223 C   0  0  0  0  0  0  0  0  0  0  0  0
    5.8506   -0.1842   43.3997 N   0  0  0  0  0  0  0  0  0  0  0  0
   -2.0366   -1.8914   41.6196 O   0  0  0  0  0  0  0  0  0  0  0  0
    5.7777   -1.4293   43.9973 C   0  0  0  0  0  0  0  0  0  0  0  0
    6.7923   -1.8395   44.9469 C   0  0  0  0  0  0  0  0  0  0  0  0
    4.6605   -2.1907   43.8116 C   0  0  0  0  0  0  0  0  0  0  0  0
    3.6408   -1.8792   42.9956 C   0  0  0  0  0  0  0  0  0  0  0  0
    7.9815   -1.1146   45.3685 C   0  0  0  0  0  0  0  0  0  0  0  0
    6.6485   -3.1065   45.6139 C   0  0  0  0  0  0  0  0  0  0  0  0
    7.5762   -3.4806   46.6246 C   0  0  0  0  0  0  0  0  0  0  0  0
    7.3422   -4.6293   47.4521 C   0  0  0  0  0  0  0  0  0  0  0  0
    8.2657   -4.8969   48.4998 C   0  0  0  0  0  0  0  0  0  0  0  0
    8.8650   -1.4718   46.3353 C   0  0  0  0  0  0  0  0  0  0  0  0
    8.6349   -2.6444   47.0153 C   0  0  0  0  0  0  0  0  0  0  0  0
    9.3183   -4.1092   48.8034 C   0  0  0  0  0  0  0  0  0  0  0  0
    9.5086   -2.9773   48.1466 C   0  0  0  0  0  0  0  0  0  0  0  0
   -2.7232   -1.3863   40.5245 C   0  0  0  0  0  0  0  0  0  0  0  0
  3  5  1  0
  5  6  1  0
  1 11  1  0
 12 13  1  0
 11 25  1  0
 13 16  2  0
 16 21  1  0
 21 22  2  0
 18 17  2  0
 17 13  1  0
  6  7  2  0
  7 10  1  0
 10 12  2  0
 12 14  1  0
 14 15  2  0
 15  6  1  0
 18 19  1  0
 19 20  2  0
 20 23  1  0
 23 24  2  0
 24 22  1  0
 22 18  1  0
  1  2  2  0
  2  3  1  0
  3  9  2  0
  9  8  1  0
  8  4  2  0
  4  1  1  0
M  END
$$$$
O14757_PocketFlow_idx-in-all-generaetd-584
     RDKit          3D

 18 19  0  0  0  0  0  0  0  0999 V2000
   -0.8794   -1.9236   41.9357 O   0  0  0  0  0  0  0  0  0  0  0  0
    0.3182   -2.2442   41.7073 C   0  0  0  0  0  0  0  0  0  0  0  0
    1.3930   -1.3691   41.5725 C   0  0  0  0  0  0  0  0  0  0  0  0
    2.5842   -1.6677   42.2358 C   0  0  0  0  0  0  0  0  0  0  0  0
    2.7668   -2.8138   43.0798 C   0  0  0  0  0  0  0  0  0  0  0  0
    3.9716   -3.0716   43.7755 C   0  0  0  0  0  0  0  0  0  0  0  0
    4.9620   -2.0337   43.7913 C   0  0  0  0  0  0  0  0  0  0  0  0
    4.7528   -0.8671   43.0215 C   0  0  0  0  0  0  0  0  0  0  0  0
    3.5420   -0.6570   42.3939 C   0  0  0  0  0  0  0  0  0  0  0  0
    4.1899   -4.2459   44.5473 C   0  0  0  0  0  0  0  0  0  0  0  0
    3.4571   -4.5203   45.7308 C   0  0  0  0  0  0  0  0  0  0  0  0
    0.4864   -3.5609   41.6790 O   0  0  0  0  0  0  0  0  0  0  0  0
    2.2293   -5.1493   45.4634 C   0  0  0  0  0  0  0  0  0  0  0  0
    0.9937   -4.5580   45.7481 C   0  0  0  0  0  0  0  0  0  0  0  0
   -0.2476   -5.2083   45.6714 C   0  0  0  0  0  0  0  0  0  0  0  0
   -0.1868   -6.5409   45.1111 C   0  0  0  0  0  0  0  0  0  0  0  0
    0.9930   -7.0742   44.7167 C   0  0  0  0  0  0  0  0  0  0  0  0
    2.1788   -6.4388   44.9272 C   0  0  0  0  0  0  0  0  0  0  0  0
  1  2  2  0
  2  3  1  0
  3  4  1  0
  6 10  1  0
 10 11  1  0
  2 12  1  0
 11 13  1  0
 13 14  2  0
 14 15  1  0
 15 16  2  0
 16 17  1  0
 17 18  2  0
 18 13  1  0
  4  5  2  0
  5  6  1  0
  6  7  2  0
  7  8  1  0
  8  9  2  0
  9  4  1  0
M  END
$$$$
O14757_PocketFlow_idx-in-all-generaetd-585
     RDKit          3D

 15 15  0  0  0  0  0  0  0  0999 V2000
   -0.6395   -2.0713   41.4947 C   0  0  0  0  0  0  0  0  0  0  0  0
   -0.2671   -3.2464   41.6546 C   0  0  0  0  0  0  0  0  0  0  0  0
   -2.0053   -1.6706   41.3987 C   0  0  0  0  0  0  0  0  0  0  0  0
   -2.2928   -0.3176   41.3208 C   0  0  0  0  0  0  0  0  0  0  0  0
   -3.5679   -0.0116   41.1750 N   0  0  0  0  0  0  0  0  0  0  0  0
    0.4132   -1.0390   41.4557 C   0  0  0  0  0  0  0  0  0  0  0  0
    1.7546   -1.3379   41.5356 C   0  0  0  0  0  0  0  0  0  0  0  0
    2.7371   -0.3829   41.6403 C   0  0  0  0  0  0  0  0  0  0  0  0
    3.9204   -0.6492   42.3819 C   0  0  0  0  0  0  0  0  0  0  0  0
    3.9761   -1.8764   43.1598 C   0  0  0  0  0  0  0  0  0  0  0  0
    5.0928   -2.2326   43.9671 C   0  0  0  0  0  0  0  0  0  0  0  0
    5.0859   -3.4166   44.7525 C   0  0  0  0  0  0  0  0  0  0  0  0
    3.9712   -4.2965   44.5256 C   0  0  0  0  0  0  0  0  0  0  0  0
    2.8643   -3.9079   43.8207 C   0  0  0  0  0  0  0  0  0  0  0  0
    2.8514   -2.7040   43.1321 C   0  0  0  0  0  0  0  0  0  0  0  0
  1  2  1  0
  1  3  2  3
  3  4  1  0
  4  5  1  0
  1  6  1  0
  6  7  1  0
  7  8  1  0
  8  9  2  3
  9 10  1  0
 10 11  2  0
 11 12  1  0
 12 13  2  0
 13 14  1  0
 14 15  2  0
 15 10  1  0
M  END
$$$$
O14757_PocketFlow_idx-in-all-generaetd-586
     RDKit          3D

 26 28  0  0  0  0  0  0  0  0999 V2000
   -0.6395   -2.0713   41.4947 C   0  0  0  0  0  0  0  0  0  0  0  0
    0.1859   -1.1027   41.5970 C   0  0  0  0  0  0  0  0  0  0  0  0
   -0.2410   -3.3795   41.5297 C   0  0  0  0  0  0  0  0  0  0  0  0
    1.6125   -1.3641   41.8466 C   0  0  0  0  0  0  0  0  0  0  0  0
    2.5720   -0.3568   42.0335 C   0  0  0  0  0  0  0  0  0  0  0  0
    3.8647   -0.6704   42.4195 C   0  0  0  0  0  0  0  0  0  0  0  0
    4.1194   -1.9335   43.0710 C   0  0  0  0  0  0  0  0  0  0  0  0
    2.9722   -2.8423   43.1550 C   0  0  0  0  0  0  0  0  0  0  0  0
    1.7954   -2.5063   42.6379 C   0  0  0  0  0  0  0  0  0  0  0  0
    0.8386   -3.5908   42.4008 C   0  0  0  0  0  0  0  0  0  0  0  0
    4.9271    0.1776   42.4430 N   0  0  0  0  0  0  0  0  0  0  0  0
   -1.9839   -1.6950   40.8736 C   0  0  0  0  0  0  0  0  0  0  0  0
   -3.3687   -1.0916   41.6876 P   0  0  0  0  0  0  0  0  0  0  0  0
   -4.5392   -1.2946   40.8076 O   0  0  0  0  0  0  0  0  0  0  0  0
   -2.9699    0.4570   41.6007 O   0  0  0  0  0  0  0  0  0  0  0  0
   -3.2154   -1.7407   42.9300 O   0  0  0  0  0  0  0  0  0  0  0  0
    3.2211   -3.9950   44.0539 C   0  0  0  0  0  0  0  0  0  0  0  0
    4.4350   -4.2380   44.6682 C   0  0  0  0  0  0  0  0  0  0  0  0
    4.9952   -3.5903   45.3103 C   0  0  1  0  0  0  0  0  0  0  0  0
    6.1177   -3.9656   46.2653 C   0  0  0  0  0  0  0  0  0  0  0  0
    6.2577   -3.0892   47.3123 C   0  0  0  0  0  0  0  0  0  0  0  0
    7.0123   -3.5493   48.4134 C   0  0  0  0  0  0  0  0  0  0  0  0
    7.3534   -4.8642   48.5983 C   0  0  0  0  0  0  0  0  0  0  0  0
    6.9769   -5.7087   47.6171 C   0  0  0  0  0  0  0  0  0  0  0  0
    6.2930   -5.2876   46.4599 C   0  0  0  0  0  0  0  0  0  0  0  0
    4.9326   -2.0239   45.2726 C   0  0  0  0  0  0  0  0  0  0  0  0
  6 11  1  0
  1 12  1  0
 12 13  1  0
 13 14  2  0
 13 15  1  0
 13 16  1  0
  8 17  1  0
 17 18  2  3
 18 19  1  0
 19 20  1  0
 19 26  1  6
  1  2  2  0
  2  4  1  0
  9 10  1  0
 10  3  2  0
  3  1  1  0
 20 21  2  0
 21 22  1  0
 22 23  2  0
 23 24  1  0
 24 25  2  0
 25 20  1  0
  4  5  2  0
  5  6  1  0
  6  7  2  0
  7  8  1  0
  8  9  2  0
  9  4  1  0
M  END
$$$$
O14757_PocketFlow_idx-in-all-generaetd-587
     RDKit          3D

 22 24  0  0  0  0  0  0  0  0999 V2000
    0.2881   -2.9111   42.4378 C   0  0  0  0  0  0  0  0  0  0  0  0
    1.1784   -3.4293   42.9321 C   0  0  0  0  0  0  0  0  0  0  0  0
    2.4696   -2.7231   42.8997 C   0  0  0  0  0  0  0  0  0  0  0  0
    3.6320   -3.1839   43.6508 C   0  0  0  0  0  0  0  0  0  0  0  0
    4.7810   -2.3542   43.7528 C   0  0  0  0  0  0  0  0  0  0  0  0
    0.4072   -1.7636   41.5649 C   0  0  0  0  0  0  0  0  0  0  0  0
    4.7773   -1.1151   43.1086 C   0  0  0  0  0  0  0  0  0  0  0  0
    5.8466   -0.2133   43.1679 C   0  0  0  0  0  0  0  0  0  0  0  0
    1.5777   -1.0764   41.5415 C   0  0  0  0  0  0  0  0  0  0  0  0
    2.6675   -1.5179   42.2639 C   0  0  0  0  0  0  0  0  0  0  0  0
    3.6618   -0.7305   42.3575 C   0  0  0  0  0  0  0  0  0  0  0  0
    3.5985   -4.4302   44.4332 C   0  0  0  0  0  0  0  0  0  0  0  0
    3.8921   -5.4724   44.1971 C   0  0  0  0  0  0  0  0  0  0  0  0
    3.8604   -6.6353   45.0964 C   0  0  0  0  0  0  0  0  0  0  0  0
    3.2711   -4.1858   45.8769 C   0  0  0  0  0  0  0  0  0  0  0  0
    3.0935   -5.0978   46.8475 C   0  0  0  0  0  0  0  0  0  0  0  0
    3.4910   -6.4024   46.3783 C   0  0  0  0  0  0  0  0  0  0  0  0
   -0.7503   -1.2735   40.9662 O   0  0  0  0  0  0  0  0  0  0  0  0
   -1.8807   -1.9221   41.2068 C   0  0  0  0  0  0  0  0  0  0  0  0
   -2.9545   -1.6537   40.2057 C   0  0  0  0  0  0  0  0  0  0  0  0
   -3.8570   -1.2584   40.3853 C   0  0  0  0  0  0  0  0  0  0  0  0
   -4.8264   -1.3127   39.2809 N   0  0  0  0  0  0  0  0  0  0  0  0
  7  8  1  0
  4 12  1  0
  6 18  1  0
 18 19  1  0
 19 20  1  0
 20 21  2  3
 21 22  1  0
 12 13  2  0
 13 14  1  0
 14 17  2  0
 17 16  1  0
 16 15  2  0
 15 12  1  0
  1  2  2  0
  2  3  1  0
 10  9  1  0
  9  6  2  0
  6  1  1  0
  3  4  2  0
  4  5  1  0
  5  7  2  0
  7 11  1  0
 11 10  2  0
 10  3  1  0
M  END
$$$$
O14757_PocketFlow_idx-in-all-generaetd-588
     RDKit          3D

 33 37  0  0  0  0  0  0  0  0999 V2000
   -0.6395   -2.0713   41.4947 C   0  0  0  0  0  0  0  0  0  0  0  0
    0.1859   -1.1027   41.5970 C   0  0  0  0  0  0  0  0  0  0  0  0
    1.5836   -1.3270   41.4670 C   0  0  0  0  0  0  0  0  0  0  0  0
   -0.2462   -3.3905   41.2409 C   0  0  0  0  0  0  0  0  0  0  0  0
    2.5675   -0.3473   41.7943 C   0  0  0  0  0  0  0  0  0  0  0  0
    3.8546   -0.6776   42.2362 C   0  0  2  0  0  0  0  0  0  0  0  0
    4.0126   -1.8382   43.0706 C   0  0  0  0  0  0  0  0  0  0  0  0
    2.8825   -2.7667   43.1615 C   0  0  0  0  0  0  0  0  0  0  0  0
    2.9695   -3.8587   44.0068 C   0  0  0  0  0  0  0  0  0  0  0  0
    4.1637   -4.2552   44.4988 C   0  0  0  0  0  0  0  0  0  0  0  0
    1.6328   -2.3939   42.4689 C   0  0  0  0  0  0  0  0  0  0  0  0
    0.9482   -3.6764   42.0688 C   0  0  0  0  0  0  0  0  0  0  0  0
    5.2318   -3.2971   44.6014 C   0  0  0  0  0  0  0  0  0  0  0  0
    5.1662   -2.1184   43.8575 C   0  0  0  0  0  0  0  0  0  0  0  0
   -2.1453   -1.7862   41.4160 C   0  0  0  0  0  0  0  0  0  0  0  0
    4.5956    0.5002   42.8797 C   0  0  0  0  0  0  0  0  0  0  0  0
   -2.8777   -2.5502   40.7149 O   0  0  0  0  0  0  0  0  0  0  0  0
   -2.5972   -0.6351   41.8203 O   0  0  0  0  0  0  0  0  0  0  0  0
    4.2709   -5.4939   45.3000 C   0  0  0  0  0  0  0  0  0  0  0  0
    5.0977   -5.5659   46.0972 F   0  0  0  0  0  0  0  0  0  0  0  0
    2.9353   -5.7775   45.6535 F   0  0  0  0  0  0  0  0  0  0  0  0
    4.3555   -6.4453   44.2325 F   0  0  0  0  0  0  0  0  0  0  0  0
    6.1772   -1.2299   43.9116 N   0  0  0  0  0  0  0  0  0  0  0  0
    5.9058    0.0851   43.4436 C   0  0  0  0  0  0  0  0  0  0  0  0
    7.2927   -1.4266   44.7373 C   0  0  0  0  0  0  0  0  0  0  0  0
    7.6185   -0.4738   45.7033 C   0  0  0  0  0  0  0  0  0  0  0  0
    8.8182   -0.8932   46.5354 C   0  0  0  0  0  0  0  0  0  0  0  0
    8.9727   -2.1745   47.0952 C   0  0  0  0  0  0  0  0  0  0  0  0
    7.9240   -2.9488   47.3565 C   0  0  0  0  0  0  0  0  0  0  0  0
    8.1239   -4.2111   48.0656 C   0  0  0  0  0  0  0  0  0  0  0  0
    9.3915   -4.4622   48.5393 C   0  0  0  0  0  0  0  0  0  0  0  0
   10.2407   -2.4715   47.7075 C   0  0  0  0  0  0  0  0  0  0  0  0
   10.4495   -3.6088   48.3999 C   0  0  0  0  0  0  0  0  0  0  0  0
  3  5  1  0
  6  5  1  1
  8 11  1  0
  1 15  1  0
  6 16  1  0
 15 17  2  0
 15 18  1  0
 10 19  1  0
 19 20  1  0
 19 21  1  0
 19 22  1  0
 14 23  1  0
 16 24  1  0
 23 24  1  0
 23 25  1  0
 25 26  2  3
 26 27  1  0
 27 28  1  0
  7  6  1  0
 28 29  2  0
 29 30  1  0
 30 31  2  0
 31 33  1  0
 33 32  2  0
 32 28  1  0
  7  8  2  0
  8  9  1  0
  9 10  2  0
 10 13  1  0
 13 14  2  0
 14  7  1  0
  1  2  2  0
  2  3  1  0
  3 11  2  0
 11 12  1  0
 12  4  2  0
  4  1  1  0
M  END
$$$$
O14757_PocketFlow_idx-in-all-generaetd-589
     RDKit          3D

 35 38  0  0  0  0  0  0  0  0999 V2000
   -0.6395   -2.0713   41.4947 C   0  0  0  0  0  0  0  0  0  0  0  0
    0.6719   -2.2449   41.7518 C   0  0  0  0  0  0  0  0  0  0  0  0
    1.5951   -1.1948   41.6106 C   0  0  0  0  0  0  0  0  0  0  0  0
    2.9587   -1.3961   42.0240 C   0  0  0  0  0  0  0  0  0  0  0  0
    3.8815   -0.3441   42.0598 C   0  0  0  0  0  0  0  0  0  0  0  0
   -1.5492   -3.1120   41.4053 C   0  0  0  0  0  0  0  0  0  0  0  0
   -0.9108   -4.3541   41.3985 N   0  0  0  0  0  0  0  0  0  0  0  0
    5.1176   -0.5596   42.7375 C   0  0  0  0  0  0  0  0  0  0  0  0
    5.2819   -1.7353   43.5305 C   0  0  0  0  0  0  0  0  0  0  0  0
    4.2758   -2.7042   43.5520 C   0  0  0  0  0  0  0  0  0  0  0  0
    3.0830   -2.4995   42.9242 C   0  0  0  0  0  0  0  0  0  0  0  0
    4.4301   -3.9140   44.3790 C   0  0  0  0  0  0  0  0  0  0  0  0
    3.7734   -4.0648   45.5534 C   0  0  0  0  0  0  0  0  0  0  0  0
    4.2586   -3.4248   46.6303 C   0  0  0  0  0  0  0  0  0  0  0  0
    2.5144   -4.7072   45.5959 C   0  0  0  0  0  0  0  0  0  0  0  0
    1.3756   -4.0748   45.9149 C   0  0  0  0  0  0  0  0  0  0  0  0
    0.1016   -4.7381   45.9047 C   0  0  0  0  0  0  0  0  0  0  0  0
    0.0691   -6.1363   45.5506 C   0  0  0  0  0  0  0  0  0  0  0  0
    1.2850   -6.7410   45.0577 C   0  0  0  0  0  0  0  0  0  0  0  0
    2.4764   -6.0535   45.1227 C   0  0  0  0  0  0  0  0  0  0  0  0
   -1.1736   -6.8638   45.4803 C   0  0  0  0  0  0  0  0  0  0  0  0
   -1.6736   -7.3395   46.4975 O   0  0  0  0  0  0  0  0  0  0  0  0
   -1.6897   -7.2188   44.3516 O   0  0  0  0  0  0  0  0  0  0  0  0
   -2.8113   -3.0067   40.9094 N   0  0  0  0  0  0  0  0  0  0  0  0
   -1.2082   -0.6774   41.3943 C   0  0  0  0  0  0  0  0  0  0  0  0
   -2.6268   -0.5691   41.1636 C   0  0  0  0  0  0  0  0  0  0  0  0
   -3.3243   -1.6980   40.8529 C   0  0  0  0  0  0  0  0  0  0  0  0
    0.9217   -3.6527   41.7599 C   0  0  0  0  0  0  0  0  0  0  0  0
    0.1494   -4.6126   41.7203 C   0  0  0  0  0  0  0  0  0  0  0  0
    5.2833   -4.2720   47.4397 C   0  0  0  0  0  0  0  0  0  0  0  0
    6.5823   -4.0201   47.3853 C   0  0  0  0  0  0  0  0  0  0  0  0
    7.4029   -3.7463   48.4034 C   0  0  0  0  0  0  0  0  0  0  0  0
    6.8909   -4.2433   49.7342 C   0  0  0  0  0  0  0  0  0  0  0  0
    7.7194   -3.9663   50.7815 N   0  0  0  0  0  0  0  0  0  0  0  0
    5.8409   -4.7628   49.8890 O   0  0  0  0  0  0  0  0  0  0  0  0
  3  4  1  0
 10 12  1  0
 12 13  1  0
 13 14  2  3
 13 15  1  0
 18 21  1  0
 21 22  1  0
 21 23  2  0
 14 30  1  0
 30 31  1  0
 31 32  2  3
 32 33  1  0
 33 34  1  0
 33 35  2  0
  3  2  1  0
  6 24  2  0
 24 27  1  0
 27 26  2  0
 26 25  1  0
 25  1  2  0
 15 16  2  0
 16 17  1  0
 17 18  2  0
 18 19  1  0
 19 20  2  0
 20 15  1  0
  4  5  2  0
  5  8  1  0
  8  9  2  0
  9 10  1  0
 10 11  2  0
 11  4  1  0
  1  2  1  0
  2 28  2  0
 28 29  1  0
 29  7  2  0
  7  6  1  0
  6  1  1  0
M  END
$$$$
O14757_PocketFlow_idx-in-all-generaetd-590
     RDKit          3D

 13 13  0  0  0  0  0  0  0  0999 V2000
   -0.6395   -2.0713   41.4947 C   0  0  0  0  0  0  0  0  0  0  0  0
    0.6719   -2.2449   41.7518 C   0  0  0  0  0  0  0  0  0  0  0  0
    1.5951   -1.1948   41.6106 C   0  0  0  0  0  0  0  0  0  0  0  0
    2.9587   -1.3961   42.0241 C   0  0  0  0  0  0  0  0  0  0  0  0
    3.1652   -2.3460   43.1085 C   0  0  0  0  0  0  0  0  0  0  0  0
    4.5010   -2.4269   43.6771 C   0  0  0  0  0  0  0  0  0  0  0  0
    4.6828   -3.3864   44.7249 C   0  0  0  0  0  0  0  0  0  0  0  0
    5.7960   -3.4493   45.5424 C   0  0  0  0  0  0  0  0  0  0  0  0
    6.3139   -2.3177   45.9553 C   0  0  0  0  0  0  0  0  0  0  0  0
    7.5944   -2.4089   46.7025 C   0  0  0  0  0  0  0  0  0  0  0  0
    7.9577   -3.6329   47.3020 C   0  0  0  0  0  0  0  0  0  0  0  0
    7.0821   -4.6906   47.0690 C   0  0  0  0  0  0  0  0  0  0  0  0
    6.0805   -4.6166   46.2226 C   0  0  0  0  0  0  0  0  0  0  0  0
  1  2  1  0
  2  3  2  3
  3  4  1  0
  4  5  2  3
  5  6  1  0
  6  7  2  3
  7  8  1  0
  8  9  2  0
  9 10  1  0
 10 11  2  0
 11 12  1  0
 12 13  2  0
 13  8  1  0
M  END
$$$$
O14757_PocketFlow_idx-in-all-generaetd-591
     RDKit          3D

  6  6  0  0  0  0  0  0  0  0999 V2000
   -0.6395   -2.0713   41.4947 C   0  0  0  0  0  0  0  0  0  0  0  0
    0.1859   -1.1027   41.5970 C   0  0  0  0  0  0  0  0  0  0  0  0
   -0.2410   -3.3795   41.5297 C   0  0  0  0  0  0  0  0  0  0  0  0
    1.6125   -1.3642   41.8466 C   0  0  0  0  0  0  0  0  0  0  0  0
    1.9568   -2.7213   42.1561 C   0  0  0  0  0  0  0  0  0  0  0  0
    0.9568   -3.6932   42.0424 C   0  0  0  0  0  0  0  0  0  0  0  0
  1  2  2  0
  2  4  1  0
  4  5  2  0
  5  6  1  0
  6  3  2  0
  3  1  1  0
M  END
$$$$
O14757_PocketFlow_idx-in-all-generaetd-592
     RDKit          3D

 24 27  0  0  0  0  0  0  0  0999 V2000
   -0.6395   -2.0713   41.4947 C   0  0  0  0  0  0  0  0  0  0  0  0
    0.6719   -2.2449   41.7518 C   0  0  0  0  0  0  0  0  0  0  0  0
    1.5951   -1.1948   41.6106 C   0  0  0  0  0  0  0  0  0  0  0  0
    2.9587   -1.3961   42.0240 C   0  0  0  0  0  0  0  0  0  0  0  0
    3.8815   -0.3441   42.0598 C   0  0  0  0  0  0  0  0  0  0  0  0
   -1.1016   -1.0539   41.4527 C   0  0  0  0  0  0  0  0  0  0  0  0
   -2.5908   -0.8481   41.1871 C   0  0  0  0  0  0  0  0  0  0  0  0
    5.1121   -0.5553   42.7793 C   0  0  0  0  0  0  0  0  0  0  0  0
    5.2622   -1.6946   43.6196 C   0  0  0  0  0  0  0  0  0  0  0  0
    6.3702   -1.8723   44.4871 C   0  0  0  0  0  0  0  0  0  0  0  0
    6.3343   -3.0676   45.3786 C   0  0  0  0  0  0  0  0  0  0  0  0
    5.2192   -3.8923   45.2637 C   0  0  0  0  0  0  0  0  0  0  0  0
    4.2082   -3.6484   44.3936 C   0  0  0  0  0  0  0  0  0  0  0  0
    4.1691   -2.5345   43.6307 C   0  0  0  0  0  0  0  0  0  0  0  0
    3.0143   -2.3722   42.8703 C   0  0  0  0  0  0  0  0  0  0  0  0
    7.4705   -3.2432   46.2760 C   0  0  0  0  0  0  0  0  0  0  0  0
    7.4229   -4.1274   47.3418 C   0  0  0  0  0  0  0  0  0  0  0  0
    8.4200   -4.1427   48.2885 C   0  0  0  0  0  0  0  0  0  0  0  0
    8.5645   -2.3583   46.3688 C   0  0  0  0  0  0  0  0  0  0  0  0
    9.5954   -2.3452   47.2513 C   0  0  0  0  0  0  0  0  0  0  0  0
    9.5094   -3.2170   48.2818 C   0  0  0  0  0  0  0  0  0  0  0  0
   -3.2332   -1.8740   40.6452 C   0  0  0  0  0  0  0  0  0  0  0  0
   -2.5718   -3.1604   40.5962 C   0  0  0  0  0  0  0  0  0  0  0  0
   -1.3009   -3.2647   41.0268 C   0  0  0  0  0  0  0  0  0  0  0  0
  1  2  1  0
  2  3  2  3
  3  4  1  0
 11 16  1  0
  1  6  2  0
  6  7  1  0
  7 22  2  0
 22 23  1  0
 23 24  2  0
 24  1  1  0
  9 10  1  0
 10 11  2  0
 11 12  1  0
 12 13  2  0
 13 14  1  0
 16 17  2  0
 17 18  1  0
 18 21  2  0
 21 20  1  0
 20 19  2  0
 19 16  1  0
  4  5  2  0
  5  8  1  0
  8  9  2  0
  9 14  1  0
 14 15  2  0
 15  4  1  0
M  END
$$$$
O14757_PocketFlow_idx-in-all-generaetd-593
     RDKit          3D

 16 17  0  0  0  0  0  0  0  0999 V2000
    0.2881   -2.9111   42.4378 C   0  0  0  0  0  0  0  0  0  0  0  0
    1.1784   -3.4293   42.9321 C   0  0  0  0  0  0  0  0  0  0  0  0
    2.4696   -2.7231   42.8997 C   0  0  0  0  0  0  0  0  0  0  0  0
    2.5380   -1.5398   42.2487 C   0  0  0  0  0  0  0  0  0  0  0  0
    0.2254   -1.7181   41.6878 C   0  0  0  0  0  0  0  0  0  0  0  0
    1.4043   -1.0577   41.5785 C   0  0  0  0  0  0  0  0  0  0  0  0
    3.6662   -3.1326   43.6719 C   0  0  0  0  0  0  0  0  0  0  0  0
    3.8770   -3.0926   44.8340 N   0  0  0  0  0  0  0  0  0  0  0  0
    5.0883   -3.3465   45.4046 C   0  0  0  0  0  0  0  0  0  0  0  0
    6.0180   -2.2765   45.3974 C   0  0  0  0  0  0  0  0  0  0  0  0
    7.3373   -2.4350   45.9232 C   0  0  0  0  0  0  0  0  0  0  0  0
    8.3174   -1.4854   45.8731 C   0  0  0  0  0  0  0  0  0  0  0  0
    9.4913   -1.7131   46.4304 N   0  0  0  0  0  0  0  0  0  0  0  0
    9.7387   -2.7991   47.0509 C   0  0  0  0  0  0  0  0  0  0  0  0
    7.8072   -3.6202   46.6223 C   0  0  0  0  0  0  0  0  0  0  0  0
    8.9182   -3.8090   47.1589 C   0  0  0  0  0  0  0  0  0  0  0  0
  3  7  1  0
  7  8  1  0
  8  9  1  0
  9 10  1  0
 10 11  1  0
  1  2  2  0
  2  3  1  0
  3  4  2  0
  4  6  1  0
  6  5  2  0
  5  1  1  0
 11 12  2  0
 12 13  1  0
 13 14  2  0
 14 16  1  0
 16 15  2  0
 15 11  1  0
M  END
$$$$
O14757_PocketFlow_idx-in-all-generaetd-594
     RDKit          3D

 11 11  0  0  0  0  0  0  0  0999 V2000
   -0.6395   -2.0713   41.4947 C   0  0  0  0  0  0  0  0  0  0  0  0
    0.6719   -2.2449   41.7518 C   0  0  0  0  0  0  0  0  0  0  0  0
    1.1287   -3.3339   42.4778 C   0  0  0  0  0  0  0  0  0  0  0  0
    0.1404   -4.2568   42.9148 C   0  0  0  0  0  0  0  0  0  0  0  0
    0.7128   -5.6680   43.9607 Br  0  0  0  0  0  0  0  0  0  0  0  0
   -1.0773   -0.9005   40.8114 C   0  0  0  0  0  0  0  0  0  0  0  0
   -1.8367   -0.3395   41.8317 C   0  0  0  0  0  0  0  0  0  0  0  0
    1.6284   -1.2060   41.4332 C   0  0  0  0  0  0  0  0  0  0  0  0
    2.7789   -1.0319   42.3400 C   0  0  0  0  0  0  0  0  0  0  0  0
    3.3706   -2.0557   42.9670 C   0  0  0  0  0  0  0  0  0  0  0  0
    2.4316   -3.2254   43.2982 C   0  0  0  0  0  0  0  0  0  0  0  0
  1  2  1  0
  3  4  1  0
  4  5  1  0
  1  6  1  0
  6  7  1  0
  2  3  2  0
  3 11  1  0
 11 10  2  0
 10  9  1  0
  9  8  2  0
  8  2  1  0
M  END
$$$$
O14757_PocketFlow_idx-in-all-generaetd-595
     RDKit          3D

  5  4  0  0  0  0  0  0  0  0999 V2000
   -0.8413   -1.9048   41.7918 F   0  0  0  0  0  0  0  0  0  0  0  0
   -0.4300   -2.8526   41.5038 C   0  0  0  0  0  0  0  0  0  0  0  0
    0.2504   -2.8054   40.4746 F   0  0  0  0  0  0  0  0  0  0  0  0
    0.3463   -3.4954   42.5049 F   0  0  0  0  0  0  0  0  0  0  0  0
   -1.4461   -3.7819   41.1543 F   0  0  0  0  0  0  0  0  0  0  0  0
  1  2  1  0
  2  3  1  0
  2  4  1  0
  2  5  1  0
M  END
$$$$
O14757_PocketFlow_idx-in-all-generaetd-596
     RDKit          3D

 29 31  0  0  0  0  0  0  0  0999 V2000
    0.2881   -2.9111   42.4378 C   0  0  0  0  0  0  0  0  0  0  0  0
    1.3023   -2.0648   42.1981 C   0  0  0  0  0  0  0  0  0  0  0  0
    0.9971   -0.8647   41.5341 C   0  0  0  0  0  0  0  0  0  0  0  0
    0.6374   -4.0117   43.1998 F   0  0  0  0  0  0  0  0  0  0  0  0
    2.0795    0.0907   41.4229 C   0  0  0  0  0  0  0  0  0  0  0  0
    3.1333   -0.0984   42.3375 C   0  0  0  0  0  0  0  0  0  0  0  0
    3.4749   -1.2663   42.6731 C   0  0  0  0  0  0  0  0  0  0  0  0
    4.7103   -1.4608   43.5083 C   0  0  0  0  0  0  0  0  0  0  0  0
    2.5346   -2.1908   42.8667 C   0  0  0  0  0  0  0  0  0  0  0  0
    4.9468   -1.3249   44.7798 C   0  0  0  0  0  0  0  0  0  0  0  0
    5.3215   -2.3908   45.6326 C   0  0  2  0  0  0  0  0  0  0  0  0
    6.6877   -2.5204   45.9146 C   0  0  0  0  0  0  0  0  0  0  0  0
    7.1205   -3.6591   46.7016 C   0  0  0  0  0  0  0  0  0  0  0  0
    8.5499   -3.8295   46.9604 C   0  0  0  0  0  0  0  0  0  0  0  0
   -0.8197   -2.4108   42.9924 F   0  0  0  0  0  0  0  0  0  0  0  0
   -0.1837   -3.4153   41.1807 F   0  0  0  0  0  0  0  0  0  0  0  0
    9.3468   -2.7163   46.8565 C   0  0  0  0  0  0  0  0  0  0  0  0
    8.8973   -1.5640   46.0868 C   0  0  0  0  0  0  0  0  0  0  0  0
    7.5821   -1.4120   45.7683 C   0  0  0  0  0  0  0  0  0  0  0  0
    4.6845   -3.6929   45.2184 C   0  0  0  0  0  0  0  0  0  0  0  0
    4.5312   -4.1931   44.0604 C   0  0  0  0  0  0  0  0  0  0  0  0
    3.8970   -5.5020   43.8990 C   0  0  0  0  0  0  0  0  0  0  0  0
    3.4674   -6.1093   45.1169 C   0  0  0  0  0  0  0  0  0  0  0  0
    4.2714   -4.5452   46.3160 C   0  0  0  0  0  0  0  0  0  0  0  0
    3.6909   -5.6426   46.3056 C   0  0  0  0  0  0  0  0  0  0  0  0
   10.7957   -2.7711   47.2010 C   0  0  0  0  0  0  0  0  0  0  0  0
   11.4255   -3.4742   46.4701 F   0  0  0  0  0  0  0  0  0  0  0  0
   11.3585   -1.5106   47.0813 F   0  0  0  0  0  0  0  0  0  0  0  0
   10.9208   -3.1812   48.8911 Cl  0  0  0  0  0  0  0  0  0  0  0  0
  1  2  1  0
  1  4  1  0
  7  8  1  0
  8 10  1  0
 11 10  1  6
  1 15  1  0
  1 16  1  0
 11 20  1  0
 17 26  1  0
 26 27  1  0
 26 28  1  0
 26 29  1  0
 11 12  1  0
 20 21  2  0
 21 22  1  0
 22 23  2  0
 23 25  1  0
 25 24  2  0
 24 20  1  0
 12 13  2  0
 13 14  1  0
 14 17  2  0
 17 18  1  0
 18 19  2  0
 19 12  1  0
  2  3  2  0
  3  5  1  0
  5  6  2  0
  6  7  1  0
  7  9  2  0
  9  2  1  0
M  END
$$$$
O14757_PocketFlow_idx-in-all-generaetd-597
     RDKit          3D

 31 34  0  0  0  0  0  0  0  0999 V2000
   -0.6395   -2.0713   41.4947 C   0  0  2  0  0  0  0  0  0  0  0  0
    0.6719   -2.2449   41.7518 C   0  0  0  0  0  0  0  0  0  0  0  0
    1.3815   -1.6359   42.7231 C   0  0  0  0  0  0  0  0  0  0  0  0
   -1.3884   -2.9047   40.6798 C   0  0  0  0  0  0  0  0  0  0  0  0
    2.7413   -2.0881   43.0207 C   0  0  0  0  0  0  0  0  0  0  0  0
    3.8593   -1.2723   42.8875 C   0  0  0  0  0  0  0  0  0  0  0  0
    3.9479    0.0424   42.4679 C   0  0  0  0  0  0  0  0  0  0  0  0
   -2.6931   -2.6179   40.5771 N   0  0  0  0  0  0  0  0  0  0  0  0
    5.0453   -1.7147   43.7441 C   0  0  0  0  0  0  0  0  0  0  0  0
    5.0819   -2.9858   44.2520 C   0  0  0  0  0  0  0  0  0  0  0  0
    3.9086   -3.7996   44.1791 C   0  0  0  0  0  0  0  0  0  0  0  0
    2.7445   -3.3192   43.6338 C   0  0  0  0  0  0  0  0  0  0  0  0
    3.8846   -5.1324   44.8300 C   0  0  0  0  0  0  0  0  0  0  0  0
    4.2599   -5.2806   46.0811 N   0  0  0  0  0  0  0  0  0  0  0  0
   -3.0803   -1.3950   41.0335 C   0  0  0  0  0  0  0  0  0  0  0  0
   -1.4177   -0.8726   41.7835 C   0  0  0  0  0  0  0  0  0  0  0  0
    3.4800   -6.1135   44.1698 O   0  0  0  0  0  0  0  0  0  0  0  0
    4.3184   -6.4879   46.8360 C   0  0  0  0  0  0  0  0  0  0  0  0
    5.0395    0.6836   42.3959 O   0  0  0  0  0  0  0  0  0  0  0  0
    2.8389    0.6157   42.1133 O   0  0  0  0  0  0  0  0  0  0  0  0
    3.7386   -7.5854   46.3181 C   0  0  0  0  0  0  0  0  0  0  0  0
    3.8481   -8.7736   47.1200 C   0  0  0  0  0  0  0  0  0  0  0  0
    3.1058   -9.9198   46.7267 C   0  0  0  0  0  0  0  0  0  0  0  0
    3.0152  -10.8471   47.7969 C   0  0  0  0  0  0  0  0  0  0  0  0
    3.8763  -10.9153   48.8280 C   0  0  0  0  0  0  0  0  0  0  0  0
    4.6565   -9.8148   49.1133 C   0  0  0  0  0  0  0  0  0  0  0  0
    4.6469   -8.7097   48.2624 C   0  0  0  0  0  0  0  0  0  0  0  0
    5.1810   -6.3653   47.9935 C   0  0  0  0  0  0  0  0  0  0  0  0
    5.2708   -7.4821   48.6550 C   0  0  0  0  0  0  0  0  0  0  0  0
    5.9953   -7.4497   49.8209 F   0  0  0  0  0  0  0  0  0  0  0  0
    2.3666   -9.9271   45.7189 O   0  0  0  0  0  0  0  0  0  0  0  0
  1  2  1  0
  2  3  2  3
  1  4  1  6
  3  5  1  0
  6  7  1  0
  4  8  1  0
 11 13  1  0
 13 14  1  0
  8 15  2  0
  1 16  1  0
 15 16  1  0
 13 17  2  0
 14 18  1  0
  7 19  2  0
  7 20  1  0
 29 30  1  0
 23 31  1  0
 18 21  2  0
 21 22  1  0
 27 29  1  0
 29 28  2  0
 28 18  1  0
 22 23  2  0
 23 24  1  0
 24 25  2  0
 25 26  1  0
 26 27  2  0
 27 22  1  0
  5  6  2  0
  6  9  1  0
  9 10  2  0
 10 11  1  0
 11 12  2  0
 12  5  1  0
M  END
$$$$
O14757_PocketFlow_idx-in-all-generaetd-598
     RDKit          3D

 35 36  0  0  0  0  0  0  0  0999 V2000
    0.2881   -2.9111   42.4378 C   0  0  0  0  0  0  0  0  0  0  0  0
   -0.0650   -2.5021   41.5798 C   0  0  0  0  0  0  0  0  0  0  0  0
    1.6108   -3.5167   42.6657 C   0  0  0  0  0  0  0  0  0  0  0  0
    2.4173   -2.8527   43.3962 C   0  0  0  0  0  0  0  0  0  0  0  0
    3.5549   -2.7452   43.5064 C   0  0  0  0  0  0  0  0  0  0  0  0
    4.3437   -1.6767   44.1974 C   0  0  0  0  0  0  0  0  0  0  0  0
    5.1298   -1.7603   45.2771 C   0  0  0  0  0  0  0  0  0  0  0  0
   -1.3933   -1.8945   41.3160 C   0  0  0  0  0  0  0  0  0  0  0  0
    5.4935   -3.0494   45.7799 C   0  0  0  0  0  0  0  0  0  0  0  0
    6.5939   -3.1800   46.6601 C   0  0  0  0  0  0  0  0  0  0  0  0
    7.8925   -2.8708   46.3952 C   0  0  0  0  0  0  0  0  0  0  0  0
    8.2344   -1.9850   45.2772 C   0  0  0  0  0  0  0  0  0  0  0  0
    8.9734   -3.4424   47.1629 C   0  0  0  0  0  0  0  0  0  0  0  0
    9.1312   -4.7459   47.2437 C   0  0  0  0  0  0  0  0  0  0  0  0
   10.2585   -5.3359   47.8787 C   0  0  0  0  0  0  0  0  0  0  0  0
   10.2930   -6.7853   47.9762 C   0  0  0  0  0  0  0  0  0  0  0  0
    9.2033   -7.5207   47.4861 C   0  0  0  0  0  0  0  0  0  0  0  0
    8.8188   -8.2309   48.0824 C   0  0  2  0  0  0  0  0  0  0  0  0
    7.4966   -8.8697   47.7184 C   0  0  0  0  0  0  0  0  0  0  0  0
    4.3847   -0.4392   43.3677 C   0  0  0  0  0  0  0  0  0  0  0  0
    4.7611    0.1110   42.4225 N   0  0  0  0  0  0  0  0  0  0  0  0
   -2.0456   -1.8406   42.2384 F   0  0  0  0  0  0  0  0  0  0  0  0
    6.3629   -8.3639   48.3184 C   0  0  0  0  0  0  0  0  0  0  0  0
    5.1122   -8.6573   47.9169 C   0  0  0  0  0  0  0  0  0  0  0  0
    4.7404   -9.9916   47.6800 C   0  0  0  0  0  0  0  0  0  0  0  0
    5.9251  -10.7609   47.2383 C   0  0  0  0  0  0  0  0  0  0  0  0
    7.2498  -10.2507   47.3153 C   0  0  0  0  0  0  0  0  0  0  0  0
    9.2563   -8.6336   49.3746 C   0  0  0  0  0  0  0  0  0  0  0  0
    8.5400   -8.7807   50.4005 C   0  0  0  0  0  0  0  0  0  0  0  0
    7.6133   -8.0555   50.9541 C   0  0  0  0  0  0  0  0  0  0  0  0
    6.8667   -8.2742   52.1395 C   0  0  0  0  0  0  0  0  0  0  0  0
    7.0664   -9.5606   52.6996 C   0  0  0  0  0  0  0  0  0  0  0  0
    7.9324  -10.4802   52.2255 C   0  0  0  0  0  0  0  0  0  0  0  0
    8.7123  -10.1336   51.1829 C   0  0  0  0  0  0  0  0  0  0  0  0
   10.7367   -8.8831   49.4855 C   0  0  0  0  0  0  0  0  0  0  0  0
  1  2  2  3
  1  3  1  0
  3  4  1  0
  4  5  1  0
  5  6  1  0
  6  7  2  3
  2  8  1  0
  7  9  1  0
  9 10  1  0
 10 11  2  3
 11 12  1  0
 11 13  1  0
 13 14  2  3
 14 15  1  0
 15 16  2  3
 16 17  1  0
 18 17  1  1
 18 19  1  0
  6 20  1  0
 20 21  3  0
  8 22  1  0
 18 28  1  0
 28 29  1  0
 28 35  1  0
 29 30  2  0
 30 31  1  0
 31 32  2  0
 32 33  1  0
 33 34  2  0
 34 29  1  0
 19 23  2  0
 23 24  1  0
 24 25  2  0
 25 26  1  0
 26 27  2  0
 27 19  1  0
M  END
$$$$
O14757_PocketFlow_idx-in-all-generaetd-599
     RDKit          3D

  6  6  0  0  0  0  0  0  0  0999 V2000
    0.2881   -2.9111   42.4378 C   0  0  0  0  0  0  0  0  0  0  0  0
    1.1784   -3.4293   42.9321 C   0  0  0  0  0  0  0  0  0  0  0  0
    2.4696   -2.7231   42.8997 C   0  0  0  0  0  0  0  0  0  0  0  0
    2.5380   -1.5398   42.2487 C   0  0  0  0  0  0  0  0  0  0  0  0
    0.2254   -1.7181   41.6878 C   0  0  0  0  0  0  0  0  0  0  0  0
    1.4043   -1.0577   41.5785 C   0  0  0  0  0  0  0  0  0  0  0  0
  1  2  2  0
  2  3  1  0
  3  4  2  0
  4  6  1  0
  6  5  2  0
  5  1  1  0
M  END
$$$$
O14757_PocketFlow_idx-in-all-generaetd-600
     RDKit          3D

 16 17  0  0  0  0  0  0  0  0999 V2000
   -0.6395   -2.0713   41.4947 C   0  0  0  0  0  0  0  0  0  0  0  0
   -0.2671   -3.2464   41.6546 C   0  0  0  0  0  0  0  0  0  0  0  0
    0.2407   -0.9706   41.5952 C   0  0  0  0  0  0  0  0  0  0  0  0
    1.6195   -1.2958   41.8767 C   0  0  0  0  0  0  0  0  0  0  0  0
    1.9162   -2.6816   42.2016 C   0  0  0  0  0  0  0  0  0  0  0  0
    0.9422   -3.6324   42.1156 C   0  0  0  0  0  0  0  0  0  0  0  0
    2.4522   -0.1918   42.1376 C   0  0  0  0  0  0  0  0  0  0  0  0
    3.7906   -0.4191   42.2910 N   0  0  0  0  0  0  0  0  0  0  0  0
    4.2656   -1.4828   42.9201 C   0  0  0  0  0  0  0  0  0  0  0  0
    5.5649   -1.2106   43.5945 C   0  0  0  0  0  0  0  0  0  0  0  0
    5.9846   -2.1723   44.6566 C   0  0  0  0  0  0  0  0  0  0  0  0
    5.2551   -3.3489   44.8769 C   0  0  0  0  0  0  0  0  0  0  0  0
    4.0667   -3.5299   44.1347 C   0  0  0  0  0  0  0  0  0  0  0  0
    3.5651   -2.5476   43.3649 C   0  0  0  0  0  0  0  0  0  0  0  0
    3.1582   -2.4506   44.3159 O   0  0  0  0  0  0  0  0  0  0  0  0
    3.0242   -3.2836   41.6618 O   0  0  0  0  0  0  0  0  0  0  0  0
  4  7  1  0
  7  8  1  0
  8  9  1  0
 14 15  1  0
  5 16  1  0
  1  2  2  0
  2  6  1  0
  6  5  2  0
  5  4  1  0
  4  3  2  0
  3  1  1  0
  9 10  2  0
 10 11  1  0
 11 12  2  0
 12 13  1  0
 13 14  2  0
 14  9  1  0
M  END
$$$$
O14757_PocketFlow_idx-in-all-generaetd-601
     RDKit          3D

 31 33  0  0  0  0  0  0  0  0999 V2000
   -0.6395   -2.0713   41.4947 C   0  0  0  0  0  0  0  0  0  0  0  0
   -0.2671   -3.2464   41.6546 C   0  0  0  0  0  0  0  0  0  0  0  0
   -1.9911   -1.6663   41.2869 C   0  0  0  0  0  0  0  0  0  0  0  0
   -2.3125   -0.3119   41.2742 C   0  0  0  0  0  0  0  0  0  0  0  0
   -3.5823   -0.0329   41.1226 N   0  0  0  0  0  0  0  0  0  0  0  0
    0.4113   -1.0147   41.4908 C   0  0  0  0  0  0  0  0  0  0  0  0
    1.7571   -1.2787   41.6189 C   0  0  0  0  0  0  0  0  0  0  0  0
    2.7253   -0.3453   41.6955 C   0  0  0  0  0  0  0  0  0  0  0  0
    3.3368   -0.1454   42.9342 C   0  0  0  0  0  0  0  0  0  0  0  0
    4.7656   -0.6508   42.9598 C   0  0  0  0  0  0  0  0  0  0  0  0
    5.0723   -1.4031   44.1889 C   0  0  1  0  0  0  0  0  0  0  0  0
    4.3209   -2.4759   44.6191 C   0  0  0  0  0  0  0  0  0  0  0  0
    4.6738   -3.2325   45.7293 C   0  0  0  0  0  0  0  0  0  0  0  0
    3.7993   -4.1191   46.3341 C   0  0  0  0  0  0  0  0  0  0  0  0
    2.6314   -4.4698   45.6401 C   0  0  0  0  0  0  0  0  0  0  0  0
    2.3389   -3.7787   44.4246 C   0  0  0  0  0  0  0  0  0  0  0  0
    3.1592   -2.7925   43.9291 C   0  0  0  0  0  0  0  0  0  0  0  0
    6.4337   -1.1783   44.7943 C   0  0  0  0  0  0  0  0  0  0  0  0
    1.0755   -4.1470   43.7282 C   0  0  0  0  0  0  0  0  0  0  0  0
    0.3087   -3.5456   42.7402 C   0  0  0  0  0  0  0  0  0  0  0  0
    0.4270   -5.4832   44.0510 C   0  0  0  0  0  0  0  0  0  0  0  0
   -0.6495   -5.7248   44.2050 O   0  0  0  0  0  0  0  0  0  0  0  0
    1.4070   -6.4959   44.2098 O   0  0  0  0  0  0  0  0  0  0  0  0
    7.5062   -1.7584   44.8272 N   0  0  0  0  0  0  0  0  0  0  0  0
    8.5064   -1.2474   45.6357 C   0  0  0  0  0  0  0  0  0  0  0  0
    9.0546   -1.9433   46.7837 C   0  0  0  0  0  0  0  0  0  0  0  0
   10.2121   -1.6354   47.3782 C   0  0  0  0  0  0  0  0  0  0  0  0
    8.2910   -3.0628   47.2334 C   0  0  0  0  0  0  0  0  0  0  0  0
    8.7211   -3.8939   47.7439 C   0  0  0  0  0  0  0  0  0  0  0  0
   10.7577   -2.5364   48.2958 C   0  0  0  0  0  0  0  0  0  0  0  0
   10.0172   -3.7543   48.5532 C   0  0  0  0  0  0  0  0  0  0  0  0
  1  2  2  0
  1  3  1  0
  3  4  1  0
  4  5  1  0
  1  6  1  0
  6  7  1  0
  7  8  1  0
  8  9  1  0
  9 10  1  0
 11 10  1  6
 11 12  1  0
 11 18  1  0
 16 19  1  0
  2 20  1  0
 19 20  2  0
 19 21  1  0
 21 22  2  0
 21 23  1  0
 18 24  2  3
 24 25  1  0
 25 26  1  0
 12 13  1  0
 13 14  2  0
 14 15  1  0
 15 16  2  0
 16 17  1  0
 17 12  2  0
 26 27  2  0
 27 30  1  0
 30 31  2  0
 31 29  1  0
 29 28  2  0
 28 26  1  0
M  END
$$$$
O14757_PocketFlow_idx-in-all-generaetd-602
     RDKit          3D

 13 14  0  0  0  0  0  0  0  0999 V2000
   -0.6395   -2.0713   41.4947 C   0  0  1  0  0  0  0  0  0  0  0  0
   -0.2671   -3.2464   41.6546 C   0  0  0  0  0  0  0  0  0  0  0  0
    0.2141   -1.0423   41.6157 N   0  0  0  0  0  0  0  0  0  0  0  0
    1.5212   -1.3365   41.8849 C   0  0  0  0  0  0  0  0  0  0  0  0
    1.8294   -2.4878   42.6575 C   0  0  2  0  0  0  0  0  0  0  0  0
    2.9872   -2.7117   43.3093 C   0  0  0  0  0  0  0  0  0  0  0  0
    3.2592   -3.8197   44.1253 C   0  0  0  0  0  0  0  0  0  0  0  0
    0.9347   -3.6093   42.3814 C   0  0  0  0  0  0  0  0  0  0  0  0
    4.4793   -3.8339   44.8672 C   0  0  0  0  0  0  0  0  0  0  0  0
    5.3112   -2.7312   44.8538 C   0  0  0  0  0  0  0  0  0  0  0  0
    4.0065   -1.6466   43.3992 C   0  0  0  0  0  0  0  0  0  0  0  0
    5.1356   -1.6834   44.1099 C   0  0  0  0  0  0  0  0  0  0  0  0
   -2.2456   -1.6584   41.0180 Cl  0  0  0  0  0  0  0  0  0  0  0  0
  1  2  1  0
  1  3  1  0
  3  4  1  0
  4  5  1  0
  5  6  1  6
  2  8  1  0
  5  8  1  0
  1 13  1  6
  6  7  2  0
  7  9  1  0
  9 10  2  0
 10 12  1  0
 12 11  2  0
 11  6  1  0
M  END
$$$$
O14757_PocketFlow_idx-in-all-generaetd-603
     RDKit          3D

 28 30  0  0  0  0  0  0  0  0999 V2000
   -0.8794   -1.9236   41.9357 O   0  0  0  0  0  0  0  0  0  0  0  0
    0.3182   -2.2442   41.7074 C   0  0  0  0  0  0  0  0  0  0  0  0
    1.3036   -2.2273   42.6607 C   0  0  0  0  0  0  0  0  0  0  0  0
    2.6349   -1.9130   42.3734 C   0  0  0  0  0  0  0  0  0  0  0  0
    3.5862   -1.7959   43.4053 C   0  0  0  0  0  0  0  0  0  0  0  0
    3.6114   -2.7137   44.4646 C   0  0  0  0  0  0  0  0  0  0  0  0
    2.3940   -3.5043   44.5782 C   0  0  0  0  0  0  0  0  0  0  0  0
    1.2301   -3.3415   43.7499 C   0  0  0  0  0  0  0  0  0  0  0  0
    4.5575   -3.0382   45.4285 C   0  0  0  0  0  0  0  0  0  0  0  0
    5.4875   -2.0242   45.8033 C   0  0  0  0  0  0  0  0  0  0  0  0
    4.6808   -4.2574   46.1210 C   0  0  0  0  0  0  0  0  0  0  0  0
    5.6297   -4.4121   47.1644 C   0  0  0  0  0  0  0  0  0  0  0  0
    6.6714   -2.2620   45.6255 C   0  0  0  0  0  0  0  0  0  0  0  0
    7.7951   -1.3365   45.6810 C   0  0  0  0  0  0  0  0  0  0  0  0
    6.9226   -3.6192   46.8544 C   0  0  0  0  0  0  0  0  0  0  0  0
    0.6377   -2.3342   40.5361 O   0  0  0  0  0  0  0  0  0  0  0  0
    8.2050   -3.7894   47.3953 C   0  0  0  0  0  0  0  0  0  0  0  0
    9.2388   -2.9202   47.3063 C   0  0  0  0  0  0  0  0  0  0  0  0
    9.0835   -1.7189   46.3701 C   0  0  0  0  0  0  0  0  0  0  0  0
    8.3961   -4.9763   48.1799 C   0  0  0  0  0  0  0  0  0  0  0  0
    7.8359   -5.1070   49.2500 C   0  0  0  0  0  0  0  0  0  0  0  0
    7.0241   -3.9425   49.8338 C   0  0  0  0  0  0  0  0  0  0  0  0
    4.7276   -1.0923   43.1433 N   0  0  0  0  0  0  0  0  0  0  0  0
    4.7283    0.3783   43.1699 C   0  0  0  0  0  0  0  0  0  0  0  0
    8.0466   -6.2982   50.0907 C   0  0  0  0  0  0  0  0  0  0  0  0
    8.8115   -7.1777   49.3372 F   0  0  0  0  0  0  0  0  0  0  0  0
    8.6022   -6.0041   51.2394 F   0  0  0  0  0  0  0  0  0  0  0  0
    6.8140   -6.8931   50.3082 F   0  0  0  0  0  0  0  0  0  0  0  0
  1  2  1  0
  2  3  1  0
  6  9  1  0
  2 16  2  0
 17 20  1  0
 20 21  2  3
 21 22  1  0
  5 23  1  0
 23 24  1  0
 21 25  1  0
 25 26  1  0
 25 27  1  0
 25 28  1  0
  3  4  2  0
  4  5  1  0
  5  6  2  0
  6  7  1  0
  7  8  2  0
  8  3  1  0
 13 14  2  0
 14 19  1  0
 19 18  2  0
 18 17  1  0
 17 15  2  0
  9 10  2  0
 10 13  1  0
 13 15  1  0
 15 12  1  0
 12 11  2  0
 11  9  1  0
M  END
$$$$
O14757_PocketFlow_idx-in-all-generaetd-604
     RDKit          3D

 21 24  0  0  0  0  0  0  0  0999 V2000
    0.0138   -2.7927   42.5918 N   0  0  0  0  0  0  0  0  0  0  0  0
    1.0651   -2.2375   42.1679 C   0  0  0  0  0  0  0  0  0  0  0  0
    0.8947   -1.0867   41.3479 C   0  0  0  0  0  0  0  0  0  0  0  0
    2.1078   -0.3090   41.2076 C   0  0  0  0  0  0  0  0  0  0  0  0
    3.1851   -0.6237   42.1115 C   0  0  0  0  0  0  0  0  0  0  0  0
    3.3263   -1.7514   42.8316 C   0  0  0  0  0  0  0  0  0  0  0  0
    2.1382   -2.5124   43.0049 C   0  0  0  0  0  0  0  0  0  0  0  0
    1.7790   -3.6435   43.8211 C   0  0  0  0  0  0  0  0  0  0  0  0
    0.4493   -3.8878   43.5158 C   0  0  0  0  0  0  0  0  0  0  0  0
    4.4923   -2.0853   43.6577 C   0  0  0  0  0  0  0  0  0  0  0  0
    4.7746   -3.1805   44.2620 N   0  0  0  0  0  0  0  0  0  0  0  0
    5.3730   -3.1989   45.4869 C   0  0  0  0  0  0  0  0  0  0  0  0
    6.4375   -2.2298   45.5313 C   0  0  0  0  0  0  0  0  0  0  0  0
    5.1949   -0.9821   44.1005 N   0  0  0  0  0  0  0  0  0  0  0  0
    6.2062   -1.0391   44.9010 N   0  0  0  0  0  0  0  0  0  0  0  0
    7.5657   -2.2963   46.5119 C   0  0  0  0  0  0  0  0  0  0  0  0
    8.3014   -3.2435   46.5972 C   0  0  0  0  0  0  0  0  0  0  0  0
    9.4389   -3.3221   47.4776 C   0  0  0  0  0  0  0  0  0  0  0  0
    9.8114   -2.1637   48.0334 C   0  0  0  0  0  0  0  0  0  0  0  0
    8.1960   -1.1056   47.0150 C   0  0  0  0  0  0  0  0  0  0  0  0
    9.2320   -1.0260   47.8115 C   0  0  0  0  0  0  0  0  0  0  0  0
  1  2  1  0
  7  8  1  0
  1  9  1  0
  8  9  2  0
  6 10  1  0
 13 16  1  0
  2  3  2  0
  3  4  1  0
  4  5  2  0
  5  6  1  0
  6  7  2  0
  7  2  1  0
 10 11  2  0
 11 12  1  0
 12 13  2  0
 13 15  1  0
 15 14  2  0
 14 10  1  0
 16 17  2  0
 17 18  1  0
 18 19  2  0
 19 21  1  0
 21 20  2  0
 20 16  1  0
M  END
$$$$
O14757_PocketFlow_idx-in-all-generaetd-605
     RDKit          3D

 35 38  0  0  0  0  0  0  0  0999 V2000
    0.0138   -2.7927   42.5918 N   0  0  0  0  0  0  0  0  0  0  0  0
    1.0651   -2.2375   42.1679 C   0  0  0  0  0  0  0  0  0  0  0  0
    0.8947   -1.0867   41.3479 C   0  0  0  0  0  0  0  0  0  0  0  0
    2.1078   -0.3090   41.2076 C   0  0  0  0  0  0  0  0  0  0  0  0
    3.2530   -0.6966   41.8579 C   0  0  0  0  0  0  0  0  0  0  0  0
    4.4594    0.0803   41.9292 C   0  0  0  0  0  0  0  0  0  0  0  0
    3.2380   -1.8263   42.7335 C   0  0  0  0  0  0  0  0  0  0  0  0
    2.1281   -2.5482   42.9316 C   0  0  0  0  0  0  0  0  0  0  0  0
    2.0203   -3.7232   43.7520 C   0  0  1  0  0  0  0  0  0  0  0  0
    2.8744   -4.3219   44.6147 C   0  0  0  0  0  0  0  0  0  0  0  0
    0.5335   -3.9824   43.6837 C   0  0  0  0  0  0  0  0  0  0  0  0
    3.9381   -3.6644   45.2208 C   0  0  0  0  0  0  0  0  0  0  0  0
    4.7760   -4.2120   46.2293 C   0  0  0  0  0  0  0  0  0  0  0  0
    5.8422   -3.4955   46.8809 C   0  0  0  0  0  0  0  0  0  0  0  0
    6.6276   -4.1713   47.8966 C   0  0  1  0  0  0  0  0  0  0  0  0
    7.6776   -3.5246   48.5489 C   0  0  0  0  0  0  0  0  0  0  0  0
    3.1034   -5.7494   44.6397 C   0  0  0  0  0  0  0  0  0  0  0  0
    8.0743   -3.9801   49.8069 C   0  0  0  0  0  0  0  0  0  0  0  0
    8.9212   -3.1735   50.5979 C   0  0  0  0  0  0  0  0  0  0  0  0
    9.6024   -2.1085   50.0128 C   0  0  0  0  0  0  0  0  0  0  0  0
    9.3463   -1.8035   48.6492 C   0  0  0  0  0  0  0  0  0  0  0  0
    8.4139   -2.4908   48.0091 C   0  0  0  0  0  0  0  0  0  0  0  0
    6.1903   -5.4627   48.3195 C   0  0  0  0  0  0  0  0  0  0  0  0
    5.8634   -6.3309   47.9299 Cl  0  0  0  0  0  0  0  0  0  0  0  0
    2.1303   -6.5680   44.8279 C   0  0  0  0  0  0  0  0  0  0  0  0
    1.5113   -6.7648   46.0859 C   0  0  0  0  0  0  0  0  0  0  0  0
    0.3983   -7.6929   46.2447 C   0  0  0  0  0  0  0  0  0  0  0  0
   -0.7091   -7.3654   45.2491 C   0  0  0  0  0  0  0  0  0  0  0  0
   -1.8659   -8.1579   45.2988 C   0  0  0  0  0  0  0  0  0  0  0  0
   -2.8105   -7.9388   44.2437 C   0  0  0  0  0  0  0  0  0  0  0  0
   -4.1139   -8.5216   44.4199 C   0  0  0  0  0  0  0  0  0  0  0  0
   -4.3056   -9.4318   45.4014 C   0  0  0  0  0  0  0  0  0  0  0  0
   -3.4003   -9.5823   46.4208 C   0  0  0  0  0  0  0  0  0  0  0  0
   -2.1985   -8.9081   46.4063 C   0  0  0  0  0  0  0  0  0  0  0  0
   -5.1747   -8.4143   43.4286 C   0  0  0  0  0  0  0  0  0  0  0  0
  1  2  1  0
  8  9  1  0
  9 10  1  0
  1 11  1  0
  9 11  1  1
 10 12  2  3
 12 13  1  0
 13 14  2  3
 14 15  1  0
 10 17  1  0
 15 23  1  1
 23 24  1  0
 17 25  1  0
 25 26  2  3
 26 27  1  0
 27 28  2  3
 28 29  1  0
 31 35  1  0
  6  5  1  0
 15 16  1  0
 29 30  2  0
 30 31  1  0
 31 32  2  0
 32 33  1  0
 33 34  2  0
 34 29  1  0
 16 18  2  0
 18 19  1  0
 19 20  2  0
 20 21  1  0
 21 22  2  0
 22 16  1  0
  2  3  2  0
  3  4  1  0
  4  5  2  0
  5  7  1  0
  7  8  2  0
  8  2  1  0
M  END
$$$$
O14757_PocketFlow_idx-in-all-generaetd-606
     RDKit          3D

 35 38  0  0  0  0  0  0  0  0999 V2000
   -0.6395   -2.0713   41.4947 C   0  0  0  0  0  0  0  0  0  0  0  0
   -0.2671   -3.2464   41.6546 C   0  0  0  0  0  0  0  0  0  0  0  0
    0.2277   -0.9875   41.6495 C   0  0  0  0  0  0  0  0  0  0  0  0
    1.6284   -1.2752   41.8841 C   0  0  0  0  0  0  0  0  0  0  0  0
    1.9209   -2.6657   42.2361 C   0  0  0  0  0  0  0  0  0  0  0  0
    0.9459   -3.6290   42.1337 C   0  0  0  0  0  0  0  0  0  0  0  0
    2.5663   -0.2443   42.1477 C   0  0  0  0  0  0  0  0  0  0  0  0
    3.9004   -0.5388   42.5613 C   0  0  0  0  0  0  0  0  0  0  0  0
    4.8726    0.4822   42.8152 C   0  0  0  0  0  0  0  0  0  0  0  0
   -2.0652   -1.7600   41.0612 C   0  0  0  0  0  0  0  0  0  0  0  0
   -2.5710   -0.6356   41.3509 O   0  0  0  0  0  0  0  0  0  0  0  0
   -2.7681   -2.6377   40.5279 O   0  0  0  0  0  0  0  0  0  0  0  0
    4.0536   -1.6486   43.4852 C   0  0  0  0  0  0  0  0  0  0  0  0
    5.2373   -1.7868   44.2996 C   0  0  0  0  0  0  0  0  0  0  0  0
    6.2662   -0.8395   44.2101 C   0  0  0  0  0  0  0  0  0  0  0  0
    5.9982    0.2383   43.5321 N   0  0  0  0  0  0  0  0  0  0  0  0
    5.3853   -3.0853   45.0020 C   0  0  0  0  0  0  0  0  0  0  0  0
    4.4631   -4.0348   45.0308 C   0  0  0  0  0  0  0  0  0  0  0  0
    3.6721   -4.4192   46.0185 C   0  0  0  0  0  0  0  0  0  0  0  0
    2.5429   -5.2951   45.9881 C   0  0  0  0  0  0  0  0  0  0  0  0
    1.3266   -4.8102   46.0356 C   0  0  0  0  0  0  0  0  0  0  0  0
    0.1489   -5.6489   45.9606 C   0  0  0  0  0  0  0  0  0  0  0  0
    0.2975   -6.9643   45.7110 C   0  0  0  0  0  0  0  0  0  0  0  0
    1.5800   -7.4760   45.5048 C   0  0  0  0  0  0  0  0  0  0  0  0
    2.7132   -6.6418   45.5461 C   0  0  0  0  0  0  0  0  0  0  0  0
   -0.8655   -7.8295   45.5526 C   0  0  0  0  0  0  0  0  0  0  0  0
   -2.2718   -7.5525   45.9169 Cl  0  0  0  0  0  0  0  0  0  0  0  0
    7.3298   -1.0452   44.9438 N   0  0  0  0  0  0  0  0  0  0  0  0
    6.5934   -3.1297   45.8433 C   0  0  0  0  0  0  0  0  0  0  0  0
    7.5146   -2.1944   45.9628 C   0  0  0  0  0  0  0  0  0  0  0  0
    8.7701   -2.2195   46.6187 C   0  0  0  0  0  0  0  0  0  0  0  0
    9.7145   -1.2130   46.6643 C   0  0  0  0  0  0  0  0  0  0  0  0
    9.1398   -3.4325   47.2672 C   0  0  0  0  0  0  0  0  0  0  0  0
   10.3548   -3.6577   47.9090 C   0  0  0  0  0  0  0  0  0  0  0  0
   10.9237   -1.3199   47.3593 C   0  0  0  0  0  0  0  0  0  0  0  0
  4  7  1  0
  1 10  1  0
 10 11  2  0
 10 12  1  0
 18 19  1  0
 23 26  1  0
 26 27  1  0
 30 31  1  0
 31 32  2  3
 31 33  1  0
 33 34  1  0
 32 35  1  0
 18 17  1  0
  7  8  1  0
 19 20  1  0
  8  9  2  0
  9 16  1  0
 16 15  2  0
 14 13  2  0
 13  8  1  0
 14 15  1  0
 15 28  1  0
 28 30  2  0
 30 29  1  0
 29 17  2  0
 17 14  1  0
  1  2  2  0
  2  6  1  0
  6  5  2  0
  5  4  1  0
  4  3  2  0
  3  1  1  0
 20 21  2  0
 21 22  1  0
 22 23  2  0
 23 24  1  0
 24 25  2  0
 25 20  1  0
M  END
$$$$
O14757_PocketFlow_idx-in-all-generaetd-607
     RDKit          3D

 25 26  0  0  0  0  0  0  0  0999 V2000
   -0.6395   -2.0713   41.4947 C   0  0  0  0  0  0  0  0  0  0  0  0
   -0.2671   -3.2464   41.6546 C   0  0  0  0  0  0  0  0  0  0  0  0
    0.2407   -0.9706   41.5952 C   0  0  0  0  0  0  0  0  0  0  0  0
    1.6195   -1.2958   41.8767 C   0  0  0  0  0  0  0  0  0  0  0  0
    1.9162   -2.6816   42.2016 C   0  0  0  0  0  0  0  0  0  0  0  0
    0.9422   -3.6324   42.1156 C   0  0  0  0  0  0  0  0  0  0  0  0
    2.6136   -0.2815   42.1191 C   0  0  0  0  0  0  0  0  0  0  0  0
    3.9096   -0.5773   42.5950 C   0  0  0  0  0  0  0  0  0  0  0  0
    4.9367    0.3662   42.6897 C   0  0  0  0  0  0  0  0  0  0  0  0
   -1.9685   -1.7782   41.0767 N   0  0  0  0  0  0  0  0  0  0  0  0
    4.1660   -1.8451   43.2136 C   0  0  0  0  0  0  0  0  0  0  0  0
    5.2550   -1.9601   44.1866 C   0  0  0  0  0  0  0  0  0  0  0  0
    6.2845   -0.9846   44.1776 C   0  0  0  0  0  0  0  0  0  0  0  0
    4.6827    1.4736   42.1090 N   0  0  0  0  0  0  0  0  0  0  0  0
    6.0734    0.0773   43.5804 C   0  0  0  0  0  0  0  0  0  0  0  0
    5.3945   -3.3347   44.7971 C   0  0  0  0  0  0  0  0  0  0  0  0
    4.5299   -4.2853   44.5770 N   0  0  0  0  0  0  0  0  0  0  0  0
    3.5146   -4.5901   45.4654 C   0  0  0  0  0  0  0  0  0  0  0  0
    3.0442   -5.7358   45.6636 C   0  0  0  0  0  0  0  0  0  0  0  0
    1.6604   -6.0778   45.3960 C   0  0  2  0  0  0  0  0  0  0  0  0
    0.8277   -5.0191   45.2725 C   0  0  0  0  0  0  0  0  0  0  0  0
   -0.5254   -5.1785   45.7959 C   0  0  0  0  0  0  0  0  0  0  0  0
   -1.1603   -6.3150   45.5178 O   0  0  0  0  0  0  0  0  0  0  0  0
    6.1321   -3.3217   45.8809 O   0  0  0  0  0  0  0  0  0  0  0  0
    1.1392   -7.3844   45.3641 C   0  0  0  0  0  0  0  0  0  0  0  0
  4  7  1  0
  1 10  1  0
  9 14  1  0
 12 16  1  0
 16 17  1  0
 17 18  1  0
 18 19  1  0
 19 20  1  0
 20 21  1  0
 21 22  1  0
 22 23  2  0
 16 24  2  0
 20 25  1  1
  7  8  1  0
  1  2  2  0
  2  6  1  0
  6  5  2  0
  5  4  1  0
  4  3  2  0
  3  1  1  0
  8  9  2  0
  9 15  1  0
 15 13  2  0
 13 12  1  0
 12 11  2  0
 11  8  1  0
M  END
$$$$
O14757_PocketFlow_idx-in-all-generaetd-608
     RDKit          3D

 35 37  0  0  0  0  0  0  0  0999 V2000
   -0.6395   -2.0713   41.4947 C   0  0  0  0  0  0  0  0  0  0  0  0
    0.1859   -1.1027   41.5970 C   0  0  0  0  0  0  0  0  0  0  0  0
    1.5858   -1.4431   41.9548 C   0  0  2  0  0  0  0  0  0  0  0  0
    1.8933   -1.7989   43.0657 C   0  0  0  0  0  0  0  0  0  0  0  0
    3.2900   -1.9767   43.4687 C   0  0  1  0  0  0  0  0  0  0  0  0
    4.2004   -0.9648   43.2725 C   0  0  0  0  0  0  0  0  0  0  0  0
    3.7133    0.1143   42.5713 C   0  0  0  0  0  0  0  0  0  0  0  0
   -0.1939   -3.2824   41.4630 O   0  0  0  0  0  0  0  0  0  0  0  0
   -1.9097   -1.9350   41.3717 O   0  0  0  0  0  0  0  0  0  0  0  0
    2.5016    0.0545   41.7336 C   0  0  0  0  0  0  0  0  0  0  0  0
    3.6980   -3.1725   44.3019 C   0  0  0  0  0  0  0  0  0  0  0  0
    3.0533   -4.3903   44.2996 C   0  0  0  0  0  0  0  0  0  0  0  0
    3.4157   -5.3264   45.2607 C   0  0  0  0  0  0  0  0  0  0  0  0
    4.4534   -5.0822   46.1841 C   0  0  0  0  0  0  0  0  0  0  0  0
    5.0750   -3.8156   46.1896 C   0  0  0  0  0  0  0  0  0  0  0  0
    4.6852   -2.8104   45.3155 C   0  0  0  0  0  0  0  0  0  0  0  0
    6.0822   -3.5621   47.1428 N   0  0  0  0  0  0  0  0  0  0  0  0
    6.2231   -4.0787   48.3933 C   0  0  0  0  0  0  0  0  0  0  0  0
    7.5202   -4.6343   48.7743 C   0  0  2  0  0  0  0  0  0  0  0  0
    7.5609   -5.5479   49.5789 C   0  0  0  0  0  0  0  0  0  0  0  0
    7.7669   -6.7444   49.1121 O   0  0  0  0  0  0  0  0  0  0  0  0
    7.4152   -3.1269   46.5261 C   0  0  0  0  0  0  0  0  0  0  0  0
    8.6252   -3.3483   47.1571 C   0  0  0  0  0  0  0  0  0  0  0  0
    8.6393   -4.1095   48.3137 C   0  0  0  0  0  0  0  0  0  0  0  0
    6.9112   -7.7790   49.2893 C   0  0  0  0  0  0  0  0  0  0  0  0
    5.8680   -7.7173   49.9533 C   0  0  0  0  0  0  0  0  0  0  0  0
    4.7802   -8.6921   49.8112 C   0  0  0  0  0  0  0  0  0  0  0  0
    3.7582   -8.8033   50.7495 C   0  0  0  0  0  0  0  0  0  0  0  0
    4.0991   -8.4535   52.1280 C   0  0  0  0  0  0  0  0  0  0  0  0
    2.8104   -9.8559   50.5842 C   0  0  0  0  0  0  0  0  0  0  0  0
    1.9710   -9.6246   49.5683 C   0  0  0  0  0  0  0  0  0  0  0  0
    0.5899   -9.8334   49.6809 C   0  0  0  0  0  0  0  0  0  0  0  0
   -0.2931   -9.4638   48.6477 C   0  0  0  0  0  0  0  0  0  0  0  0
   -1.6499   -9.3326   48.8146 C   0  0  0  0  0  0  0  0  0  0  0  0
   -2.2481  -10.0139   49.9156 C   0  0  0  0  0  0  0  0  0  0  0  0
  1  2  1  0
  3  2  1  1
  3  4  1  0
  4  5  1  0
  5  6  1  0
  6  7  3  0
  1  8  2  0
  1  9  1  0
  3 10  1  0
  7 10  1  0
  5 11  1  1
 15 17  1  0
 17 18  1  0
 18 19  1  0
 19 20  1  1
 20 21  1  0
 17 22  1  0
 19 24  1  0
 23 24  1  0
 21 25  1  0
 25 26  1  0
 26 27  2  3
 27 28  1  0
 28 29  2  0
 28 30  1  0
 30 31  1  0
 31 32  2  3
 32 33  1  0
 33 34  1  0
 34 35  1  0
 23 22  1  0
 11 12  2  0
 12 13  1  0
 13 14  2  0
 14 15  1  0
 15 16  2  0
 16 11  1  0
M  END
$$$$
O14757_PocketFlow_idx-in-all-generaetd-609
     RDKit          3D

 35 39  0  0  0  0  0  0  0  0999 V2000
   -0.6395   -2.0713   41.4947 C   0  0  0  0  0  0  0  0  0  0  0  0
   -0.2671   -3.2464   41.6546 C   0  0  0  0  0  0  0  0  0  0  0  0
   -0.3973   -1.1236   41.8820 C   0  0  0  0  0  0  0  0  0  0  0  0
    0.8910   -3.4382   42.5023 C   0  0  0  0  0  0  0  0  0  0  0  0
    1.4837   -2.2518   42.8648 C   0  0  0  0  0  0  0  0  0  0  0  0
    0.9066   -1.0463   42.5694 C   0  0  0  0  0  0  0  0  0  0  0  0
    2.7439   -2.3747   43.6272 C   0  0  0  0  0  0  0  0  0  0  0  0
    3.7878   -1.4640   43.5571 C   0  0  0  0  0  0  0  0  0  0  0  0
    4.9486   -1.6550   44.3285 C   0  0  0  0  0  0  0  0  0  0  0  0
    5.9876   -0.6952   44.3898 C   0  0  0  0  0  0  0  0  0  0  0  0
    3.1383   -3.4779   44.4399 C   0  0  0  0  0  0  0  0  0  0  0  0
    4.2208   -3.6956   45.0754 C   0  0  0  0  0  0  0  0  0  0  0  0
    5.1743   -2.7494   45.0598 C   0  0  0  0  0  0  0  0  0  0  0  0
    6.4212   -2.9178   45.8219 C   0  0  0  0  0  0  0  0  0  0  0  0
    7.4516   -1.9521   45.8219 C   0  0  0  0  0  0  0  0  0  0  0  0
    7.1687   -0.8164   45.0282 C   0  0  0  0  0  0  0  0  0  0  0  0
    8.6869   -2.1677   46.4874 C   0  0  0  0  0  0  0  0  0  0  0  0
    8.8935   -2.1662   47.6389 C   0  0  0  0  0  0  0  0  0  0  0  0
   10.1699   -2.1087   48.3082 C   0  0  0  0  0  0  0  0  0  0  0  0
   11.3131   -2.1071   47.4512 C   0  0  0  0  0  0  0  0  0  0  0  0
   11.1409   -2.0137   46.1028 C   0  0  0  0  0  0  0  0  0  0  0  0
    9.8893   -1.9132   45.6339 C   0  0  0  0  0  0  0  0  0  0  0  0
    4.3304   -4.9759   45.8885 C   0  0  0  0  0  0  0  0  0  0  0  0
    4.7847   -5.0037   47.0439 O   0  0  0  0  0  0  0  0  0  0  0  0
    3.9439   -6.0909   45.3872 O   0  0  0  0  0  0  0  0  0  0  0  0
   -1.9998   -2.1120   40.7607 O   0  0  0  0  0  0  0  0  0  0  0  0
   -2.9224   -1.1917   41.1440 C   0  0  0  0  0  0  0  0  0  0  0  0
   -4.0502   -1.1215   40.2211 C   0  0  0  0  0  0  0  0  0  0  0  0
   10.3232   -2.2216   49.7974 C   0  0  0  0  0  0  0  0  0  0  0  0
   10.6964   -1.2191   50.4260 C   0  0  0  0  0  0  0  0  0  0  0  0
   10.7998   -1.1220   51.8999 C   0  0  0  0  0  0  0  0  0  0  0  0
   11.0804    0.0052   52.5906 C   0  0  0  0  0  0  0  0  0  0  0  0
   11.3551    1.2323   51.8891 C   0  0  0  0  0  0  0  0  0  0  0  0
   11.2721    1.2026   50.4889 C   0  0  0  0  0  0  0  0  0  0  0  0
   10.9461    0.0868   49.8270 C   0  0  0  0  0  0  0  0  0  0  0  0
  5  7  1  0
 15 17  1  0
 12 23  1  0
 23 24  2  0
 23 25  1  0
  1 26  1  0
 26 27  1  0
 27 28  1  0
 19 29  1  0
 29 30  1  0
 17 18  2  0
 18 19  1  0
 19 20  2  0
 20 21  1  0
 21 22  2  0
 22 17  1  0
  1  2  2  0
  2  4  1  0
  4  5  2  0
  5  6  1  0
  6  3  2  0
  3  1  1  0
 30 31  2  0
 31 32  1  0
 32 33  2  0
 33 34  1  0
 34 35  2  0
 35 30  1  0
  7  8  2  0
  8  9  1  0
 13 12  1  0
 12 11  2  0
 11  7  1  0
  9 10  2  0
 10 16  1  0
 16 15  2  0
 15 14  1  0
 14 13  2  0
 13  9  1  0
M  END
$$$$
O14757_PocketFlow_idx-in-all-generaetd-610
     RDKit          3D

 16 17  0  0  0  0  0  0  0  0999 V2000
   -0.6395   -2.0713   41.4947 C   0  0  0  0  0  0  0  0  0  0  0  0
    0.6719   -2.2449   41.7518 C   0  0  0  0  0  0  0  0  0  0  0  0
    1.5951   -1.1948   41.6106 C   0  0  0  0  0  0  0  0  0  0  0  0
    1.2208    0.0789   41.5217 C   0  0  0  0  0  0  0  0  0  0  0  0
   -1.5615   -3.1145   41.4646 C   0  0  0  0  0  0  0  0  0  0  0  0
   -0.8858   -4.3261   41.4145 N   0  0  0  0  0  0  0  0  0  0  0  0
   -0.1187    0.2323   41.2786 N   0  0  0  0  0  0  0  0  0  0  0  0
   -1.0481   -0.6927   41.3388 C   0  0  0  0  0  0  0  0  0  0  0  0
   -2.2995   -0.3449   41.2033 N   0  0  0  0  0  0  0  0  0  0  0  0
    2.9584   -1.4656   41.9208 N   0  0  0  0  0  0  0  0  0  0  0  0
    3.4234   -2.1500   43.0957 C   0  0  0  0  0  0  0  0  0  0  0  0
    4.7005   -1.8241   43.5704 C   0  0  0  0  0  0  0  0  0  0  0  0
    5.2398   -2.4716   44.7093 C   0  0  0  0  0  0  0  0  0  0  0  0
    4.5624   -3.6239   45.1607 C   0  0  0  0  0  0  0  0  0  0  0  0
    2.8879   -3.3245   43.6640 C   0  0  0  0  0  0  0  0  0  0  0  0
    3.3993   -3.9855   44.6870 C   0  0  0  0  0  0  0  0  0  0  0  0
  5  6  1  0
  8  9  1  0
  3 10  1  0
 10 11  1  0
  5  1  1  0
  1  2  2  0
  2  3  1  0
  3  4  2  0
  4  7  1  0
  7  8  2  0
  8  1  1  0
 11 12  2  0
 12 13  1  0
 13 14  2  0
 14 16  1  0
 16 15  2  0
 15 11  1  0
M  END
$$$$
O14757_PocketFlow_idx-in-all-generaetd-611
     RDKit          3D

 35 38  0  0  0  0  0  0  0  0999 V2000
   -0.6395   -2.0713   41.4947 C   0  0  0  0  0  0  0  0  0  0  0  0
    0.6719   -2.2449   41.7518 C   0  0  0  0  0  0  0  0  0  0  0  0
    1.5951   -1.1948   41.6106 C   0  0  0  0  0  0  0  0  0  0  0  0
    2.9587   -1.3961   42.0240 C   0  0  0  0  0  0  0  0  0  0  0  0
    3.8815   -0.3441   42.0598 C   0  0  0  0  0  0  0  0  0  0  0  0
    5.0972   -0.5585   42.8399 C   0  0  0  0  0  0  0  0  0  0  0  0
    5.2418   -1.6670   43.6610 C   0  0  0  0  0  0  0  0  0  0  0  0
    4.2343   -2.6445   43.6677 C   0  0  0  0  0  0  0  0  0  0  0  0
    3.0537   -2.4403   42.9427 C   0  0  0  0  0  0  0  0  0  0  0  0
    4.3930   -3.8446   44.4975 C   0  0  0  0  0  0  0  0  0  0  0  0
    3.6685   -5.0327   44.2455 C   0  0  0  0  0  0  0  0  0  0  0  0
   -1.1700   -0.7750   41.3231 C   0  0  0  0  0  0  0  0  0  0  0  0
   -2.5661   -0.6721   41.0661 C   0  0  0  0  0  0  0  0  0  0  0  0
    2.4178   -5.0317   43.9489 C   0  0  0  0  0  0  0  0  0  0  0  0
    1.5563   -3.9878   43.7181 C   0  0  0  0  0  0  0  0  0  0  0  0
    1.8967   -3.1825   43.1443 C   0  0  0  0  0  0  0  0  0  0  0  0
    0.9901   -2.9784   42.6040 O   0  0  0  0  0  0  0  0  0  0  0  0
   -3.1902   -0.9761   39.9654 C   0  0  0  0  0  0  0  0  0  0  0  0
   -4.7246   -0.9043   40.0330 C   0  0  0  0  0  0  0  0  0  0  0  0
    6.3962   -1.8118   44.4077 N   0  0  0  0  0  0  0  0  0  0  0  0
    6.4654   -2.3584   45.6843 C   0  0  0  0  0  0  0  0  0  0  0  0
    7.8592   -2.4518   46.2049 C   0  0  0  0  0  0  0  0  0  0  0  0
    8.1973   -3.3251   47.2036 C   0  0  0  0  0  0  0  0  0  0  0  0
    9.4602   -3.4706   47.7437 C   0  0  0  0  0  0  0  0  0  0  0  0
   10.4479   -2.6063   47.2107 C   0  0  0  0  0  0  0  0  0  0  0  0
   10.1114   -1.6368   46.2598 C   0  0  0  0  0  0  0  0  0  0  0  0
    8.8180   -1.4948   45.8324 C   0  0  0  0  0  0  0  0  0  0  0  0
    5.6154   -2.9290   46.2884 O   0  0  0  0  0  0  0  0  0  0  0  0
    0.2400   -4.2504   44.6468 C   0  0  0  0  0  0  0  0  0  0  0  0
    0.4650   -3.7681   45.9853 N   0  0  0  0  0  0  0  0  0  0  0  0
   -5.1357   -0.1486   40.9414 O   0  0  0  0  0  0  0  0  0  0  0  0
   -5.4074   -1.6791   39.4075 O   0  0  0  0  0  0  0  0  0  0  0  0
    9.8036   -4.5873   48.6133 C   0  0  0  0  0  0  0  0  0  0  0  0
   10.0551   -4.4829   49.6450 C   0  0  0  0  0  0  0  0  0  0  0  0
    9.8198   -3.2505   50.3616 C   0  0  0  0  0  0  0  0  0  0  0  0
  1  2  1  0
  2  3  2  0
  3  4  1  0
  8 10  1  0
 10 11  2  0
  1 12  2  3
 12 13  1  0
 11 14  1  0
 14 15  2  0
  9 16  1  0
 15 16  1  0
  2 17  1  0
 16 17  1  0
 13 18  2  3
 18 19  1  0
  7 20  1  0
 20 21  1  0
 21 22  1  0
 21 28  2  0
 15 29  1  0
 29 30  1  0
 19 31  2  0
 19 32  1  0
 24 33  1  0
 33 34  1  0
 34 35  1  0
 22 23  2  0
 23 24  1  0
 24 25  2  0
 25 26  1  0
 26 27  2  0
 27 22  1  0
  4  5  2  0
  5  6  1  0
  6  7  2  0
  7  8  1  0
  8  9  2  0
  9  4  1  0
M  END
$$$$
O14757_PocketFlow_idx-in-all-generaetd-612
     RDKit          3D

 20 22  0  0  0  0  0  0  0  0999 V2000
    0.2881   -2.9111   42.4378 C   0  0  0  0  0  0  0  0  0  0  0  0
   -0.0650   -2.5021   41.5798 C   0  0  0  0  0  0  0  0  0  0  0  0
    1.5584   -2.5265   43.0885 C   0  0  0  0  0  0  0  0  0  0  0  0
    2.2571   -1.5118   42.4661 C   0  0  0  0  0  0  0  0  0  0  0  0
    1.6355   -0.8966   41.3660 C   0  0  0  0  0  0  0  0  0  0  0  0
    0.4783   -1.3291   40.8710 C   0  0  0  0  0  0  0  0  0  0  0  0
    3.5156   -1.0635   43.0107 C   0  0  0  0  0  0  0  0  0  0  0  0
    4.1074   -1.7575   44.0946 C   0  0  0  0  0  0  0  0  0  0  0  0
    4.0781   -3.0391   44.4220 C   0  0  0  0  0  0  0  0  0  0  0  0
    4.8371   -3.5182   45.4798 C   0  0  0  0  0  0  0  0  0  0  0  0
    5.7759   -2.6583   46.0148 C   0  0  0  0  0  0  0  0  0  0  0  0
    6.0483   -1.4501   45.5453 C   0  0  0  0  0  0  0  0  0  0  0  0
    5.2384   -0.9297   44.6070 C   0  0  0  0  0  0  0  0  0  0  0  0
    4.0847    0.0904   42.4001 C   0  0  0  0  0  0  0  0  0  0  0  0
    6.6723   -3.3630   47.1056 C   0  0  0  0  0  0  0  0  0  0  0  0
    8.0566   -3.1994   47.0890 C   0  0  0  0  0  0  0  0  0  0  0  0
    8.8389   -3.8772   47.9969 C   0  0  0  0  0  0  0  0  0  0  0  0
    8.2340   -4.7220   48.9471 C   0  0  0  0  0  0  0  0  0  0  0  0
    6.2050   -4.2476   48.0830 C   0  0  0  0  0  0  0  0  0  0  0  0
    6.8808   -4.8354   49.0116 C   0  0  0  0  0  0  0  0  0  0  0  0
  4  7  1  0
  7  8  1  0
  7 14  1  0
 11 15  1  0
 15 16  2  0
 16 17  1  0
 17 18  2  0
 18 20  1  0
 20 19  2  0
 19 15  1  0
  1  2  2  0
  2  6  1  0
  6  5  2  0
  5  4  1  0
  4  3  2  0
  3  1  1  0
  8  9  2  0
  9 10  1  0
 10 11  2  0
 11 12  1  0
 12 13  2  0
 13  8  1  0
M  END
$$$$
O14757_PocketFlow_idx-in-all-generaetd-613
     RDKit          3D

  6  6  0  0  0  0  0  0  0  0999 V2000
   -0.6395   -2.0713   41.4947 C   0  0  0  0  0  0  0  0  0  0  0  0
    0.1859   -1.1027   41.5970 C   0  0  0  0  0  0  0  0  0  0  0  0
   -0.2410   -3.3795   41.5297 C   0  0  0  0  0  0  0  0  0  0  0  0
    1.6125   -1.3641   41.8466 C   0  0  0  0  0  0  0  0  0  0  0  0
    1.9568   -2.7213   42.1561 C   0  0  0  0  0  0  0  0  0  0  0  0
    0.9568   -3.6932   42.0424 C   0  0  0  0  0  0  0  0  0  0  0  0
  1  2  2  0
  2  4  1  0
  4  5  2  0
  5  6  1  0
  6  3  2  0
  3  1  1  0
M  END
$$$$
O14757_PocketFlow_idx-in-all-generaetd-614
     RDKit          3D

 28 30  0  0  0  0  0  0  0  0999 V2000
   -0.6395   -2.0713   41.4947 C   0  0  0  0  0  0  0  0  0  0  0  0
    0.6719   -2.2449   41.7518 C   0  0  1  0  0  0  0  0  0  0  0  0
    1.1287   -3.3339   42.4778 C   0  0  0  0  0  0  0  0  0  0  0  0
    2.4060   -3.3351   43.0418 C   0  0  0  0  0  0  0  0  0  0  0  0
    2.8579   -4.2212   44.0684 C   0  0  0  0  0  0  0  0  0  0  0  0
    1.9658   -5.2493   44.5126 C   0  0  0  0  0  0  0  0  0  0  0  0
    0.6257   -5.1305   44.0221 C   0  0  0  0  0  0  0  0  0  0  0  0
    0.2110   -4.2316   43.0836 C   0  0  0  0  0  0  0  0  0  0  0  0
    1.6164   -1.3409   41.1839 C   0  0  0  0  0  0  0  0  0  0  0  0
    4.2243   -4.1285   44.5905 C   0  0  0  0  0  0  0  0  0  0  0  0
    4.6197   -4.7443   45.6573 C   0  0  0  0  0  0  0  0  0  0  0  0
    5.7262   -4.2372   46.4707 C   0  0  0  0  0  0  0  0  0  0  0  0
    6.5240   -3.1966   45.9888 C   0  0  0  0  0  0  0  0  0  0  0  0
    5.9861   -2.3776   44.9209 C   0  0  0  0  0  0  0  0  0  0  0  0
    4.8391   -2.8029   44.2650 C   0  0  0  0  0  0  0  0  0  0  0  0
    2.0610   -0.8218   42.0600 F   0  0  0  0  0  0  0  0  0  0  0  0
    7.7426   -2.7307   46.6472 C   0  0  0  0  0  0  0  0  0  0  0  0
    8.4047   -3.6384   47.5452 C   0  0  0  0  0  0  0  0  0  0  0  0
    9.5792   -3.2095   48.1528 C   0  0  0  0  0  0  0  0  0  0  0  0
    8.4477   -1.5981   46.3077 C   0  0  0  0  0  0  0  0  0  0  0  0
    9.6323   -1.1771   46.9471 C   0  0  0  0  0  0  0  0  0  0  0  0
   10.2037   -1.9977   47.8529 C   0  0  0  0  0  0  0  0  0  0  0  0
   -0.2936   -6.2486   44.4910 C   0  0  0  0  0  0  0  0  0  0  0  0
   -1.0796   -6.7548   43.7096 O   0  0  0  0  0  0  0  0  0  0  0  0
   -0.4476   -6.4535   45.8650 N   0  0  0  0  0  0  0  0  0  0  0  0
   -1.3205   -7.4246   46.4105 C   0  0  0  0  0  0  0  0  0  0  0  0
   -2.2642   -7.5847   46.0083 C   0  0  0  0  0  0  0  0  0  0  0  0
   -2.7247   -7.3083   44.7946 C   0  0  0  0  0  0  0  0  0  0  0  0
  2  1  1  6
  2  9  1  0
  5 10  1  0
  9 16  1  0
 13 17  1  0
  7 23  1  0
 23 24  2  0
 23 25  1  0
 25 26  1  0
 26 27  2  3
 27 28  1  0
  2  3  1  0
 17 18  2  0
 18 19  1  0
 19 22  2  0
 22 21  1  0
 21 20  2  0
 20 17  1  0
  3  4  2  0
  4  5  1  0
  5  6  2  0
  6  7  1  0
  7  8  2  0
  8  3  1  0
 10 11  2  0
 11 12  1  0
 12 13  2  0
 13 14  1  0
 14 15  2  0
 15 10  1  0
M  END
$$$$
O14757_PocketFlow_idx-in-all-generaetd-615
     RDKit          3D

 35 38  0  0  0  0  0  0  0  0999 V2000
   -0.6395   -2.0713   41.4947 C   0  0  0  0  0  0  0  0  0  0  0  0
    0.1859   -1.1027   41.5970 C   0  0  0  0  0  0  0  0  0  0  0  0
   -0.2410   -3.3795   41.5297 C   0  0  0  0  0  0  0  0  0  0  0  0
    1.6125   -1.3641   41.8466 C   0  0  0  0  0  0  0  0  0  0  0  0
    1.9568   -2.7213   42.1561 C   0  0  0  0  0  0  0  0  0  0  0  0
    0.9568   -3.6932   42.0424 C   0  0  0  0  0  0  0  0  0  0  0  0
    2.6822   -0.4672   42.1526 C   0  0  2  0  0  0  0  0  0  0  0  0
    2.5988    0.9135   41.8118 C   0  0  0  0  0  0  0  0  0  0  0  0
    3.9429   -0.9476   42.6249 C   0  0  0  0  0  0  0  0  0  0  0  0
    4.4868   -0.5066   43.7332 C   0  0  0  0  0  0  0  0  0  0  0  0
    5.1801   -1.3398   44.6402 C   0  0  0  0  0  0  0  0  0  0  0  0
    4.4941   -2.4707   45.2078 C   0  0  0  0  0  0  0  0  0  0  0  0
    5.2160   -3.2440   46.1760 C   0  0  0  0  0  0  0  0  0  0  0  0
    4.5448   -4.2121   46.9693 C   0  0  0  0  0  0  0  0  0  0  0  0
    5.4558   -4.9543   47.8430 C   0  0  0  0  0  0  0  0  0  0  0  0
    6.8140   -4.5263   48.0286 C   0  0  0  0  0  0  0  0  0  0  0  0
    7.3888   -3.5843   47.2213 C   0  0  0  0  0  0  0  0  0  0  0  0
    6.6334   -2.9662   46.2464 C   0  0  0  0  0  0  0  0  0  0  0  0
    6.5621   -1.1415   44.9475 C   0  0  0  0  0  0  0  0  0  0  0  0
    7.2147   -1.9172   45.6192 N   0  0  0  0  0  0  0  0  0  0  0  0
   -1.9348   -1.7684   41.1243 O   0  0  0  0  0  0  0  0  0  0  0  0
    8.8314   -3.3066   47.3887 C   0  0  0  0  0  0  0  0  0  0  0  0
    9.5832   -3.9978   48.0124 C   0  0  0  0  0  0  0  0  0  0  0  0
    8.9653   -5.0799   48.7840 C   0  0  0  0  0  0  0  0  0  0  0  0
    7.6536   -5.3724   48.7940 C   0  0  0  0  0  0  0  0  0  0  0  0
   -2.4290   -0.5402   41.3487 C   0  0  0  0  0  0  0  0  0  0  0  0
   -3.7247   -0.2689   40.7633 C   0  0  0  0  0  0  0  0  0  0  0  0
   -4.1044    0.9863   40.9102 O   0  0  0  0  0  0  0  0  0  0  0  0
   -4.2259   -1.0502   39.9030 O   0  0  0  0  0  0  0  0  0  0  0  0
    7.1089   -6.4113   49.6703 C   0  0  0  0  0  0  0  0  0  0  0  0
    5.9520   -6.5766   49.7182 O   0  0  0  0  0  0  0  0  0  0  0  0
    7.9273   -7.0860   50.3566 O   0  0  0  0  0  0  0  0  0  0  0  0
    5.4596   -7.9731   50.0197 C   0  0  0  0  0  0  0  0  0  0  0  0
    4.8480   -8.2547   50.7639 C   0  0  0  0  0  0  0  0  0  0  0  0
    4.2313   -9.5863   51.0456 C   0  0  0  0  0  0  0  0  0  0  0  0
  4  7  1  0
  7  8  1  6
  7  9  1  0
  9 10  1  0
 10 11  1  0
  1 21  1  0
 21 26  1  0
 26 27  2  3
 27 28  1  0
 27 29  1  0
 25 30  1  0
 30 31  1  0
 30 32  2  0
 31 33  1  0
 33 34  2  3
 34 35  1  0
  1  2  2  0
  2  4  1  0
  4  5  2  0
  5  6  1  0
  6  3  2  0
  3  1  1  0
 13 14  2  0
 14 15  1  0
 15 16  2  0
 17 18  2  0
 16 17  1  0
 17 22  1  0
 22 23  2  0
 23 24  1  0
 24 25  2  0
 25 16  1  0
 11 12  2  0
 12 13  1  0
 13 18  1  0
 18 20  1  0
 20 19  2  0
 19 11  1  0
M  END
$$$$
O14757_PocketFlow_idx-in-all-generaetd-616
     RDKit          3D

 23 23  0  0  0  0  0  0  0  0999 V2000
   -0.6395   -2.0713   41.4947 C   0  0  1  0  0  0  0  0  0  0  0  0
   -0.2671   -3.2464   41.6546 C   0  0  0  0  0  0  0  0  0  0  0  0
   -2.0053   -1.6706   41.3987 C   0  0  0  0  0  0  0  0  0  0  0  0
   -2.2862   -0.2693   41.2308 C   0  0  0  0  0  0  0  0  0  0  0  0
    0.7664   -3.6072   42.3355 O   0  0  0  0  0  0  0  0  0  0  0  0
    0.6064   -3.9877   43.5716 C   0  0  0  0  0  0  0  0  0  0  0  0
    1.0273   -5.0698   44.1680 C   0  0  0  0  0  0  0  0  0  0  0  0
    1.6352   -5.2745   45.0104 C   0  0  0  0  0  0  0  0  0  0  0  0
    2.3313   -5.2143   45.7297 C   0  0  1  0  0  0  0  0  0  0  0  0
    3.2579   -4.0989   46.0605 C   0  0  0  0  0  0  0  0  0  0  0  0
    3.3976   -2.9379   45.4374 C   0  0  0  0  0  0  0  0  0  0  0  0
    4.6554   -2.1421   45.7609 C   0  0  0  0  0  0  0  0  0  0  0  0
    4.9119   -0.9711   45.0242 C   0  0  0  0  0  0  0  0  0  0  0  0
    4.4128   -0.8024   43.7083 C   0  0  0  0  0  0  0  0  0  0  0  0
    3.4290   -1.7410   43.2743 C   0  0  0  0  0  0  0  0  0  0  0  0
    3.0647   -2.8398   44.0638 C   0  0  0  0  0  0  0  0  0  0  0  0
    1.6005   -6.4359   45.1736 F   0  0  0  0  0  0  0  0  0  0  0  0
    4.8134    0.4387   42.6724 Cl  0  0  0  0  0  0  0  0  0  0  0  0
    0.5313   -6.0682   43.3191 O   0  0  0  0  0  0  0  0  0  0  0  0
    1.9805   -5.5585   46.9313 F   0  0  0  0  0  0  0  0  0  0  0  0
   -3.5950    0.0897   41.0588 N   0  0  0  0  0  0  0  0  0  0  0  0
    2.9073   -1.6194   42.0305 O   0  0  0  0  0  0  0  0  0  0  0  0
    0.2231   -0.9219   41.5793 C   0  0  0  0  0  0  0  0  0  0  0  0
  1  2  1  0
  1  3  1  0
  3  4  1  0
  2  5  1  0
  5  6  1  0
  6  7  1  0
  7  8  2  3
  8  9  1  0
  9 10  1  0
 10 11  1  0
  8 17  1  0
 14 18  1  0
  7 19  1  0
  9 20  1  1
  4 21  1  0
 15 22  1  0
  1 23  1  1
 11 12  2  0
 12 13  1  0
 13 14  2  0
 14 15  1  0
 15 16  2  0
 16 11  1  0
M  END
$$$$
O14757_PocketFlow_idx-in-all-generaetd-617
     RDKit          3D

 10 10  0  0  0  0  0  0  0  0999 V2000
   -0.6395   -2.0713   41.4947 C   0  0  0  0  0  0  0  0  0  0  0  0
   -0.2671   -3.2464   41.6546 C   0  0  0  0  0  0  0  0  0  0  0  0
    0.2277   -0.9875   41.6495 C   0  0  0  0  0  0  0  0  0  0  0  0
    1.6284   -1.2752   41.8841 C   0  0  0  0  0  0  0  0  0  0  0  0
    2.6421   -0.3335   42.0825 C   0  0  0  0  0  0  0  0  0  0  0  0
    3.8981   -0.6935   42.5215 C   0  0  0  0  0  0  0  0  0  0  0  0
    4.0258   -1.9928   43.1167 C   0  0  0  0  0  0  0  0  0  0  0  0
    5.2363   -2.4335   43.7574 C   0  0  0  0  0  0  0  0  0  0  0  0
    1.0955   -3.6210   42.0127 C   0  0  0  0  0  0  0  0  0  0  0  0
    1.9982   -2.5564   42.2728 C   0  0  0  0  0  0  0  0  0  0  0  0
  4  5  1  0
  5  6  2  3
  6  7  1  0
  7  8  1  0
  1  2  2  0
  2  9  1  0
  9 10  2  0
 10  4  1  0
  4  3  2  0
  3  1  1  0
M  END
$$$$
O14757_PocketFlow_idx-in-all-generaetd-618
     RDKit          3D

 35 36  0  0  0  0  0  0  0  0999 V2000
   -0.6395   -2.0713   41.4947 C   0  0  0  0  0  0  0  0  0  0  0  0
    0.1859   -1.1027   41.5970 C   0  0  0  0  0  0  0  0  0  0  0  0
   -0.2410   -3.3795   41.5297 C   0  0  0  0  0  0  0  0  0  0  0  0
    1.6125   -1.3642   41.8466 C   0  0  0  0  0  0  0  0  0  0  0  0
    1.9568   -2.7213   42.1561 C   0  0  0  0  0  0  0  0  0  0  0  0
    0.9568   -3.6932   42.0424 C   0  0  0  0  0  0  0  0  0  0  0  0
    2.5392   -0.3092   42.1184 C   0  0  0  0  0  0  0  0  0  0  0  0
    3.8447   -0.5588   42.5830 C   0  0  0  0  0  0  0  0  0  0  0  0
    4.1653   -1.7547   43.2622 C   0  0  0  0  0  0  0  0  0  0  0  0
    3.1200   -2.8861   43.0287 C   0  0  0  0  0  0  0  0  0  0  0  0
    5.3381   -2.0280   43.9553 C   0  0  0  0  0  0  0  0  0  0  0  0
    5.3932   -1.8837   45.3631 C   0  0  0  0  0  0  0  0  0  0  0  0
    6.3855   -2.4375   46.1362 C   0  0  0  0  0  0  0  0  0  0  0  0
    6.1492   -3.6947   46.6966 C   0  0  0  0  0  0  0  0  0  0  0  0
    6.1595   -3.6948   47.9432 C   0  0  0  0  0  0  0  0  0  0  0  0
   -2.0369   -1.7636   40.9836 C   0  0  0  0  0  0  0  0  0  0  0  0
   -2.7841   -2.6631   40.5068 O   0  0  0  0  0  0  0  0  0  0  0  0
   -2.5244   -0.5196   41.2214 N   0  0  0  0  0  0  0  0  0  0  0  0
    5.5449   -4.7605   48.6740 C   0  0  0  0  0  0  0  0  0  0  0  0
    6.2140   -5.9387   48.4814 C   0  0  0  0  0  0  0  0  0  0  0  0
    5.3346   -7.0596   48.3946 C   0  0  0  0  0  0  0  0  0  0  0  0
    6.0897   -8.3495   48.4777 C   0  0  0  0  0  0  0  0  0  0  0  0
    5.2666   -9.4659   48.1177 C   0  0  0  0  0  0  0  0  0  0  0  0
    4.0415   -9.1380   47.4973 C   0  0  0  0  0  0  0  0  0  0  0  0
    3.0470  -10.1059   47.5815 C   0  0  0  0  0  0  0  0  0  0  0  0
    1.8001   -9.6961   47.0078 C   0  0  0  0  0  0  0  0  0  0  0  0
    1.4699   -8.5709   47.1598 C   0  0  0  0  0  0  0  0  0  0  0  0
    0.4420   -8.0646   46.1569 C   0  0  0  0  0  0  0  0  0  0  0  0
    0.7225   -6.9761   45.3081 C   0  0  0  0  0  0  0  0  0  0  0  0
    1.7636   -6.0490   45.3600 C   0  0  0  0  0  0  0  0  0  0  0  0
   -0.1971   -6.7576   44.1018 C   0  0  0  0  0  0  0  0  0  0  0  0
    4.6862    0.4108   42.7319 F   0  0  0  0  0  0  0  0  0  0  0  0
   -0.9179   -8.4960   46.2127 C   0  0  0  0  0  0  0  0  0  0  0  0
   -1.8215   -7.7899   46.7848 C   0  0  0  0  0  0  0  0  0  0  0  0
   -3.2366   -8.1398   46.5861 C   0  0  0  0  0  0  0  0  0  0  0  0
  9 11  1  0
 11 12  1  0
 12 13  1  0
 13 14  1  0
 14 15  2  3
  1 16  1  0
 16 17  2  0
 16 18  1  0
 15 19  1  0
 19 20  1  0
 20 21  1  0
 21 22  1  0
 22 23  1  0
 23 24  2  3
 24 25  1  0
 25 26  1  0
 26 27  1  0
 27 28  1  0
 28 29  2  3
 29 30  1  0
 29 31  1  0
  8 32  1  0
 28 33  1  0
 33 34  1  0
 34 35  1  0
  1  2  2  0
  2  4  1  0
  5  6  1  0
  6  3  2  0
  3  1  1  0
  4  5  2  0
  5 10  1  0
 10  9  2  0
  9  8  1  0
  8  7  2  0
  7  4  1  0
M  END
$$$$
O14757_PocketFlow_idx-in-all-generaetd-619
     RDKit          3D

 13 13  0  0  0  0  0  0  0  0999 V2000
   -0.6395   -2.0713   41.4947 C   0  0  0  0  0  0  0  0  0  0  0  0
   -0.2671   -3.2464   41.6546 C   0  0  0  0  0  0  0  0  0  0  0  0
    0.2407   -0.9706   41.5952 C   0  0  0  0  0  0  0  0  0  0  0  0
    1.6195   -1.2958   41.8767 C   0  0  0  0  0  0  0  0  0  0  0  0
    1.9162   -2.6816   42.2016 C   0  0  0  0  0  0  0  0  0  0  0  0
    0.9422   -3.6324   42.1156 C   0  0  0  0  0  0  0  0  0  0  0  0
    2.6088   -0.2775   42.1300 C   0  0  0  0  0  0  0  0  0  0  0  0
    3.9059   -0.5876   42.5995 C   0  0  0  0  0  0  0  0  0  0  0  0
    4.1860   -1.7640   43.2992 C   0  0  0  0  0  0  0  0  0  0  0  0
    5.2491   -2.0859   44.0734 C   0  0  0  0  0  0  0  0  0  0  0  0
    5.3011   -3.3280   44.7878 C   0  0  0  0  0  0  0  0  0  0  0  0
    4.2920   -3.8842   45.0447 C   0  0  0  0  0  0  0  0  0  0  0  0
    3.0532   -3.6512   44.3677 C   0  0  0  0  0  0  0  0  0  0  0  0
  4  7  1  0
  7  8  1  0
  8  9  2  3
  9 10  1  0
 10 11  2  3
 11 12  1  0
 12 13  2  0
  1  2  2  0
  2  6  1  0
  6  5  2  0
  5  4  1  0
  4  3  2  0
  3  1  1  0
M  END
$$$$
O14757_PocketFlow_idx-in-all-generaetd-620
     RDKit          3D

 24 26  0  0  0  0  0  0  0  0999 V2000
   -0.6395   -2.0713   41.4947 C   0  0  0  0  0  0  0  0  0  0  0  0
   -0.2671   -3.2464   41.6546 C   0  0  0  0  0  0  0  0  0  0  0  0
    0.2277   -0.9875   41.6495 C   0  0  0  0  0  0  0  0  0  0  0  0
    1.6284   -1.2752   41.8841 C   0  0  0  0  0  0  0  0  0  0  0  0
    2.6421   -0.3335   42.0825 C   0  0  0  0  0  0  0  0  0  0  0  0
    3.8980   -0.6935   42.5215 C   0  0  0  0  0  0  0  0  0  0  0  0
    4.0599   -1.4029   43.5550 C   0  0  0  0  0  0  0  0  0  0  0  0
    5.3224   -1.7556   44.1294 C   0  0  2  0  0  0  0  0  0  0  0  0
    1.0640   -3.6370   42.0422 C   0  0  0  0  0  0  0  0  0  0  0  0
    1.9640   -2.5731   42.2470 C   0  0  0  0  0  0  0  0  0  0  0  0
    5.5260   -2.7485   45.1276 C   0  0  0  0  0  0  0  0  0  0  0  0
    6.7017   -2.8711   45.9041 C   0  0  0  0  0  0  0  0  0  0  0  0
    6.8459   -3.8883   46.8520 C   0  0  0  0  0  0  0  0  0  0  0  0
    5.6920   -4.5498   47.2382 C   0  0  0  0  0  0  0  0  0  0  0  0
    4.5118   -4.3520   46.5822 C   0  0  0  0  0  0  0  0  0  0  0  0
    4.4443   -3.3766   45.6162 C   0  0  0  0  0  0  0  0  0  0  0  0
   -1.9976   -1.6151   40.9880 C   0  0  0  0  0  0  0  0  0  0  0  0
    5.1778    0.0511   42.3534 C   0  0  0  0  0  0  0  0  0  0  0  0
    6.2359   -0.7035   43.6293 C   0  0  0  0  0  0  0  0  0  0  0  0
   -2.8324   -2.5877   40.5682 N   0  0  0  0  0  0  0  0  0  0  0  0
   -2.5416   -0.5293   41.4322 O   0  0  0  0  0  0  0  0  0  0  0  0
    5.6611   -5.4530   48.4327 C   0  0  0  0  0  0  0  0  0  0  0  0
    6.1427   -5.0419   49.5003 O   0  0  0  0  0  0  0  0  0  0  0  0
    5.3843   -6.6735   48.2342 O   0  0  0  0  0  0  0  0  0  0  0  0
  4  5  1  0
  5  6  2  3
  6  7  1  0
  7  8  1  0
  1 17  1  0
  6 18  1  0
  8 19  1  0
 18 19  2  0
 17 20  1  0
 17 21  2  0
 14 22  1  0
 22 23  2  0
 22 24  1  0
  8 11  1  1
 11 12  2  0
 12 13  1  0
 13 14  2  0
 14 15  1  0
 15 16  2  0
 16 11  1  0
  1  2  2  0
  2  9  1  0
  9 10  2  0
 10  4  1  0
  4  3  2  0
  3  1  1  0
M  END
$$$$
O14757_PocketFlow_idx-in-all-generaetd-621
     RDKit          3D

 29 31  0  0  0  0  0  0  0  0999 V2000
   -0.6395   -2.0713   41.4947 C   0  0  0  0  0  0  0  0  0  0  0  0
    0.1859   -1.1027   41.5970 C   0  0  0  0  0  0  0  0  0  0  0  0
   -2.0077   -1.8651   41.2044 C   0  0  0  0  0  0  0  0  0  0  0  0
    1.5974   -1.2445   41.7640 C   0  0  0  0  0  0  0  0  0  0  0  0
    2.5563   -0.2262   41.8331 C   0  0  0  0  0  0  0  0  0  0  0  0
    3.8717   -0.4554   42.2584 C   0  0  0  0  0  0  0  0  0  0  0  0
    4.1299   -1.6986   42.9429 C   0  0  0  0  0  0  0  0  0  0  0  0
    5.4066   -1.8727   43.6290 C   0  0  0  0  0  0  0  0  0  0  0  0
    6.1180   -0.7456   43.9947 C   0  0  0  0  0  0  0  0  0  0  0  0
   -2.5176   -0.5280   41.1661 C   0  0  0  0  0  0  0  0  0  0  0  0
   -1.5140    0.5409   41.3097 C   0  0  0  0  0  0  0  0  0  0  0  0
   -0.1817    0.2050   41.5174 C   0  0  0  0  0  0  0  0  0  0  0  0
    5.7524    0.4502   43.3700 C   0  0  0  0  0  0  0  0  0  0  0  0
    4.6657    0.5963   42.6803 C   0  0  0  0  0  0  0  0  0  0  0  0
   -3.8361   -0.0293   40.8598 C   0  0  0  0  0  0  0  0  0  0  0  0
   -0.2673   -3.5231   41.5795 C   0  0  0  0  0  0  0  0  0  0  0  0
   -0.5223   -4.1477   42.6746 O   0  0  0  0  0  0  0  0  0  0  0  0
    0.7046   -3.7886   40.8763 O   0  0  0  0  0  0  0  0  0  0  0  0
    7.2980   -0.9518   44.8057 C   0  0  0  0  0  0  0  0  0  0  0  0
    7.3784   -2.1089   45.7278 C   0  0  0  0  0  0  0  0  0  0  0  0
    6.3745   -3.0639   45.8515 C   0  0  0  0  0  0  0  0  0  0  0  0
    5.2791   -3.0598   45.0211 C   0  0  0  0  0  0  0  0  0  0  0  0
    4.3320   -4.0290   44.8513 C   0  0  0  0  0  0  0  0  0  0  0  0
    3.1978   -3.9459   45.7654 C   0  0  0  0  0  0  0  0  0  0  0  0
    1.9665   -4.6566   45.5507 C   0  0  0  0  0  0  0  0  0  0  0  0
    0.8301   -4.3979   46.3053 C   0  0  0  0  0  0  0  0  0  0  0  0
   -0.3056   -4.9045   45.8327 C   0  0  0  0  0  0  0  0  0  0  0  0
   -0.2897   -6.1146   45.0503 C   0  0  0  0  0  0  0  0  0  0  0  0
    0.9224   -6.5171   44.4621 C   0  0  0  0  0  0  0  0  0  0  0  0
  2  4  1  0
  4  5  1  0
  5  6  1  0
 10 15  1  0
  1 16  1  0
 16 17  1  0
 16 18  2  0
 22 23  1  0
 23 24  1  0
 24 25  2  3
 25 26  1  0
 26 27  2  3
 27 28  1  0
 28 29  2  0
  1  2  2  0
  2 12  1  0
 12 11  2  0
 11 10  1  0
 10  3  2  0
  3  1  1  0
  9 19  2  0
 19 20  1  0
 20 21  2  0
 21 22  1  0
 22  8  2  0
  6  7  2  0
  7  8  1  0
  8  9  1  0
  9 13  1  0
 13 14  2  0
 14  6  1  0
M  END
$$$$
O14757_PocketFlow_idx-in-all-generaetd-622
     RDKit          3D

 35 39  0  0  0  0  0  0  0  0999 V2000
   -0.6395   -2.0713   41.4947 C   0  0  0  0  0  0  0  0  0  0  0  0
    0.1859   -1.1027   41.5970 C   0  0  0  0  0  0  0  0  0  0  0  0
    1.5836   -1.3270   41.4670 C   0  0  0  0  0  0  0  0  0  0  0  0
   -0.2462   -3.3905   41.2409 C   0  0  0  0  0  0  0  0  0  0  0  0
    2.0075   -2.6977   41.3341 C   0  0  0  0  0  0  0  0  0  0  0  0
    1.0655   -3.6470   41.1373 C   0  0  0  0  0  0  0  0  0  0  0  0
    2.5007   -0.3428   41.6891 N   0  0  0  0  0  0  0  0  0  0  0  0
    3.5646   -0.3991   42.5560 C   0  0  0  0  0  0  0  0  0  0  0  0
    4.5746    0.6533   42.4685 C   0  0  0  0  0  0  0  0  0  0  0  0
    3.7384   -1.3995   43.3560 N   0  0  0  0  0  0  0  0  0  0  0  0
    4.8342   -1.4524   44.2087 C   0  0  0  0  0  0  0  0  0  0  0  0
    4.7519   -2.2996   45.3689 C   0  0  0  0  0  0  0  0  0  0  0  0
    5.3121   -3.5307   45.1889 C   0  0  0  0  0  0  0  0  0  0  0  0
    5.8764   -0.5553   44.0950 C   0  0  0  0  0  0  0  0  0  0  0  0
    5.6338    0.5094   43.2712 N   0  0  0  0  0  0  0  0  0  0  0  0
    5.2928   -4.5062   46.2723 C   0  0  0  0  0  0  0  0  0  0  0  0
    4.0313   -5.0451   46.5969 C   0  0  0  0  0  0  0  0  0  0  0  0
    2.9144   -4.6818   45.8697 C   0  0  0  0  0  0  0  0  0  0  0  0
    2.2181   -5.5049   44.9356 C   0  0  0  0  0  0  0  0  0  0  0  0
    1.0924   -5.1116   44.2354 C   0  0  0  0  0  0  0  0  0  0  0  0
    0.5198   -3.8546   44.6907 C   0  0  0  0  0  0  0  0  0  0  0  0
    0.9244   -3.0478   45.6351 C   0  0  0  0  0  0  0  0  0  0  0  0
    2.2173   -3.5412   46.2692 C   0  0  0  0  0  0  0  0  0  0  0  0
   -1.9939   -1.8246   41.5951 F   0  0  0  0  0  0  0  0  0  0  0  0
    2.8211   -6.6255   44.4732 O   0  0  0  0  0  0  0  0  0  0  0  0
    6.9026   -0.6079   44.8456 N   0  0  0  0  0  0  0  0  0  0  0  0
    5.5387   -1.4940   46.5390 C   0  0  0  0  0  0  0  0  0  0  0  0
    7.0084   -1.4106   45.8764 C   0  0  2  0  0  0  0  0  0  0  0  0
    8.0417   -0.8932   46.9010 C   0  0  0  0  0  0  0  0  0  0  0  0
    8.9526   -2.0196   47.3569 C   0  0  0  0  0  0  0  0  0  0  0  0
   10.2180   -2.0428   46.9545 C   0  0  0  0  0  0  0  0  0  0  0  0
   11.1015   -2.7466   47.1994 C   0  0  0  0  0  0  0  0  0  0  0  0
   10.7677   -3.9667   47.9281 C   0  0  0  0  0  0  0  0  0  0  0  0
    9.4236   -4.1219   48.2820 C   0  0  0  0  0  0  0  0  0  0  0  0
    8.4827   -3.1351   47.9796 C   0  0  0  0  0  0  0  0  0  0  0  0
  3  7  1  0
  7  8  1  0
 11 12  1  0
 12 13  2  3
 13 16  1  0
 16 17  2  3
 17 18  1  0
  1 24  1  0
 19 25  1  0
 14 26  1  0
 12 27  1  0
 26 28  1  0
 27 28  1  0
 28 29  1  1
 29 30  1  0
 18 19  2  0
 19 20  1  0
 20 21  2  0
 21 22  1  0
 22 23  2  0
 23 18  1  0
  1  2  2  0
  2  3  1  0
  3  5  2  0
  5  6  1  0
  6  4  2  0
  4  1  1  0
  8  9  2  0
  9 15  1  0
 15 14  2  0
 14 11  1  0
 11 10  2  0
 10  8  1  0
 30 31  2  0
 31 32  1  0
 32 33  2  0
 33 34  1  0
 34 35  2  0
 35 30  1  0
M  END
$$$$
O14757_PocketFlow_idx-in-all-generaetd-623
     RDKit          3D

 18 20  0  0  0  0  0  0  0  0999 V2000
   -0.6395   -2.0713   41.4947 C   0  0  0  0  0  0  0  0  0  0  0  0
    0.1859   -1.1027   41.5970 C   0  0  0  0  0  0  0  0  0  0  0  0
    1.5836   -1.3270   41.4670 C   0  0  0  0  0  0  0  0  0  0  0  0
   -0.2462   -3.3905   41.2409 C   0  0  0  0  0  0  0  0  0  0  0  0
    2.5675   -0.3473   41.7943 C   0  0  0  0  0  0  0  0  0  0  0  0
    3.8546   -0.6776   42.2362 C   0  0  1  0  0  0  0  0  0  0  0  0
    4.7317    0.3221   42.6999 C   0  0  0  0  0  0  0  0  0  0  0  0
    1.1458   -3.6433   41.1533 C   0  0  0  0  0  0  0  0  0  0  0  0
    2.0281   -2.5909   41.2669 C   0  0  0  0  0  0  0  0  0  0  0  0
   -2.3939   -1.8152   41.5947 Cl  0  0  0  0  0  0  0  0  0  0  0  0
    5.8930   -0.2247   43.4127 C   0  0  0  0  0  0  0  0  0  0  0  0
    5.7774   -1.3739   44.2727 C   0  0  0  0  0  0  0  0  0  0  0  0
    4.8238   -2.3613   43.9326 C   0  0  0  0  0  0  0  0  0  0  0  0
    4.7064   -3.5359   44.5919 C   0  0  0  0  0  0  0  0  0  0  0  0
    3.7495   -1.9636   43.0139 C   0  0  0  0  0  0  0  0  0  0  0  0
    5.3226   -3.7888   45.8654 C   0  0  0  0  0  0  0  0  0  0  0  0
    6.2419   -2.9284   46.4424 C   0  0  0  0  0  0  0  0  0  0  0  0
    6.5999   -1.7021   45.5106 C   0  0  0  0  0  0  0  0  0  0  0  0
  3  5  1  0
  6  7  1  0
  1 10  1  0
  7 11  1  0
 11 12  1  0
  6 15  1  0
 13 15  1  0
  6  5  1  1
 12 13  2  0
 13 14  1  0
 14 16  2  0
 16 17  1  0
 17 18  2  0
 18 12  1  0
  1  2  2  0
  2  3  1  0
  3  9  2  0
  9  8  1  0
  8  4  2  0
  4  1  1  0
M  END
$$$$
O14757_PocketFlow_idx-in-all-generaetd-624
     RDKit          3D

 35 39  0  0  0  0  0  0  0  0999 V2000
    0.2881   -2.9111   42.4378 C   0  0  0  0  0  0  0  0  0  0  0  0
   -0.0650   -2.5020   41.5798 C   0  0  0  0  0  0  0  0  0  0  0  0
    1.6221   -3.4772   42.5980 C   0  0  0  0  0  0  0  0  0  0  0  0
    2.0908   -4.0216   43.8699 C   0  0  0  0  0  0  0  0  0  0  0  0
    3.3964   -4.2149   44.2291 C   0  0  0  0  0  0  0  0  0  0  0  0
    3.8016   -5.0739   45.2826 C   0  0  0  0  0  0  0  0  0  0  0  0
   -1.4536   -2.0539   41.4381 C   0  0  0  0  0  0  0  0  0  0  0  0
    2.7136   -5.6830   45.9624 C   0  0  0  0  0  0  0  0  0  0  0  0
    1.3860   -5.4827   45.6941 C   0  0  0  0  0  0  0  0  0  0  0  0
    1.0434   -4.6736   44.5428 C   0  0  0  0  0  0  0  0  0  0  0  0
    0.3394   -6.2065   46.3949 C   0  0  0  0  0  0  0  0  0  0  0  0
   -0.4390   -7.0402   45.7483 N   0  0  0  0  0  0  0  0  0  0  0  0
   -1.5868   -7.5594   46.1191 C   0  0  0  0  0  0  0  0  0  0  0  0
   -2.3378   -8.3429   45.1662 C   0  0  2  0  0  0  0  0  0  0  0  0
   -2.2575   -8.0123   43.8295 C   0  0  0  0  0  0  0  0  0  0  0  0
   -1.1444   -7.2578   43.4491 N   0  0  0  0  0  0  0  0  0  0  0  0
   -0.3047   -6.7194   44.3546 C   0  0  0  0  0  0  0  0  0  0  0  0
   -1.9028   -0.9734   40.6303 C   0  0  0  0  0  0  0  0  0  0  0  0
    0.5335   -5.9172   43.8360 O   0  0  0  0  0  0  0  0  0  0  0  0
   -3.2442   -0.6099   40.7423 C   0  0  0  0  0  0  0  0  0  0  0  0
   -3.4906   -9.1690   45.5914 C   0  0  0  0  0  0  0  0  0  0  0  0
   -4.6346   -8.4590   46.0179 C   0  0  0  0  0  0  0  0  0  0  0  0
   -3.4695  -10.5042   45.5699 C   0  0  0  0  0  0  0  0  0  0  0  0
   -4.5890  -11.2993   45.8251 C   0  0  0  0  0  0  0  0  0  0  0  0
   -5.7562   -9.1625   46.4150 C   0  0  0  0  0  0  0  0  0  0  0  0
   -5.7883  -10.5561   46.3832 C   0  0  0  0  0  0  0  0  0  0  0  0
    4.4457   -3.2159   43.7349 C   0  0  0  0  0  0  0  0  0  0  0  0
    5.2778   -2.6268   44.8261 C   0  0  1  0  0  0  0  0  0  0  0  0
    5.8923   -3.2714   45.7063 C   0  0  0  0  0  0  0  0  0  0  0  0
    7.3075   -3.1211   45.8411 C   0  0  0  0  0  0  0  0  0  0  0  0
    8.1098   -3.6035   46.9294 C   0  0  0  0  0  0  0  0  0  0  0  0
    7.3958   -4.4898   47.8200 C   0  0  0  0  0  0  0  0  0  0  0  0
    6.0125   -4.6318   47.7014 C   0  0  0  0  0  0  0  0  0  0  0  0
    5.3278   -4.0326   46.7216 C   0  0  0  0  0  0  0  0  0  0  0  0
    5.5155   -1.2003   44.5789 C   0  0  0  0  0  0  0  0  0  0  0  0
  1  2  1  0
  1  3  2  3
  3  4  1  0
  2  7  1  0
  9 11  1  0
 11 12  1  0
 12 13  1  0
 14 15  1  0
 12 17  1  0
 16 17  1  0
  7 18  2  3
 10 19  1  0
 17 19  1  0
 18 20  1  0
 14 21  1  1
  5 27  1  0
 27 28  1  0
 28 29  1  0
 28 35  1  6
 13 14  1  0
 15 16  1  0
 21 22  2  0
 22 25  1  0
 25 26  2  0
 26 24  1  0
 24 23  2  0
 23 21  1  0
  4  5  2  0
  5  6  1  0
  6  8  2  0
  8  9  1  0
  9 10  2  0
 10  4  1  0
 29 30  2  0
 30 31  1  0
 31 32  2  0
 32 33  1  0
 33 34  2  0
 34 29  1  0
M  END
$$$$
O14757_PocketFlow_idx-in-all-generaetd-625
     RDKit          3D

 32 34  0  0  0  0  0  0  0  0999 V2000
    0.2881   -2.9111   42.4378 C   0  0  0  0  0  0  0  0  0  0  0  0
    1.1784   -3.4293   42.9321 C   0  0  0  0  0  0  0  0  0  0  0  0
    1.1643   -4.3749   43.9960 C   0  0  1  0  0  0  0  0  0  0  0  0
    1.8790   -4.1402   45.1620 C   0  0  1  0  0  0  0  0  0  0  0  0
    0.4442   -1.7764   41.5237 C   0  0  0  0  0  0  0  0  0  0  0  0
    1.6259   -1.0049   41.6681 C   0  0  0  0  0  0  0  0  0  0  0  0
    2.5998   -1.4209   42.5615 C   0  0  0  0  0  0  0  0  0  0  0  0
    2.4400   -2.6031   43.3338 C   0  0  0  0  0  0  0  0  0  0  0  0
    1.9915   -5.0959   46.2181 C   0  0  0  0  0  0  0  0  0  0  0  0
    2.7994   -3.0264   44.8406 C   0  0  0  0  0  0  0  0  0  0  0  0
    3.8728   -0.7198   42.8150 C   0  0  0  0  0  0  0  0  0  0  0  0
    4.0550    0.5094   42.3271 N   0  0  0  0  0  0  0  0  0  0  0  0
    5.0693   -1.4066   43.0352 N   0  0  0  0  0  0  0  0  0  0  0  0
    1.9346   -6.2285   46.0519 N   0  0  0  0  0  0  0  0  0  0  0  0
    5.9985   -0.5963   43.6393 C   0  0  0  0  0  0  0  0  0  0  0  0
    0.2432   -5.3240   43.9467 F   0  0  0  0  0  0  0  0  0  0  0  0
    3.0079   -6.9221   45.6507 C   0  0  0  0  0  0  0  0  0  0  0  0
    0.7733   -7.1476   46.1379 C   0  0  0  0  0  0  0  0  0  0  0  0
   -0.3924   -6.6831   45.7337 C   0  0  0  0  0  0  0  0  0  0  0  0
   -1.4957   -7.1866   46.2797 O   0  0  0  0  0  0  0  0  0  0  0  0
   -1.7151   -8.4663   46.1521 C   0  0  0  0  0  0  0  0  0  0  0  0
   -3.0458   -8.8720   46.6515 C   0  0  2  0  0  0  0  0  0  0  0  0
   -4.0033   -8.1242   46.1143 C   0  0  0  0  0  0  0  0  0  0  0  0
   -3.8310   -7.7893   44.7340 C   0  0  0  0  0  0  0  0  0  0  0  0
   -5.0111   -8.0304   43.8237 C   0  0  0  0  0  0  0  0  0  0  0  0
   -5.2029   -9.1687   43.6132 C   0  0  0  0  0  0  0  0  0  0  0  0
   -2.9932   -8.5639   48.1087 O   0  0  0  0  0  0  0  0  0  0  0  0
   -6.1686   -9.4888   42.5345 C   0  0  0  0  0  0  0  0  0  0  0  0
   -6.4012  -10.7663   42.0950 C   0  0  0  0  0  0  0  0  0  0  0  0
   -6.1090  -11.8174   43.0377 C   0  0  0  0  0  0  0  0  0  0  0  0
   -5.3210  -11.5247   44.1760 C   0  0  0  0  0  0  0  0  0  0  0  0
   -4.9163  -10.2586   44.4812 C   0  0  0  0  0  0  0  0  0  0  0  0
  2  3  1  0
  3  4  1  0
  4  9  1  6
  4 10  1  0
  8 10  1  0
  7 11  1  0
 11 12  2  3
 11 13  1  0
  9 14  1  0
 13 15  1  0
  3 16  1  1
 14 17  1  0
 14 18  1  0
 18 19  1  0
 19 20  1  0
 20 21  1  0
 21 22  1  0
 22 23  1  0
 23 24  1  0
 24 25  1  0
 25 26  1  0
 22 27  1  1
 26 28  2  0
 28 29  1  0
 29 30  2  0
 30 31  1  0
 31 32  2  0
 32 26  1  0
  1  2  2  0
  2  8  1  0
  8  7  2  0
  7  6  1  0
  6  5  2  0
  5  1  1  0
M  END
$$$$
O14757_PocketFlow_idx-in-all-generaetd-626
     RDKit          3D

 27 29  0  0  0  0  0  0  0  0999 V2000
   -0.6395   -2.0713   41.4947 C   0  0  0  0  0  0  0  0  0  0  0  0
   -0.2671   -3.2464   41.6546 C   0  0  0  0  0  0  0  0  0  0  0  0
    0.2407   -0.9706   41.5952 C   0  0  0  0  0  0  0  0  0  0  0  0
    1.6195   -1.2958   41.8767 C   0  0  0  0  0  0  0  0  0  0  0  0
    1.9162   -2.6816   42.2016 C   0  0  0  0  0  0  0  0  0  0  0  0
    0.9422   -3.6324   42.1156 C   0  0  0  0  0  0  0  0  0  0  0  0
    2.6136   -0.2815   42.1191 C   0  0  0  0  0  0  0  0  0  0  0  0
    3.9096   -0.5773   42.5950 C   0  0  0  0  0  0  0  0  0  0  0  0
    4.9367    0.3662   42.6897 C   0  0  0  0  0  0  0  0  0  0  0  0
   -2.0669   -1.7559   41.0542 C   0  0  0  0  0  0  0  0  0  0  0  0
   -3.0804   -1.7865   40.7499 N   0  0  0  0  0  0  0  0  0  0  0  0
    4.1633   -1.8419   43.2198 C   0  0  0  0  0  0  0  0  0  0  0  0
    5.2719   -1.9196   44.1763 C   0  0  0  0  0  0  0  0  0  0  0  0
    6.2357   -0.9812   44.2757 C   0  0  0  0  0  0  0  0  0  0  0  0
    5.9798    0.1710   43.5831 N   0  0  0  0  0  0  0  0  0  0  0  0
    7.3009   -1.1206   44.9833 N   0  0  0  0  0  0  0  0  0  0  0  0
    5.4043   -3.2484   44.8336 C   0  0  0  0  0  0  0  0  0  0  0  0
    4.3948   -4.2194   44.8875 C   0  0  0  0  0  0  0  0  0  0  0  0
    4.2076   -5.0887   45.9290 C   0  0  0  0  0  0  0  0  0  0  0  0
    3.1827   -6.0122   45.8455 C   0  0  0  0  0  0  0  0  0  0  0  0
    1.9266   -5.4498   45.4834 C   0  0  0  0  0  0  0  0  0  0  0  0
    0.8370   -6.3147   45.2477 C   0  0  0  0  0  0  0  0  0  0  0  0
   -0.0877   -5.8962   44.2848 C   0  0  0  0  0  0  0  0  0  0  0  0
   -1.0266   -6.9153   43.8828 C   0  0  0  0  0  0  0  0  0  0  0  0
    0.5495   -7.4241   45.9601 C   0  0  0  0  0  0  0  0  0  0  0  0
   -0.5598   -8.2420   45.7703 C   0  0  0  0  0  0  0  0  0  0  0  0
   -1.3838   -7.9162   44.6654 C   0  0  0  0  0  0  0  0  0  0  0  0
  4  7  1  0
  1 10  1  0
 10 11  3  0
 14 16  1  0
 13 17  1  0
 17 18  2  3
 18 19  1  0
 19 20  1  0
 20 21  2  3
 21 22  1  0
  7  8  1  0
  8  9  2  0
  9 15  1  0
 15 14  2  0
 14 13  1  0
 13 12  2  0
 12  8  1  0
  1  2  2  0
  2  6  1  0
  6  5  2  0
  5  4  1  0
  4  3  2  0
  3  1  1  0
 22 23  2  0
 23 24  1  0
 24 27  2  0
 27 26  1  0
 26 25  2  0
 25 22  1  0
M  END
$$$$
O14757_PocketFlow_idx-in-all-generaetd-627
     RDKit          3D

 19 20  0  0  0  0  0  0  0  0999 V2000
   -0.6395   -2.0713   41.4947 C   0  0  0  0  0  0  0  0  0  0  0  0
    0.6719   -2.2449   41.7518 C   0  0  0  0  0  0  0  0  0  0  0  0
    1.1287   -3.3339   42.4778 C   0  0  0  0  0  0  0  0  0  0  0  0
    2.4060   -3.3351   43.0418 C   0  0  0  0  0  0  0  0  0  0  0  0
    2.8579   -4.2212   44.0684 C   0  0  0  0  0  0  0  0  0  0  0  0
    1.9658   -5.2493   44.5126 C   0  0  0  0  0  0  0  0  0  0  0  0
    2.2651   -6.1786   45.4605 C   0  0  0  0  0  0  0  0  0  0  0  0
    3.6393   -6.0335   45.9941 C   0  0  0  0  0  0  0  0  0  0  0  0
    4.4905   -5.0512   45.5983 C   0  0  0  0  0  0  0  0  0  0  0  0
    4.1023   -4.1439   44.6840 C   0  0  0  0  0  0  0  0  0  0  0  0
    3.2928   -2.2487   42.6854 C   0  0  0  0  0  0  0  0  0  0  0  0
    2.8009   -1.1116   42.0006 C   0  0  0  0  0  0  0  0  0  0  0  0
    1.4405   -1.1395   41.5494 C   0  0  0  0  0  0  0  0  0  0  0  0
   -1.4137   -3.1223   41.3044 O   0  0  0  0  0  0  0  0  0  0  0  0
   -1.2406   -0.9081   41.4003 O   0  0  0  0  0  0  0  0  0  0  0  0
    1.4093   -7.2211   45.7996 C   0  0  0  0  0  0  0  0  0  0  0  0
    0.6886   -7.2602   44.8401 F   0  0  0  0  0  0  0  0  0  0  0  0
    2.0799   -8.3880   45.9351 F   0  0  0  0  0  0  0  0  0  0  0  0
    0.7693   -6.9398   46.9058 F   0  0  0  0  0  0  0  0  0  0  0  0
  1  2  1  0
  4  5  1  0
  1 14  2  0
  1 15  1  0
  7 16  1  0
 16 17  1  0
 16 18  1  0
 16 19  1  0
  2  3  2  0
  3  4  1  0
  4 11  2  0
 11 12  1  0
 12 13  2  0
 13  2  1  0
  5  6  2  0
  6  7  1  0
  7  8  2  0
  8  9  1  0
  9 10  2  0
 10  5  1  0
M  END
$$$$
O14757_PocketFlow_idx-in-all-generaetd-628
     RDKit          3D

 33 36  0  0  0  0  0  0  0  0999 V2000
   -0.6395   -2.0713   41.4947 C   0  0  1  0  0  0  0  0  0  0  0  0
    0.6719   -2.2449   41.7518 C   0  0  2  0  0  0  0  0  0  0  0  0
    1.5951   -1.1948   41.6106 C   0  0  0  0  0  0  0  0  0  0  0  0
    2.8936   -1.2860   42.2441 C   0  0  0  0  0  0  0  0  0  0  0  0
    3.7940   -0.2219   42.2897 C   0  0  0  0  0  0  0  0  0  0  0  0
   -1.5413   -3.1234   41.4338 C   0  0  0  0  0  0  0  0  0  0  0  0
   -0.8945   -4.3554   41.3978 N   0  0  0  0  0  0  0  0  0  0  0  0
    4.9668   -0.3908   43.0725 C   0  0  0  0  0  0  0  0  0  0  0  0
    4.9518   -1.3710   44.0456 C   0  0  0  0  0  0  0  0  0  0  0  0
    4.0428   -2.4307   44.0142 C   0  0  0  0  0  0  0  0  0  0  0  0
    2.9527   -2.3271   43.1737 C   0  0  0  0  0  0  0  0  0  0  0  0
    4.2087   -3.5935   44.9109 C   0  0  2  0  0  0  0  0  0  0  0  0
    3.4419   -4.7689   44.6334 C   0  0  0  0  0  0  0  0  0  0  0  0
    2.3452   -5.0522   45.5921 C   0  0  0  0  0  0  0  0  0  0  0  0
    1.3352   -4.0209   45.4746 C   0  0  0  0  0  0  0  0  0  0  0  0
   -0.0409   -4.3212   45.8959 C   0  0  0  0  0  0  0  0  0  0  0  0
    6.2051   -1.4605   44.9446 C   0  0  0  0  0  0  0  0  0  0  0  0
    6.6637   -2.0742   45.6265 C   0  0  0  0  0  0  0  0  0  0  0  0
    6.1875   -3.4712   46.1186 C   0  0  0  0  0  0  0  0  0  0  0  0
    4.8531   -3.5167   46.1603 C   0  0  0  0  0  0  0  0  0  0  0  0
    8.1516   -1.7902   45.9694 C   0  0  0  0  0  0  0  0  0  0  0  0
    8.6301   -0.5389   45.9882 C   0  0  0  0  0  0  0  0  0  0  0  0
    9.0216   -2.9193   46.3160 C   0  0  0  0  0  0  0  0  0  0  0  0
   10.3783   -2.7123   46.6430 C   0  0  0  0  0  0  0  0  0  0  0  0
   10.0136   -0.3578   46.4012 C   0  0  0  0  0  0  0  0  0  0  0  0
   10.8322   -1.4125   46.6882 C   0  0  0  0  0  0  0  0  0  0  0  0
    0.8055   -3.7038   41.7807 C   0  0  0  0  0  0  0  0  0  0  0  0
   -1.3086   -0.3846   41.3692 Cl  0  0  0  0  0  0  0  0  0  0  0  0
   -0.0332   -5.4438   46.5822 Cl  0  0  0  0  0  0  0  0  0  0  0  0
   12.2548   -1.1603   47.0387 C   0  0  0  0  0  0  0  0  0  0  0  0
   12.5566   -0.1844   47.4796 O   0  0  0  0  0  0  0  0  0  0  0  0
   13.1017   -2.0738   46.7016 O   0  0  0  0  0  0  0  0  0  0  0  0
   -0.7673   -4.2632   44.9292 F   0  0  0  0  0  0  0  0  0  0  0  0
  1  2  1  0
  2  3  1  6
  3  4  1  0
  1  6  1  0
  6  7  1  0
 10 12  1  0
 12 13  1  1
 13 14  1  0
 14 15  1  0
 15 16  2  3
  9 17  1  0
 17 18  2  0
 18 19  1  0
 12 20  1  0
 19 20  1  0
 18 21  1  0
  2 27  1  0
  7 27  1  0
  1 28  1  1
 16 29  1  0
 26 30  1  0
 30 31  1  0
 30 32  2  0
 16 33  1  0
 21 22  2  0
 22 25  1  0
 25 26  2  0
 26 24  1  0
 24 23  2  0
 23 21  1  0
  4  5  2  0
  5  8  1  0
  8  9  2  0
  9 10  1  0
 10 11  2  0
 11  4  1  0
M  END
$$$$
O14757_PocketFlow_idx-in-all-generaetd-629
     RDKit          3D

 16 17  0  0  0  0  0  0  0  0999 V2000
   -0.6395   -2.0713   41.4947 C   0  0  0  0  0  0  0  0  0  0  0  0
    0.6719   -2.2449   41.7518 C   0  0  2  0  0  0  0  0  0  0  0  0
    1.5951   -1.1948   41.6106 C   0  0  0  0  0  0  0  0  0  0  0  0
    2.8936   -1.2860   42.2441 C   0  0  0  0  0  0  0  0  0  0  0  0
    3.7940   -0.2219   42.2897 C   0  0  0  0  0  0  0  0  0  0  0  0
   -1.5784   -3.1018   41.3985 C   0  0  0  0  0  0  0  0  0  0  0  0
    4.9967   -0.3723   43.0615 C   0  0  0  0  0  0  0  0  0  0  0  0
    5.2691   -1.5132   43.7867 C   0  0  0  0  0  0  0  0  0  0  0  0
    4.3008   -2.5888   43.7317 C   0  0  0  0  0  0  0  0  0  0  0  0
    3.1152   -2.4074   43.0118 C   0  0  0  0  0  0  0  0  0  0  0  0
   -0.9276   -4.3457   41.4020 N   0  0  0  0  0  0  0  0  0  0  0  0
    4.5183   -3.7488   44.3993 N   0  0  0  0  0  0  0  0  0  0  0  0
    3.9931   -4.1702   45.5182 C   0  0  0  0  0  0  0  0  0  0  0  0
    3.9773   -5.5487   45.9062 C   0  0  0  0  0  0  0  0  0  0  0  0
    0.7314   -3.7189   41.8187 C   0  0  0  0  0  0  0  0  0  0  0  0
    4.8432   -5.9602   46.7285 C   0  0  0  0  0  0  0  0  0  0  0  0
  1  2  1  0
  2  3  1  6
  3  4  1  0
  1  6  2  0
  6 11  1  0
  9 12  1  0
 12 13  1  0
 13 14  2  3
  2 15  1  0
 11 15  1  0
 14 16  1  0
  4  5  2  0
  5  7  1  0
  7  8  2  0
  8  9  1  0
  9 10  2  0
 10  4  1  0
M  END
$$$$
O14757_PocketFlow_idx-in-all-generaetd-630
     RDKit          3D

 15 16  0  0  0  0  0  0  0  0999 V2000
   -0.6395   -2.0713   41.4947 C   0  0  0  0  0  0  0  0  0  0  0  0
   -0.2671   -3.2464   41.6546 C   0  0  0  0  0  0  0  0  0  0  0  0
    0.2407   -0.9706   41.5952 C   0  0  0  0  0  0  0  0  0  0  0  0
    1.6195   -1.2958   41.8767 C   0  0  0  0  0  0  0  0  0  0  0  0
    1.9162   -2.6816   42.2016 C   0  0  0  0  0  0  0  0  0  0  0  0
    0.9422   -3.6324   42.1156 C   0  0  0  0  0  0  0  0  0  0  0  0
    2.6088   -0.2775   42.1300 C   0  0  0  0  0  0  0  0  0  0  0  0
    2.5071    1.0156   41.8230 C   0  0  0  0  0  0  0  0  0  0  0  0
    4.0749   -0.7743   42.3676 C   0  0  0  0  0  0  0  0  0  0  0  0
    5.0021    0.1834   42.7859 C   0  0  0  0  0  0  0  0  0  0  0  0
   -1.8990   -1.7269   41.1367 F   0  0  0  0  0  0  0  0  0  0  0  0
    6.1242   -0.5158   43.4238 C   0  0  0  0  0  0  0  0  0  0  0  0
    5.8727   -1.6484   44.3471 C   0  0  0  0  0  0  0  0  0  0  0  0
    4.8779   -2.5719   44.0297 C   0  0  0  0  0  0  0  0  0  0  0  0
    3.7381   -2.0465   43.2580 C   0  0  0  0  0  0  0  0  0  0  0  0
  4  7  1  0
  7  8  2  0
  7  9  1  0
  1 11  1  0
  1  2  2  0
  2  6  1  0
  6  5  2  0
  5  4  1  0
  4  3  2  0
  3  1  1  0
  9 10  2  0
 10 12  1  0
 12 13  2  0
 13 14  1  0
 14 15  2  0
 15  9  1  0
M  END
$$$$
O14757_PocketFlow_idx-in-all-generaetd-631
     RDKit          3D

 31 34  0  0  0  0  0  0  0  0999 V2000
   -0.8794   -1.9236   41.9357 O   0  0  0  0  0  0  0  0  0  0  0  0
    0.3182   -2.2442   41.7073 C   0  0  0  0  0  0  0  0  0  0  0  0
    1.3930   -1.3691   41.5725 C   0  0  0  0  0  0  0  0  0  0  0  0
    2.5842   -1.6677   42.2358 C   0  0  0  0  0  0  0  0  0  0  0  0
    3.6603   -0.7354   42.3241 C   0  0  0  0  0  0  0  0  0  0  0  0
    3.3951    0.6279   42.0173 C   0  0  0  0  0  0  0  0  0  0  0  0
    0.5206   -3.5583   41.8503 O   0  0  0  0  0  0  0  0  0  0  0  0
    2.1316    0.9083   41.5623 N   0  0  0  0  0  0  0  0  0  0  0  0
    1.1324    0.0612   41.4127 C   0  0  0  0  0  0  0  0  0  0  0  0
    4.9125   -1.1385   42.9390 C   0  0  0  0  0  0  0  0  0  0  0  0
    5.7228   -0.2382   43.6632 C   0  0  0  0  0  0  0  0  0  0  0  0
    6.7382   -0.7230   44.3772 N   0  0  0  0  0  0  0  0  0  0  0  0
    6.5874   -2.0681   44.9261 C   0  0  0  0  0  0  0  0  0  0  0  0
    5.5672   -2.8955   44.5370 C   0  0  0  0  0  0  0  0  0  0  0  0
    4.7735   -2.4964   43.5512 C   0  0  0  0  0  0  0  0  0  0  0  0
    7.6278   -2.4654   45.7853 N   0  0  0  0  0  0  0  0  0  0  0  0
    7.5468   -3.6339   46.5566 C   0  0  0  0  0  0  0  0  0  0  0  0
    8.8008   -3.9335   47.1954 C   0  0  0  0  0  0  0  0  0  0  0  0
    8.8598   -1.9051   45.9971 C   0  0  0  0  0  0  0  0  0  0  0  0
    9.5561   -2.6841   47.0028 C   0  0  0  0  0  0  0  0  0  0  0  0
    9.0844   -4.9891   48.0135 C   0  0  0  0  0  0  0  0  0  0  0  0
    9.7903   -4.9470   48.9048 N   0  0  0  0  0  0  0  0  0  0  0  0
    8.5654   -6.1621   47.5813 O   0  0  0  0  0  0  0  0  0  0  0  0
   10.1219   -6.1178   49.8160 C   0  0  0  0  0  0  0  0  0  0  0  0
   10.8773   -2.3595   47.5164 C   0  0  0  0  0  0  0  0  0  0  0  0
   10.9480   -1.7570   48.7433 C   0  0  0  0  0  0  0  0  0  0  0  0
   12.0704   -1.2814   49.3020 C   0  0  0  0  0  0  0  0  0  0  0  0
   12.0861   -0.6827   50.6813 C   0  0  0  0  0  0  0  0  0  0  0  0
   10.8444   -0.4732   51.3512 C   0  0  0  0  0  0  0  0  0  0  0  0
    9.6741   -0.9582   50.7054 C   0  0  0  0  0  0  0  0  0  0  0  0
    9.7286   -1.5205   49.4671 C   0  0  0  0  0  0  0  0  0  0  0  0
  1  2  2  0
  2  3  1  0
  2  7  1  0
  5 10  1  0
 13 16  1  0
 16 17  1  0
 17 18  2  0
 16 19  1  0
 18 20  1  0
 19 20  2  0
 18 21  1  0
 21 22  1  0
 21 23  2  0
 22 24  1  0
 20 25  1  0
 25 26  1  0
  3  4  2  0
  4  5  1  0
  5  6  2  0
  6  8  1  0
  8  9  2  0
  9  3  1  0
 10 11  2  0
 11 12  1  0
 12 13  2  0
 13 14  1  0
 14 15  2  0
 15 10  1  0
 26 27  2  0
 27 28  1  0
 28 29  2  0
 29 30  1  0
 30 31  2  0
 31 26  1  0
M  END
$$$$
O14757_PocketFlow_idx-in-all-generaetd-632
     RDKit          3D

  9  9  0  0  0  0  0  0  0  0999 V2000
   -0.6395   -2.0713   41.4947 C   0  0  0  0  0  0  0  0  0  0  0  0
   -0.2671   -3.2464   41.6546 C   0  0  0  0  0  0  0  0  0  0  0  0
   -2.0053   -1.6706   41.3987 C   0  0  0  0  0  0  0  0  0  0  0  0
   -2.4897    0.1042   41.3560 Br  0  0  0  0  0  0  0  0  0  0  0  0
    0.2435   -3.8972   40.9716 C   0  0  0  0  0  0  0  0  0  0  0  0
    1.2618   -3.1509   40.1598 C   0  0  0  0  0  0  0  0  0  0  0  0
    1.4183   -1.7622   40.3892 C   0  0  0  0  0  0  0  0  0  0  0  0
    0.3546   -1.1876   41.0135 C   0  0  0  0  0  0  0  0  0  0  0  0
   -2.9989   -2.4972   41.3044 O   0  0  0  0  0  0  0  0  0  0  0  0
  1  3  1  0
  3  4  1  0
  3  9  2  0
  1  2  2  0
  2  5  1  0
  5  6  2  0
  6  7  1  0
  7  8  2  0
  8  1  1  0
M  END
$$$$
O14757_PocketFlow_idx-in-all-generaetd-633
     RDKit          3D

 20 22  0  0  0  0  0  0  0  0999 V2000
    0.2881   -2.9111   42.4378 C   0  0  0  0  0  0  0  0  0  0  0  0
    1.3023   -2.0648   42.1981 C   0  0  0  0  0  0  0  0  0  0  0  0
    2.5313   -2.2887   42.6989 C   0  0  0  0  0  0  0  0  0  0  0  0
    2.7176   -3.3676   43.6275 C   0  0  0  0  0  0  0  0  0  0  0  0
    1.6703   -4.2006   43.9257 C   0  0  0  0  0  0  0  0  0  0  0  0
    0.4955   -4.0028   43.2983 C   0  0  0  0  0  0  0  0  0  0  0  0
    3.9000   -3.6072   44.4334 C   0  0  0  0  0  0  0  0  0  0  0  0
    4.9210   -2.6133   44.4491 C   0  0  0  0  0  0  0  0  0  0  0  0
    6.0099   -2.7622   45.3719 C   0  0  0  0  0  0  0  0  0  0  0  0
    6.0332   -3.9219   46.2158 C   0  0  0  0  0  0  0  0  0  0  0  0
    4.9260   -4.7405   46.2883 C   0  0  0  0  0  0  0  0  0  0  0  0
    3.8625   -4.5993   45.3955 C   0  0  0  0  0  0  0  0  0  0  0  0
   -0.8808   -2.7980   41.7475 N   0  0  0  0  0  0  0  0  0  0  0  0
    7.1550   -1.8487   45.3101 C   0  0  0  0  0  0  0  0  0  0  0  0
    8.2196   -2.0111   46.0557 N   0  0  0  0  0  0  0  0  0  0  0  0
    8.5971   -3.0886   46.5867 C   0  0  0  0  0  0  0  0  0  0  0  0
    7.4488   -4.0361   46.8585 C   0  0  0  0  0  0  0  0  0  0  0  0
    1.1404   -1.0347   41.2862 N   0  0  0  0  0  0  0  0  0  0  0  0
    2.2077   -0.1645   41.1098 C   0  0  0  0  0  0  0  0  0  0  0  0
    9.2544   -0.9549   46.0088 C   0  0  0  0  0  0  0  0  0  0  0  0
  4  7  1  0
  1 13  1  0
  9 14  1  0
 14 15  1  0
 15 16  1  0
 10 17  1  0
 16 17  1  0
  2 18  1  0
 18 19  1  0
 15 20  1  0
  1  2  2  0
  2  3  1  0
  3  4  2  0
  4  5  1  0
  5  6  2  0
  6  1  1  0
  7  8  2  0
  8  9  1  0
  9 10  2  0
 10 11  1  0
 11 12  2  0
 12  7  1  0
M  END
$$$$
O14757_PocketFlow_idx-in-all-generaetd-634
     RDKit          3D

 35 38  0  0  0  0  0  0  0  0999 V2000
    0.0138   -2.7927   42.5918 N   0  0  0  0  0  0  0  0  0  0  0  0
    1.1722   -3.1858   42.8673 C   0  0  0  0  0  0  0  0  0  0  0  0
    2.0106   -2.4736   43.6736 C   0  0  0  0  0  0  0  0  0  0  0  0
    3.0022   -3.1582   44.4022 C   0  0  0  0  0  0  0  0  0  0  0  0
    2.7765   -4.5175   44.8423 C   0  0  0  0  0  0  0  0  0  0  0  0
    1.6582   -5.1733   44.3343 C   0  0  0  0  0  0  0  0  0  0  0  0
    0.7750   -4.4320   43.5391 C   0  0  0  0  0  0  0  0  0  0  0  0
   -0.2095   -2.4371   41.1719 C   0  0  0  0  0  0  0  0  0  0  0  0
    4.2650   -2.4613   44.8516 C   0  0  0  0  0  0  0  0  0  0  0  0
    5.1153   -3.0211   45.8580 C   0  0  0  0  0  0  0  0  0  0  0  0
    6.3642   -2.4510   46.0844 C   0  0  0  0  0  0  0  0  0  0  0  0
    6.8410   -1.4878   45.1219 C   0  0  0  0  0  0  0  0  0  0  0  0
    4.8090   -1.4565   44.0096 C   0  0  0  0  0  0  0  0  0  0  0  0
    4.0511   -0.8771   42.9332 C   0  0  0  0  0  0  0  0  0  0  0  0
    6.1390   -0.9710   44.1876 C   0  0  0  0  0  0  0  0  0  0  0  0
    4.4297    0.5036   42.5250 C   0  0  0  0  0  0  0  0  0  0  0  0
   -1.5400   -1.8779   40.9178 C   0  0  0  0  0  0  0  0  0  0  0  0
   -2.3635   -1.6451   41.8752 C   0  0  0  0  0  0  0  0  0  0  0  0
    7.2595   -3.0594   47.1455 C   0  0  0  0  0  0  0  0  0  0  0  0
    6.7772   -3.9970   48.0601 C   0  0  0  0  0  0  0  0  0  0  0  0
    7.5731   -4.3809   49.1397 C   0  0  0  0  0  0  0  0  0  0  0  0
    8.7697   -3.8245   49.3943 C   0  0  0  0  0  0  0  0  0  0  0  0
    9.3256   -2.9853   48.3841 C   0  0  0  0  0  0  0  0  0  0  0  0
    8.5428   -2.5276   47.3034 C   0  0  0  0  0  0  0  0  0  0  0  0
    0.5476   -2.8132   40.3477 O   0  0  0  0  0  0  0  0  0  0  0  0
   -3.5945   -1.0249   41.4324 F   0  0  0  0  0  0  0  0  0  0  0  0
    1.3769   -6.5468   44.7544 C   0  0  0  0  0  0  0  0  0  0  0  0
    2.3116   -7.2595   45.2533 N   0  0  0  0  0  0  0  0  0  0  0  0
    0.3023   -7.0309   44.4913 F   0  0  0  0  0  0  0  0  0  0  0  0
    3.5533   -6.7988   45.6541 C   0  0  0  0  0  0  0  0  0  0  0  0
    3.7859   -5.3588   45.4455 N   0  0  0  0  0  0  0  0  0  0  0  0
    4.2773   -1.6550   41.6847 C   0  0  0  0  0  0  0  0  0  0  0  0
    4.4081   -7.3759   46.4448 N   0  0  0  0  0  0  0  0  0  0  0  0
   10.4993   -2.3984   48.5931 F   0  0  0  0  0  0  0  0  0  0  0  0
    4.1720   -8.6208   47.0920 C   0  0  0  0  0  0  0  0  0  0  0  0
  1  2  1  0
  1  8  1  0
  4  9  1  0
 13 14  1  0
 14 16  1  0
  8 17  1  0
 17 18  2  3
 11 19  1  0
  8 25  2  0
 18 26  1  0
 27 29  1  0
 14 32  1  0
 30 33  1  0
 23 34  1  0
 33 35  1  0
  2  3  2  0
  3  4  1  0
  4  5  2  0
  6  7  2  0
  7  2  1  0
  5  6  1  0
  6 27  1  0
 27 28  2  0
 28 30  1  0
 30 31  2  0
 31  5  1  0
  9 10  2  0
 10 11  1  0
 11 12  2  0
 12 15  1  0
 15 13  2  0
 13  9  1  0
 19 20  2  0
 20 21  1  0
 21 22  2  0
 22 23  1  0
 23 24  2  0
 24 19  1  0
M  END
$$$$
O14757_PocketFlow_idx-in-all-generaetd-635
     RDKit          3D

 16 17  0  0  0  0  0  0  0  0999 V2000
   -0.6395   -2.0713   41.4947 C   0  0  0  0  0  0  0  0  0  0  0  0
    0.6719   -2.2449   41.7518 C   0  0  0  0  0  0  0  0  0  0  0  0
    1.5951   -1.1948   41.6106 C   0  0  0  0  0  0  0  0  0  0  0  0
    2.9587   -1.3961   42.0240 C   0  0  0  0  0  0  0  0  0  0  0  0
    3.1652   -2.3460   43.1085 C   0  0  0  0  0  0  0  0  0  0  0  0
    2.2115   -3.3199   43.4243 C   0  0  0  0  0  0  0  0  0  0  0  0
    0.9094   -3.1578   42.8194 C   0  0  0  0  0  0  0  0  0  0  0  0
    4.4664   -2.5043   43.7318 C   0  0  0  0  0  0  0  0  0  0  0  0
    4.7053   -3.4107   44.7553 C   0  0  0  0  0  0  0  0  0  0  0  0
    5.8802   -3.3206   45.4947 C   0  0  0  0  0  0  0  0  0  0  0  0
    6.2139   -4.2793   46.5081 C   0  0  0  0  0  0  0  0  0  0  0  0
    5.3574   -4.4709   47.3090 C   0  0  0  0  0  0  0  0  0  0  0  0
    3.9289   -4.4870   46.8361 C   0  0  0  0  0  0  0  0  0  0  0  0
    3.6291   -3.7297   45.7251 C   0  0  0  0  0  0  0  0  0  0  0  0
   -1.3186   -1.0285   41.4995 O   0  0  0  0  0  0  0  0  0  0  0  0
   -1.2056   -3.0738   40.8142 O   0  0  0  0  0  0  0  0  0  0  0  0
  1  2  1  0
  5  8  1  0
  1 15  2  0
  1 16  1  0
  8  9  1  0
  2  3  2  0
  3  4  1  0
  4  5  2  0
  5  6  1  0
  6  7  2  0
  7  2  1  0
  9 10  2  0
 10 11  1  0
 11 12  2  0
 12 13  1  0
 13 14  2  0
 14  9  1  0
M  END
$$$$
O14757_PocketFlow_idx-in-all-generaetd-636
     RDKit          3D

 35 37  0  0  0  0  0  0  0  0999 V2000
    0.2881   -2.9111   42.4378 C   0  0  0  0  0  0  0  0  0  0  0  0
    1.3023   -2.0648   42.1981 C   0  0  0  0  0  0  0  0  0  0  0  0
    1.0183   -0.8915   41.4899 C   0  0  1  0  0  0  0  0  0  0  0  0
    0.6183   -4.1900   43.0459 C   0  0  0  0  0  0  0  0  0  0  0  0
    1.7821   -4.2576   43.8203 C   0  0  0  0  0  0  0  0  0  0  0  0
    2.7511   -3.2642   43.7093 C   0  0  0  0  0  0  0  0  0  0  0  0
    2.5114   -2.1263   42.8883 C   0  0  0  0  0  0  0  0  0  0  0  0
    4.0208   -3.3815   44.4848 C   0  0  0  0  0  0  0  0  0  0  0  0
    4.4398   -2.6798   45.5135 C   0  0  0  0  0  0  0  0  0  0  0  0
    5.6546   -2.9264   46.2529 C   0  0  0  0  0  0  0  0  0  0  0  0
    6.8320   -2.3541   45.7356 C   0  0  0  0  0  0  0  0  0  0  0  0
    8.0738   -2.7741   46.4167 C   0  0  0  0  0  0  0  0  0  0  0  0
    8.1883   -3.5491   47.0686 C   0  0  0  0  0  0  0  0  0  0  0  0
    6.9779   -4.1586   47.7593 C   0  0  0  0  0  0  0  0  0  0  0  0
    5.7298   -3.8685   47.2427 C   0  0  0  0  0  0  0  0  0  0  0  0
   -0.3609   -0.0536   41.5714 Cl  0  0  0  0  0  0  0  0  0  0  0  0
    6.7907   -1.3747   44.6515 C   0  0  0  0  0  0  0  0  0  0  0  0
    1.9700   -0.3481   40.7011 F   0  0  0  0  0  0  0  0  0  0  0  0
    1.9685   -5.4229   44.7157 C   0  0  0  0  0  0  0  0  0  0  0  0
    1.1417   -5.7504   45.4878 O   0  0  0  0  0  0  0  0  0  0  0  0
    3.2059   -5.8455   44.8734 O   0  0  0  0  0  0  0  0  0  0  0  0
    0.7167   -7.0943   45.5140 C   0  0  0  0  0  0  0  0  0  0  0  0
   -0.7487   -7.1451   45.3042 C   0  0  0  0  0  0  0  0  0  0  0  0
   -1.4213   -8.2484   45.8939 C   0  0  0  0  0  0  0  0  0  0  0  0
   -0.8235   -8.8637   46.9458 C   0  0  0  0  0  0  0  0  0  0  0  0
    0.5920   -8.8840   47.1212 C   0  0  0  0  0  0  0  0  0  0  0  0
    1.2915   -7.9620   46.3975 C   0  0  0  0  0  0  0  0  0  0  0  0
   -2.8184   -8.4612   45.5269 C   0  0  0  0  0  0  0  0  0  0  0  0
   -3.5977   -7.7450   46.0724 F   0  0  0  0  0  0  0  0  0  0  0  0
   -3.1396   -9.7577   45.7842 F   0  0  0  0  0  0  0  0  0  0  0  0
   -2.7540   -8.4068   44.0827 F   0  0  0  0  0  0  0  0  0  0  0  0
    7.0661   -5.1837   48.8985 C   0  0  0  0  0  0  0  0  0  0  0  0
    7.5491   -4.8177   49.8994 O   0  0  0  0  0  0  0  0  0  0  0  0
    6.4022   -6.1981   48.7580 F   0  0  0  0  0  0  0  0  0  0  0  0
   -0.8713   -2.8850   41.8257 O   0  0  0  0  0  0  0  0  0  0  0  0
  2  3  1  0
  6  8  1  0
  8  9  2  3
  9 10  1  0
  3 16  1  0
 11 17  1  0
  3 18  1  1
  5 19  1  0
 19 20  1  0
 19 21  2  0
 20 22  1  0
 24 28  1  0
 28 29  1  0
 28 30  1  0
 28 31  1  0
 14 32  1  0
 32 33  2  0
 32 34  1  0
  1 35  1  0
 22 23  2  0
 23 24  1  0
 24 25  2  0
 25 26  1  0
 26 27  2  0
 27 22  1  0
  1  2  2  0
  2  7  1  0
  7  6  2  0
  6  5  1  0
  5  4  2  0
  4  1  1  0
 10 11  2  0
 11 12  1  0
 12 13  2  0
 13 14  1  0
 14 15  2  0
 15 10  1  0
M  END
$$$$
O14757_PocketFlow_idx-in-all-generaetd-637
     RDKit          3D

 13 13  0  0  0  0  0  0  0  0999 V2000
   -0.6395   -2.0713   41.4947 C   0  0  0  0  0  0  0  0  0  0  0  0
   -0.2671   -3.2464   41.6546 C   0  0  0  0  0  0  0  0  0  0  0  0
    0.2407   -0.9706   41.5952 C   0  0  0  0  0  0  0  0  0  0  0  0
    1.5531   -1.3393   41.8398 C   0  0  0  0  0  0  0  0  0  0  0  0
    1.9123   -2.6863   42.1918 C   0  0  0  0  0  0  0  0  0  0  0  0
    0.9325   -3.6408   42.1136 C   0  0  0  0  0  0  0  0  0  0  0  0
    2.6100   -0.3048   42.0902 C   0  0  0  0  0  0  0  0  0  0  0  0
    3.8393   -0.6582   42.4884 N   0  0  0  0  0  0  0  0  0  0  0  0
    4.1320   -1.7716   43.0805 C   0  0  0  0  0  0  0  0  0  0  0  0
    5.3202   -2.0150   43.8381 C   0  0  0  0  0  0  0  0  0  0  0  0
    5.2238   -2.3044   45.1083 C   0  0  0  0  0  0  0  0  0  0  0  0
    4.1837   -3.2620   45.5235 C   0  0  0  0  0  0  0  0  0  0  0  0
    3.0777   -3.3464   44.6572 C   0  0  0  0  0  0  0  0  0  0  0  0
  4  7  1  0
  7  8  1  0
  8  9  1  0
  9 10  1  0
 10 11  2  3
 11 12  1  0
 12 13  2  0
  1  2  2  0
  2  6  1  0
  6  5  2  0
  5  4  1  0
  4  3  2  0
  3  1  1  0
M  END
$$$$
O14757_PocketFlow_idx-in-all-generaetd-638
     RDKit          3D

 35 37  0  0  0  0  0  0  0  0999 V2000
   -0.6395   -2.0713   41.4947 C   0  0  0  0  0  0  0  0  0  0  0  0
   -0.2671   -3.2464   41.6546 C   0  0  0  0  0  0  0  0  0  0  0  0
   -2.0053   -1.6706   41.3987 C   0  0  2  0  0  0  0  0  0  0  0  0
   -2.7819   -2.5647   41.1726 F   0  0  0  0  0  0  0  0  0  0  0  0
   -2.2907   -0.1636   40.4971 Cl  0  0  0  0  0  0  0  0  0  0  0  0
    0.2637   -3.7842   42.9028 C   0  0  0  0  0  0  0  0  0  0  0  0
    1.3485   -3.0447   43.4429 C   0  0  0  0  0  0  0  0  0  0  0  0
    2.0126   -3.6193   44.6030 C   0  0  0  0  0  0  0  0  0  0  0  0
    3.3647   -3.3439   44.9362 C   0  0  0  0  0  0  0  0  0  0  0  0
    4.0454   -3.9646   46.0229 C   0  0  0  0  0  0  0  0  0  0  0  0
    5.2895   -3.4216   46.4358 C   0  0  0  0  0  0  0  0  0  0  0  0
    6.0221   -3.9839   47.5972 C   0  0  0  0  0  0  0  0  0  0  0  0
    7.1693   -3.4030   48.0834 C   0  0  0  0  0  0  0  0  0  0  0  0
    7.8817   -2.5559   47.2098 C   0  0  0  0  0  0  0  0  0  0  0  0
    7.3161   -2.1748   45.9581 C   0  0  0  0  0  0  0  0  0  0  0  0
    6.0910   -2.7169   45.6219 C   0  0  0  0  0  0  0  0  0  0  0  0
    1.3094   -4.5283   45.4198 C   0  0  0  0  0  0  0  0  0  0  0  0
    0.4352   -3.8929   46.3121 C   0  0  0  0  0  0  0  0  0  0  0  0
    9.2172   -2.0452   47.6014 C   0  0  0  0  0  0  0  0  0  0  0  0
    9.5714   -2.0922   48.9098 C   0  0  0  0  0  0  0  0  0  0  0  0
   10.8273   -1.5517   49.3212 C   0  0  0  0  0  0  0  0  0  0  0  0
   11.7462   -1.1776   48.3127 C   0  0  0  0  0  0  0  0  0  0  0  0
   10.1227   -1.5334   46.6383 C   0  0  0  0  0  0  0  0  0  0  0  0
   11.3843   -1.0993   47.0232 C   0  0  0  0  0  0  0  0  0  0  0  0
    1.9707   -2.0615   42.8381 N   0  0  0  0  0  0  0  0  0  0  0  0
    3.2683   -1.7726   42.7876 C   0  0  0  0  0  0  0  0  0  0  0  0
    3.9751   -2.3508   43.9646 N   0  0  0  0  0  0  0  0  0  0  0  0
    1.4727   -5.8923   45.2775 C   0  0  0  0  0  0  0  0  0  0  0  0
    0.5977   -6.6819   44.5953 C   0  0  0  0  0  0  0  0  0  0  0  0
   -0.3311   -6.5560   43.9541 C   0  0  0  0  0  0  0  0  0  0  0  0
   -1.3249   -7.4975   43.5162 C   0  0  0  0  0  0  0  0  0  0  0  0
   -2.4722   -7.7105   44.3292 C   0  0  0  0  0  0  0  0  0  0  0  0
   -2.2847   -7.9219   45.7056 C   0  0  0  0  0  0  0  0  0  0  0  0
   -3.3890   -8.3945   46.4773 C   0  0  0  0  0  0  0  0  0  0  0  0
   -3.6379   -8.3968   43.7541 C   0  0  0  0  0  0  0  0  0  0  0  0
  1  2  1  0
  1  3  1  0
  3  4  1  6
  3  5  1  0
  2  6  1  0
  9 10  1  0
  8 17  1  0
 17 18  1  0
 14 19  1  0
 17 28  1  0
 28 29  1  0
 29 30  2  3
 30 31  1  0
 31 32  1  0
 32 33  2  3
 33 34  1  0
 32 35  1  0
  6  7  1  0
 10 11  1  0
 11 12  2  0
 12 13  1  0
 13 14  2  0
 14 15  1  0
 15 16  2  0
 16 11  1  0
  7  8  2  0
  8  9  1  0
  9 27  2  0
 27 26  1  0
 26 25  2  0
 25  7  1  0
 19 20  2  0
 20 21  1  0
 21 22  2  0
 22 24  1  0
 24 23  2  0
 23 19  1  0
M  END
$$$$
O14757_PocketFlow_idx-in-all-generaetd-639
     RDKit          3D

 14 14  0  0  0  0  0  0  0  0999 V2000
   -0.6395   -2.0713   41.4947 C   0  0  0  0  0  0  0  0  0  0  0  0
   -0.2671   -3.2464   41.6546 C   0  0  0  0  0  0  0  0  0  0  0  0
    0.2407   -0.9706   41.5952 C   0  0  0  0  0  0  0  0  0  0  0  0
    1.6195   -1.2958   41.8767 C   0  0  0  0  0  0  0  0  0  0  0  0
    1.9162   -2.6816   42.2016 C   0  0  0  0  0  0  0  0  0  0  0  0
    0.9422   -3.6324   42.1156 C   0  0  0  0  0  0  0  0  0  0  0  0
    2.6136   -0.2815   42.1191 C   0  0  0  0  0  0  0  0  0  0  0  0
    3.9096   -0.5773   42.5950 C   0  0  0  0  0  0  0  0  0  0  0  0
    4.1610   -0.9306   43.7440 C   0  0  0  0  0  0  0  0  0  0  0  0
    5.5613   -1.2044   44.2716 C   0  0  0  0  0  0  0  0  0  0  0  0
    5.9275   -2.0906   45.2247 C   0  0  0  0  0  0  0  0  0  0  0  0
    7.2489   -2.3052   45.5692 C   0  0  0  0  0  0  0  0  0  0  0  0
    7.6057   -3.2885   46.4729 C   0  0  0  0  0  0  0  0  0  0  0  0
    8.9163   -3.5462   46.9678 C   0  0  0  0  0  0  0  0  0  0  0  0
  4  7  1  0
  7  8  2  3
  8  9  1  0
  9 10  2  3
 10 11  1  0
 11 12  2  3
 12 13  1  0
 13 14  1  0
  1  2  2  0
  2  6  1  0
  6  5  2  0
  5  4  1  0
  4  3  2  0
  3  1  1  0
M  END
$$$$
O14757_PocketFlow_idx-in-all-generaetd-640
     RDKit          3D

 32 34  0  0  0  0  0  0  0  0999 V2000
    0.2881   -2.9111   42.4378 C   0  0  0  0  0  0  0  0  0  0  0  0
    1.3023   -2.0648   42.1981 C   0  0  0  0  0  0  0  0  0  0  0  0
    0.9971   -0.8647   41.5341 C   0  0  0  0  0  0  0  0  0  0  0  0
    0.5525   -4.0790   43.0426 O   0  0  0  0  0  0  0  0  0  0  0  0
   -0.3550   -0.7276   41.3632 N   0  0  0  0  0  0  0  0  0  0  0  0
   -0.9522   -2.4358   41.9788 C   0  0  0  0  0  0  0  0  0  0  0  0
    1.4580   -4.1115   44.0275 C   0  0  0  0  0  0  0  0  0  0  0  0
    1.2716   -5.1169   45.0381 C   0  0  0  0  0  0  0  0  0  0  0  0
    0.0227   -5.3096   45.4884 C   0  0  0  0  0  0  0  0  0  0  0  0
   -0.3615   -6.6717   45.9956 C   0  0  0  0  0  0  0  0  0  0  0  0
   -1.4187   -7.0656   46.1171 O   0  0  0  0  0  0  0  0  0  0  0  0
    1.9095    0.1755   41.2909 C   0  0  0  0  0  0  0  0  0  0  0  0
    0.6455   -7.3699   46.5492 O   0  0  0  0  0  0  0  0  0  0  0  0
    3.1736    0.2176   41.9919 C   0  0  0  0  0  0  0  0  0  0  0  0
    3.7258   -0.9196   42.5491 C   0  0  0  0  0  0  0  0  0  0  0  0
    2.7956   -2.0632   42.7576 C   0  0  0  0  0  0  0  0  0  0  0  0
    4.9137   -0.9557   43.0760 N   0  0  0  0  0  0  0  0  0  0  0  0
    5.2094   -1.2038   44.4466 C   0  0  0  0  0  0  0  0  0  0  0  0
    4.3400   -1.4565   45.4585 C   0  0  0  0  0  0  0  0  0  0  0  0
    6.6822   -1.5283   44.6109 C   0  0  0  0  0  0  0  0  0  0  0  0
    7.1648   -2.1865   45.7506 C   0  0  0  0  0  0  0  0  0  0  0  0
    6.2748   -2.9426   46.5735 C   0  0  0  0  0  0  0  0  0  0  0  0
    6.6478   -3.7690   47.6012 C   0  0  1  0  0  0  0  0  0  0  0  0
    4.8364   -2.5410   46.4975 C   0  0  0  0  0  0  0  0  0  0  0  0
    5.7553   -4.7706   48.0945 C   0  0  0  0  0  0  0  0  0  0  0  0
    6.1859   -5.5739   49.2169 C   0  0  0  0  0  0  0  0  0  0  0  0
    5.3998   -6.6315   49.5801 C   0  0  0  0  0  0  0  0  0  0  0  0
    8.0303   -3.7809   48.0395 C   0  0  0  0  0  0  0  0  0  0  0  0
    8.8871   -3.3616   47.5849 C   0  0  0  0  0  0  0  0  0  0  0  0
    5.9067   -7.5447   50.5914 C   0  0  0  0  0  0  0  0  0  0  0  0
    6.5952   -8.5236   50.1740 Cl  0  0  0  0  0  0  0  0  0  0  0  0
    7.6261   -5.2984   49.4395 C   0  0  0  0  0  0  0  0  0  0  0  0
  1  2  1  0
  1  4  1  0
  1  6  1  0
  5  6  1  0
  4  7  1  0
  7  8  1  0
  8  9  1  0
  9 10  1  0
 10 11  2  0
 10 13  1  0
 15 17  1  0
 17 18  1  0
 22 23  1  0
 23 25  1  0
 25 26  2  3
 26 27  1  0
 23 28  1  6
 28 29  2  0
 27 30  1  0
 30 31  1  0
 26 32  1  0
  5  3  1  0
 18 19  2  0
 19 24  1  0
 24 22  2  0
 22 21  1  0
 21 20  2  0
 20 18  1  0
  2  3  2  0
  3 12  1  0
 12 14  2  0
 14 15  1  0
 15 16  2  0
 16  2  1  0
M  END
$$$$
O14757_PocketFlow_idx-in-all-generaetd-641
     RDKit          3D

 11 11  0  0  0  0  0  0  0  0999 V2000
   -0.6395   -2.0713   41.4947 C   0  0  0  0  0  0  0  0  0  0  0  0
    0.1859   -1.1027   41.5970 C   0  0  0  0  0  0  0  0  0  0  0  0
    1.5858   -1.4430   41.9548 C   0  0  0  0  0  0  0  0  0  0  0  0
    2.6622   -0.5501   42.0082 C   0  0  0  0  0  0  0  0  0  0  0  0
    3.8608   -0.8421   42.6622 C   0  0  0  0  0  0  0  0  0  0  0  0
    4.8744    0.0633   42.9841 C   0  0  0  0  0  0  0  0  0  0  0  0
   -0.1915   -3.3421   41.4829 N   0  0  0  0  0  0  0  0  0  0  0  0
   -1.9955   -1.7857   41.1010 N   0  0  0  0  0  0  0  0  0  0  0  0
    3.9199   -2.1850   43.2355 C   0  0  0  0  0  0  0  0  0  0  0  0
    2.7433   -3.0019   43.3355 C   0  0  0  0  0  0  0  0  0  0  0  0
    1.5605   -2.5774   42.6639 C   0  0  0  0  0  0  0  0  0  0  0  0
  1  2  1  0
  2  3  1  0
  5  6  1  0
  1  7  2  3
  1  8  1  0
  3  4  2  0
  4  5  1  0
  5  9  2  0
  9 10  1  0
 10 11  2  0
 11  3  1  0
M  END
$$$$
O14757_PocketFlow_idx-in-all-generaetd-642
     RDKit          3D

 29 33  0  0  0  0  0  0  0  0999 V2000
   -0.6395   -2.0713   41.4947 C   0  0  0  0  0  0  0  0  0  0  0  0
    0.6719   -2.2449   41.7518 C   0  0  0  0  0  0  0  0  0  0  0  0
    1.5951   -1.1948   41.6106 C   0  0  0  0  0  0  0  0  0  0  0  0
    2.9587   -1.3961   42.0240 C   0  0  0  0  0  0  0  0  0  0  0  0
    3.8815   -0.3441   42.0598 C   0  0  0  0  0  0  0  0  0  0  0  0
    5.0972   -0.5585   42.8399 C   0  0  0  0  0  0  0  0  0  0  0  0
    5.2535   -1.6826   43.6335 C   0  0  0  0  0  0  0  0  0  0  0  0
    4.2210   -2.6732   43.6342 C   0  0  0  0  0  0  0  0  0  0  0  0
    4.3799   -3.8059   44.4131 C   0  0  0  0  0  0  0  0  0  0  0  0
    3.1060   -2.5057   42.8353 C   0  0  0  0  0  0  0  0  0  0  0  0
    5.1582   -3.8564   45.6086 C   0  0  0  0  0  0  0  0  0  0  0  0
   -1.5344   -3.1752   41.5038 C   0  0  0  0  0  0  0  0  0  0  0  0
   -0.8844   -4.4563   41.4796 C   0  0  0  0  0  0  0  0  0  0  0  0
    5.9520   -2.8005   46.0160 C   0  0  0  0  0  0  0  0  0  0  0  0
    6.1028   -1.6392   45.0434 C   0  0  0  0  0  0  0  0  0  0  0  0
    0.3558   -4.6323   42.0198 C   0  0  0  0  0  0  0  0  0  0  0  0
    1.1989   -3.5081   42.0329 C   0  0  0  0  0  0  0  0  0  0  0  0
    2.3566   -3.5611   42.6867 N   0  0  0  0  0  0  0  0  0  0  0  0
    1.2326    0.0995   40.9913 C   0  0  0  0  0  0  0  0  0  0  0  0
    7.2436   -3.2732   46.5209 C   0  0  0  0  0  0  0  0  0  0  0  0
    8.5248   -2.8204   46.2088 C   0  0  0  0  0  0  0  0  0  0  0  0
    9.6815   -3.3296   46.7571 C   0  0  0  0  0  0  0  0  0  0  0  0
    9.6049   -4.4841   47.5385 C   0  0  0  0  0  0  0  0  0  0  0  0
    7.3744   -4.4438   47.4164 C   0  0  0  0  0  0  0  0  0  0  0  0
    8.4384   -4.9758   47.9011 C   0  0  0  0  0  0  0  0  0  0  0  0
   10.9725   -2.7134   46.3301 C   0  0  0  0  0  0  0  0  0  0  0  0
   10.8497   -1.6166   45.7449 F   0  0  0  0  0  0  0  0  0  0  0  0
   11.7563   -3.5326   45.6170 F   0  0  0  0  0  0  0  0  0  0  0  0
   11.7057   -2.4559   47.5266 F   0  0  0  0  0  0  0  0  0  0  0  0
  3 19  1  0
 14 20  1  0
 22 26  1  0
 26 27  1  0
 26 28  1  0
 26 29  1  0
  1  2  2  0
 17 16  2  0
 16 13  1  0
 13 12  2  0
 12  1  1  0
  8  9  2  0
  9 11  1  0
 11 14  2  0
 14 15  1  0
 15  7  2  0
 20 21  2  0
 21 22  1  0
 22 23  2  0
 23 25  1  0
 25 24  2  0
 24 20  1  0
  4  5  1  0
  5  6  2  0
  6  7  1  0
  7  8  1  0
  8 10  1  0
  2  3  1  0
  3  4  2  0
  4 10  1  0
 10 18  2  0
 18 17  1  0
 17  2  1  0
M  END
$$$$
O14757_PocketFlow_idx-in-all-generaetd-643
     RDKit          3D

 30 33  0  0  0  0  0  0  0  0999 V2000
    0.2881   -2.9111   42.4378 C   0  0  0  0  0  0  0  0  0  0  0  0
    1.1801   -2.2228   42.2048 N   0  0  0  0  0  0  0  0  0  0  0  0
    2.4234   -2.3552   42.6585 C   0  0  0  0  0  0  0  0  0  0  0  0
    2.5523   -3.4140   43.6042 C   0  0  0  0  0  0  0  0  0  0  0  0
    1.5743   -4.2239   43.9536 C   0  0  0  0  0  0  0  0  0  0  0  0
    0.4076   -3.9894   43.3200 N   0  0  0  0  0  0  0  0  0  0  0  0
   -0.8848   -2.7279   41.6629 N   0  0  0  0  0  0  0  0  0  0  0  0
    3.8986   -3.5918   44.3525 C   0  0  0  0  0  0  0  0  0  0  0  0
    4.8617   -2.5761   44.3628 C   0  0  0  0  0  0  0  0  0  0  0  0
    4.7888   -1.2974   43.8643 C   0  0  0  0  0  0  0  0  0  0  0  0
    5.9148   -0.4726   44.1040 C   0  0  0  0  0  0  0  0  0  0  0  0
    5.9920   -2.7571   45.2767 C   0  0  0  0  0  0  0  0  0  0  0  0
    7.0524   -1.9373   45.4592 C   0  0  0  0  0  0  0  0  0  0  0  0
    6.9638   -0.6980   44.8162 C   0  0  0  0  0  0  0  0  0  0  0  0
    1.6059   -5.1749   44.8010 F   0  0  0  0  0  0  0  0  0  0  0  0
    8.2084   -2.2989   46.2846 C   0  0  0  0  0  0  0  0  0  0  0  0
    8.3107   -3.5453   46.9580 C   0  0  0  0  0  0  0  0  0  0  0  0
    9.4147   -3.8724   47.6848 C   0  0  0  0  0  0  0  0  0  0  0  0
   10.4642   -2.9963   47.7661 C   0  0  0  0  0  0  0  0  0  0  0  0
    9.3072   -1.4106   46.4404 C   0  0  0  0  0  0  0  0  0  0  0  0
   10.3675   -1.7271   47.2190 C   0  0  0  0  0  0  0  0  0  0  0  0
   -1.3944   -1.4531   41.5374 C   0  0  0  0  0  0  0  0  0  0  0  0
   -0.6527   -0.3754   41.6467 N   0  0  0  0  0  0  0  0  0  0  0  0
   -2.7466   -1.3169   41.3995 N   0  0  0  0  0  0  0  0  0  0  0  0
    9.4767   -5.2632   48.2597 C   0  0  0  0  0  0  0  0  0  0  0  0
    9.3423   -5.2992   49.6400 C   0  0  0  0  0  0  0  0  0  0  0  0
    8.6733   -6.3238   50.1841 C   0  0  0  0  0  0  0  0  0  0  0  0
    8.2323   -7.3828   49.3778 C   0  0  0  0  0  0  0  0  0  0  0  0
    8.4391   -7.3330   47.9861 C   0  0  0  0  0  0  0  0  0  0  0  0
    8.9782   -6.2276   47.4071 C   0  0  0  0  0  0  0  0  0  0  0  0
  1  7  1  0
  4  8  1  0
  8  9  1  0
  5 15  1  0
 13 16  1  0
  7 22  1  0
 22 23  1  0
 22 24  2  3
 18 25  1  0
  1  2  2  0
  2  3  1  0
  3  4  2  0
  4  5  1  0
  5  6  2  0
  6  1  1  0
  9 10  2  0
 10 11  1  0
 11 14  2  0
 14 13  1  0
 13 12  2  0
 12  9  1  0
 25 26  2  0
 26 27  1  0
 27 28  2  0
 28 29  1  0
 29 30  2  0
 30 25  1  0
 16 17  2  0
 17 18  1  0
 18 19  2  0
 19 21  1  0
 21 20  2  0
 20 16  1  0
M  END
$$$$
O14757_PocketFlow_idx-in-all-generaetd-644
     RDKit          3D

 13 13  0  0  0  0  0  0  0  0999 V2000
   -0.6395   -2.0713   41.4947 C   0  0  0  0  0  0  0  0  0  0  0  0
    0.6719   -2.2449   41.7518 C   0  0  0  0  0  0  0  0  0  0  0  0
    1.3815   -1.6359   42.7231 C   0  0  0  0  0  0  0  0  0  0  0  0
    2.9063   -1.6299   42.5164 C   0  0  0  0  0  0  0  0  0  0  0  0
    3.6528   -2.2927   43.5664 C   0  0  0  0  0  0  0  0  0  0  0  0
    4.0636   -1.7235   44.6591 C   0  0  0  0  0  0  0  0  0  0  0  0
    4.8670   -2.5624   45.6195 C   0  0  0  0  0  0  0  0  0  0  0  0
    6.0893   -2.1349   46.1023 C   0  0  0  0  0  0  0  0  0  0  0  0
    6.9203   -3.0431   46.8435 C   0  0  0  0  0  0  0  0  0  0  0  0
    6.2579   -4.1278   47.4536 C   0  0  0  0  0  0  0  0  0  0  0  0
    4.9220   -4.4191   47.0945 C   0  0  0  0  0  0  0  0  0  0  0  0
    4.2090   -3.6550   46.1979 C   0  0  0  0  0  0  0  0  0  0  0  0
   -1.5837   -3.1300   41.2859 C   0  0  0  0  0  0  0  0  0  0  0  0
  1  2  1  0
  2  3  1  0
  3  4  1  0
  4  5  1  0
  5  6  2  3
  6  7  1  0
  1 13  1  0
  7  8  2  0
  8  9  1  0
  9 10  2  0
 10 11  1  0
 11 12  2  0
 12  7  1  0
M  END
$$$$
O14757_PocketFlow_idx-in-all-generaetd-645
     RDKit          3D

 35 40  0  0  0  0  0  0  0  0999 V2000
   -0.6395   -2.0713   41.4947 C   0  0  0  0  0  0  0  0  0  0  0  0
    0.1859   -1.1027   41.5970 C   0  0  0  0  0  0  0  0  0  0  0  0
    1.5858   -1.4430   41.9548 C   0  0  0  0  0  0  0  0  0  0  0  0
   -0.3290   -3.4217   41.4987 C   0  0  0  0  0  0  0  0  0  0  0  0
    1.8734   -2.7956   42.1741 C   0  0  0  0  0  0  0  0  0  0  0  0
    0.8724   -3.7449   42.0341 C   0  0  0  0  0  0  0  0  0  0  0  0
    2.6019   -0.4572   42.2191 C   0  0  0  0  0  0  0  0  0  0  0  0
    2.5589    0.8906   41.8355 C   0  0  0  0  0  0  0  0  0  0  0  0
    3.8579   -0.9222   42.8408 C   0  0  0  0  0  0  0  0  0  0  0  0
    4.9117   -0.0114   43.1066 C   0  0  0  0  0  0  0  0  0  0  0  0
    6.0308   -0.5724   43.7745 C   0  0  0  0  0  0  0  0  0  0  0  0
    5.9378   -1.8814   44.4225 C   0  0  0  0  0  0  0  0  0  0  0  0
    4.8106   -2.6873   44.1611 C   0  0  0  0  0  0  0  0  0  0  0  0
    3.7934   -2.1869   43.4472 C   0  0  0  0  0  0  0  0  0  0  0  0
    2.7174   -3.0262   43.0194 C   0  0  0  0  0  0  0  0  0  0  0  0
   -1.8829   -1.6996   41.0509 F   0  0  0  0  0  0  0  0  0  0  0  0
    6.9039   -2.2652   45.4070 C   0  0  0  0  0  0  0  0  0  0  0  0
    6.8282   -2.7781   46.5217 C   0  0  0  0  0  0  0  0  0  0  0  0
    7.9074   -3.2417   47.3589 C   0  0  0  0  0  0  0  0  0  0  0  0
    7.7293   -4.0929   48.4729 C   0  0  0  0  0  0  0  0  0  0  0  0
    6.3441   -4.3481   48.8551 C   0  0  0  0  0  0  0  0  0  0  0  0
    5.3232   -3.9436   48.0007 C   0  0  0  0  0  0  0  0  0  0  0  0
    5.5194   -3.2750   46.9123 C   0  0  0  0  0  0  0  0  0  0  0  0
    9.1308   -2.6870   46.9006 C   0  0  0  0  0  0  0  0  0  0  0  0
   10.0871   -2.3197   47.9118 C   0  0  0  0  0  0  0  0  0  0  0  0
   11.2190   -1.7116   47.4847 C   0  0  0  0  0  0  0  0  0  0  0  0
   11.4854   -1.5679   46.0954 C   0  0  0  0  0  0  0  0  0  0  0  0
   11.0606   -2.2230   45.4170 C   0  0  0  0  0  0  0  0  0  0  0  0
    9.6096   -2.6669   45.6594 C   0  0  0  0  0  0  0  0  0  0  0  0
    8.7864   -4.3956   49.3896 C   0  0  0  0  0  0  0  0  0  0  0  0
    8.7283   -4.2980   50.6881 C   0  0  0  0  0  0  0  0  0  0  0  0
    9.5233   -4.0705   51.3833 C   0  0  0  0  0  0  0  0  0  0  0  0
   10.5016   -3.8464   51.3827 C   0  0  0  0  0  0  0  0  0  0  0  0
   11.0536   -4.1668   50.0451 C   0  0  0  0  0  0  0  0  0  0  0  0
   10.1297   -4.2358   48.9117 C   0  0  0  0  0  0  0  0  0  0  0  0
  3  7  1  0
  7  8  2  0
  7  9  1  0
  5 15  1  0
 14 15  1  0
  1 16  1  0
 12 17  1  0
 19 24  1  0
 20 30  1  0
 17 18  1  0
 18 19  2  0
 19 20  1  0
 20 21  2  0
 21 22  1  0
 22 23  2  0
 23 18  1  0
  1  2  2  0
  2  3  1  0
  3  5  2  0
  5  6  1  0
  6  4  2  0
  4  1  1  0
 24 25  2  0
 25 26  1  0
 26 27  2  0
 27 28  1  0
 28 29  2  0
 29 24  1  0
 30 31  2  0
 31 32  1  0
 32 33  2  0
 33 34  1  0
 34 35  2  0
 35 30  1  0
  9 10  2  0
 10 11  1  0
 11 12  2  0
 12 13  1  0
 13 14  2  0
 14  9  1  0
M  END
$$$$
O14757_PocketFlow_idx-in-all-generaetd-646
     RDKit          3D

 35 39  0  0  0  0  0  0  0  0999 V2000
   -0.6395   -2.0713   41.4947 C   0  0  0  0  0  0  0  0  0  0  0  0
   -0.2671   -3.2464   41.6546 C   0  0  0  0  0  0  0  0  0  0  0  0
   -2.0053   -1.6706   41.3987 C   0  0  0  0  0  0  0  0  0  0  0  0
   -2.2928   -0.3176   41.3208 C   0  0  1  0  0  0  0  0  0  0  0  0
   -1.1183    0.4291   41.3014 N   0  0  0  0  0  0  0  0  0  0  0  0
   -0.1078   -0.5944   41.4777 C   0  0  0  0  0  0  0  0  0  0  0  0
    1.3508   -0.3343   41.5211 C   0  0  0  0  0  0  0  0  0  0  0  0
    1.9551    0.7996   41.4204 C   0  0  0  0  0  0  0  0  0  0  0  0
    2.1688   -1.5079   41.6538 C   0  0  0  0  0  0  0  0  0  0  0  0
    1.7273   -2.6218   42.3012 C   0  0  0  0  0  0  0  0  0  0  0  0
    0.7517   -3.5602   42.1436 C   0  0  0  0  0  0  0  0  0  0  0  0
   -3.3472    0.3116   41.1482 F   0  0  0  0  0  0  0  0  0  0  0  0
    2.9724   -2.9844   43.3175 C   0  0  2  0  0  0  0  0  0  0  0  0
    2.9616   -4.0413   44.1764 C   0  0  0  0  0  0  0  0  0  0  0  0
    4.0842   -4.1503   45.0398 C   0  0  1  0  0  0  0  0  0  0  0  0
    5.0305   -3.1664   45.1413 C   0  0  0  0  0  0  0  0  0  0  0  0
    4.9411   -1.9988   44.3233 C   0  0  0  0  0  0  0  0  0  0  0  0
    3.8666   -1.8694   43.4615 C   0  0  0  0  0  0  0  0  0  0  0  0
    6.1551   -3.2862   46.0668 C   0  0  0  0  0  0  0  0  0  0  0  0
    7.3485   -2.5411   45.8989 C   0  0  0  0  0  0  0  0  0  0  0  0
    7.1923   -1.3394   45.0741 C   0  0  0  0  0  0  0  0  0  0  0  0
    6.0641   -1.1249   44.2735 C   0  0  0  0  0  0  0  0  0  0  0  0
    8.4987   -2.6672   46.7121 C   0  0  0  0  0  0  0  0  0  0  0  0
    8.8635   -4.0019   47.0886 C   0  0  0  0  0  0  0  0  0  0  0  0
   10.1200   -4.2218   47.5516 C   0  0  0  0  0  0  0  0  0  0  0  0
    9.4273   -1.7175   46.8971 C   0  0  0  0  0  0  0  0  0  0  0  0
   10.6695   -1.8549   47.4563 C   0  0  0  0  0  0  0  0  0  0  0  0
   11.0156   -3.1450   47.8689 C   0  0  0  0  0  0  0  0  0  0  0  0
    4.0626   -5.3503   45.9255 C   0  0  0  0  0  0  0  0  0  0  0  0
    3.4199   -6.3726   45.6771 O   0  0  0  0  0  0  0  0  0  0  0  0
    4.4716   -5.1876   47.2266 O   0  0  0  0  0  0  0  0  0  0  0  0
   10.5175   -5.6227   47.9750 C   0  0  0  0  0  0  0  0  0  0  0  0
   10.3565   -6.5433   47.1100 N   0  0  0  0  0  0  0  0  0  0  0  0
    9.4116   -7.5302   47.1449 C   0  0  0  0  0  0  0  0  0  0  0  0
    9.4660   -8.6272   46.2091 C   0  0  0  0  0  0  0  0  0  0  0  0
  1  2  1  0
  1  3  2  0
  3  4  1  0
  4  5  1  0
  1  6  1  0
  5  6  2  0
  6  7  1  0
  7  8  2  0
  7  9  1  0
  9 10  1  0
  2 11  2  0
 10 11  2  0
  4 12  1  6
 13 10  1  1
 13 14  1  0
 14 15  1  0
 15 16  1  0
 13 18  1  0
 17 18  1  0
 20 23  1  0
 15 29  1  1
 29 30  2  0
 29 31  1  0
 25 32  1  0
 32 33  1  0
 33 34  1  0
 34 35  2  0
 23 24  2  0
 24 25  1  0
 25 28  2  0
 28 27  1  0
 27 26  2  0
 26 23  1  0
 16 17  2  0
 17 22  1  0
 22 21  2  0
 21 20  1  0
 20 19  2  0
 19 16  1  0
M  END
$$$$
O14757_PocketFlow_idx-in-all-generaetd-647
     RDKit          3D

 23 26  0  0  0  0  0  0  0  0999 V2000
   -0.6395   -2.0713   41.4947 C   0  0  0  0  0  0  0  0  0  0  0  0
    0.6719   -2.2449   41.7518 C   0  0  0  0  0  0  0  0  0  0  0  0
    1.5951   -1.1948   41.6106 C   0  0  0  0  0  0  0  0  0  0  0  0
    2.9587   -1.3961   42.0240 C   0  0  0  0  0  0  0  0  0  0  0  0
    3.1624   -1.7136   43.3240 C   0  0  0  0  0  0  0  0  0  0  0  0
    2.5825   -2.9760   43.8109 C   0  0  0  0  0  0  0  0  0  0  0  0
    1.3177   -3.4495   43.5935 C   0  0  0  0  0  0  0  0  0  0  0  0
    0.5041   -3.0040   42.6923 C   0  0  2  0  0  0  0  0  0  0  0  0
   -1.4001   -3.1605   41.2684 N   0  0  0  0  0  0  0  0  0  0  0  0
    4.4437   -1.4507   43.9082 C   0  0  0  0  0  0  0  0  0  0  0  0
    4.7955   -2.0929   45.1356 C   0  0  0  0  0  0  0  0  0  0  0  0
    6.0062   -1.6931   45.8074 C   0  0  0  0  0  0  0  0  0  0  0  0
    6.4049   -2.5598   46.8313 C   0  0  0  0  0  0  0  0  0  0  0  0
    5.5630   -3.6701   47.2086 C   0  0  0  0  0  0  0  0  0  0  0  0
    4.3785   -3.9455   46.5233 C   0  0  0  0  0  0  0  0  0  0  0  0
    4.0944   -3.2011   45.4701 C   0  0  0  0  0  0  0  0  0  0  0  0
    3.1880   -3.5575   44.8897 N   0  0  0  0  0  0  0  0  0  0  0  0
    5.1899   -0.2268   43.4407 C   0  0  0  0  0  0  0  0  0  0  0  0
   -0.6672   -3.8297   42.4103 N   0  0  0  0  0  0  0  0  0  0  0  0
    6.0498   -4.4971   48.4127 C   0  0  0  0  0  0  0  0  0  0  0  0
    6.7612   -3.9886   49.3060 N   0  0  0  0  0  0  0  0  0  0  0  0
    5.5827   -6.1228   48.4632 Cl  0  0  0  0  0  0  0  0  0  0  0  0
    1.2425    0.0339   41.0385 C   0  0  0  0  0  0  0  0  0  0  0  0
  1  2  1  0
  2  3  2  0
  3  4  1  0
  4  5  1  0
  2  8  1  0
  8  7  1  6
  1  9  1  0
 10 18  1  0
  8 19  1  0
  9 19  1  0
 14 20  1  0
 20 21  2  3
 20 22  1  0
  3 23  1  0
  7  6  1  0
 11 12  1  0
 12 13  2  0
 13 14  1  0
 14 15  2  0
 15 16  1  0
  5  6  2  0
  6 17  1  0
 17 16  2  0
 16 11  1  0
 11 10  2  0
 10  5  1  0
M  END
$$$$
O14757_PocketFlow_idx-in-all-generaetd-648
     RDKit          3D

 19 19  0  0  0  0  0  0  0  0999 V2000
   -0.6395   -2.0713   41.4947 C   0  0  0  0  0  0  0  0  0  0  0  0
    0.1859   -1.1027   41.5970 C   0  0  0  0  0  0  0  0  0  0  0  0
    1.5836   -1.3270   41.4669 C   0  0  0  0  0  0  0  0  0  0  0  0
    2.3803   -1.4174   42.6857 C   0  0  0  0  0  0  0  0  0  0  0  0
    3.6730   -0.8928   42.6924 C   0  0  2  0  0  0  0  0  0  0  0  0
    4.7093   -1.5370   43.4434 C   0  0  0  0  0  0  0  0  0  0  0  0
    5.7270   -0.8289   44.1002 C   0  0  0  0  0  0  0  0  0  0  0  0
   -1.9522   -1.8726   41.3886 O   0  0  0  0  0  0  0  0  0  0  0  0
   -0.2847   -3.3104   41.4659 O   0  0  0  0  0  0  0  0  0  0  0  0
    6.2361   -1.5360   45.2849 C   0  0  0  0  0  0  0  0  0  0  0  0
    5.8189   -2.8981   45.5309 C   0  0  0  0  0  0  0  0  0  0  0  0
    4.8096   -3.4599   44.8043 C   0  0  0  0  0  0  0  0  0  0  0  0
    4.2470   -2.7582   43.8709 C   0  0  0  0  0  0  0  0  0  0  0  0
    4.4213   -4.8368   45.1477 C   0  0  0  0  0  0  0  0  0  0  0  0
    4.9210   -5.3660   46.1613 F   0  0  0  0  0  0  0  0  0  0  0  0
    2.9963   -4.8110   45.2273 F   0  0  0  0  0  0  0  0  0  0  0  0
    3.9135    0.4471   42.1896 C   0  0  0  0  0  0  0  0  0  0  0  0
    4.6181   -5.6360   44.0404 F   0  0  0  0  0  0  0  0  0  0  0  0
    7.2822   -1.0292   45.8545 F   0  0  0  0  0  0  0  0  0  0  0  0
  1  2  1  0
  2  3  1  0
  3  4  1  0
  4  5  1  0
  5  6  1  0
  1  8  2  0
  1  9  1  0
 12 14  1  0
 14 15  1  0
 14 16  1  0
  5 17  1  1
 14 18  1  0
 10 19  1  0
  6  7  2  0
  7 10  1  0
 10 11  2  0
 11 12  1  0
 12 13  2  0
 13  6  1  0
M  END
$$$$
O14757_PocketFlow_idx-in-all-generaetd-649
     RDKit          3D

 32 35  0  0  0  0  0  0  0  0999 V2000
   -0.6395   -2.0713   41.4947 C   0  0  0  0  0  0  0  0  0  0  0  0
    0.1859   -1.1027   41.5970 C   0  0  0  0  0  0  0  0  0  0  0  0
    1.5836   -1.3270   41.4669 C   0  0  0  0  0  0  0  0  0  0  0  0
   -0.2462   -3.3905   41.2409 C   0  0  0  0  0  0  0  0  0  0  0  0
    2.0578   -2.6838   41.5381 C   0  0  0  0  0  0  0  0  0  0  0  0
    1.0785   -3.6429   41.2820 C   0  0  0  0  0  0  0  0  0  0  0  0
   -2.0540   -2.0038   41.4583 N   0  0  0  0  0  0  0  0  0  0  0  0
    2.4770   -0.3038   41.6922 N   0  0  0  0  0  0  0  0  0  0  0  0
    3.5437   -0.3307   42.5379 C   0  0  0  0  0  0  0  0  0  0  0  0
    4.6345    0.6340   42.3350 C   0  0  0  0  0  0  0  0  0  0  0  0
    3.6911   -1.2802   43.4229 N   0  0  0  0  0  0  0  0  0  0  0  0
    4.8415   -1.2737   44.2498 C   0  0  0  0  0  0  0  0  0  0  0  0
    4.8433   -2.2096   45.3533 C   0  0  0  0  0  0  0  0  0  0  0  0
    3.8974   -2.5685   46.1028 C   0  0  0  0  0  0  0  0  0  0  0  0
    4.1710   -3.6726   47.0908 C   0  0  0  0  0  0  0  0  0  0  0  0
    5.4760   -4.2045   47.1081 C   0  0  0  0  0  0  0  0  0  0  0  0
    6.4803   -3.7537   46.3286 C   0  0  0  0  0  0  0  0  0  0  0  0
    6.2295   -2.7619   45.3807 C   0  0  0  0  0  0  0  0  0  0  0  0
    5.8343   -0.3436   44.0400 C   0  0  0  0  0  0  0  0  0  0  0  0
    5.6415    0.5919   43.1529 N   0  0  0  0  0  0  0  0  0  0  0  0
    5.7467   -5.3988   48.3420 Cl  0  0  0  0  0  0  0  0  0  0  0  0
   -2.7985   -1.4124   40.4708 C   0  0  0  0  0  0  0  0  0  0  0  0
   -4.2633   -1.5711   40.5042 C   0  0  0  0  0  0  0  0  0  0  0  0
   -4.7308   -1.3688   39.2921 O   0  0  0  0  0  0  0  0  0  0  0  0
   -4.7359   -0.8426   41.3721 O   0  0  0  0  0  0  0  0  0  0  0  0
    7.7507   -4.2608   46.4064 O   0  0  0  0  0  0  0  0  0  0  0  0
    8.3683   -4.3995   47.6166 C   0  0  0  0  0  0  0  0  0  0  0  0
    9.7567   -4.2789   47.6373 C   0  0  0  0  0  0  0  0  0  0  0  0
   10.3480   -4.5582   48.6597 C   0  0  0  0  0  0  0  0  0  0  0  0
    9.7157   -4.8809   49.9018 C   0  0  0  0  0  0  0  0  0  0  0  0
    8.3445   -4.9453   49.9011 C   0  0  0  0  0  0  0  0  0  0  0  0
    7.6908   -4.6807   48.7268 C   0  0  0  0  0  0  0  0  0  0  0  0
  1  7  1  0
  3  8  1  0
  8  9  1  0
 12 13  1  0
 16 21  1  0
  7 22  1  0
 22 23  1  0
 23 24  1  0
 23 25  2  0
 17 26  1  0
 26 27  1  0
 13 14  2  0
 14 15  1  0
 15 16  2  0
 16 17  1  0
 17 18  2  0
 18 13  1  0
  1  2  2  0
  2  3  1  0
  3  5  2  0
  5  6  1  0
  6  4  2  0
  4  1  1  0
  9 10  2  0
 10 20  1  0
 20 19  2  0
 19 12  1  0
 12 11  2  0
 11  9  1  0
 27 28  2  0
 28 29  1  0
 29 30  2  0
 30 31  1  0
 31 32  2  0
 32 27  1  0
M  END
$$$$
O14757_PocketFlow_idx-in-all-generaetd-650
     RDKit          3D

 32 35  0  0  0  0  0  0  0  0999 V2000
   -0.6395   -2.0713   41.4947 C   0  0  0  0  0  0  0  0  0  0  0  0
   -0.2671   -3.2464   41.6546 C   0  0  0  0  0  0  0  0  0  0  0  0
    0.2277   -0.9875   41.6495 C   0  0  0  0  0  0  0  0  0  0  0  0
    1.6284   -1.2752   41.8841 C   0  0  0  0  0  0  0  0  0  0  0  0
    2.6642   -0.3505   42.1208 C   0  0  0  0  0  0  0  0  0  0  0  0
    3.9055   -0.7607   42.4273 C   0  0  0  0  0  0  0  0  0  0  0  0
    4.0073   -2.0746   43.0509 C   0  0  0  0  0  0  0  0  0  0  0  0
    2.8738   -2.8923   43.1371 C   0  0  0  0  0  0  0  0  0  0  0  0
    1.6589   -2.4239   42.6613 C   0  0  0  0  0  0  0  0  0  0  0  0
    0.7466   -3.5004   42.3994 C   0  0  0  0  0  0  0  0  0  0  0  0
    5.0240    0.0096   42.4751 N   0  0  0  0  0  0  0  0  0  0  0  0
   -1.9232   -1.5842   40.8281 C   0  0  0  0  0  0  0  0  0  0  0  0
   -2.6160   -0.5120   41.2971 N   0  0  0  0  0  0  0  0  0  0  0  0
   -2.7167   -2.4890   40.2538 N   0  0  0  0  0  0  0  0  0  0  0  0
   -3.8154   -0.4697   40.6644 C   0  0  0  0  0  0  0  0  0  0  0  0
   -3.8945   -1.6954   40.0726 N   0  0  0  0  0  0  0  0  0  0  0  0
    2.9742   -3.9832   44.1602 C   0  0  0  0  0  0  0  0  0  0  0  0
    4.1646   -4.5871   44.4396 C   0  0  0  0  0  0  0  0  0  0  0  0
    1.8320   -4.3003   44.9042 C   0  0  0  0  0  0  0  0  0  0  0  0
    1.8081   -5.3375   45.8558 C   0  0  0  0  0  0  0  0  0  0  0  0
    0.5258   -5.8746   46.0611 C   0  0  0  0  0  0  0  0  0  0  0  0
    0.0450   -6.9246   45.6501 N   0  0  0  0  0  0  0  0  0  0  0  0
   -1.2163   -7.3407   45.5152 C   0  0  0  0  0  0  0  0  0  0  0  0
   -1.7667   -7.5820   44.2876 C   0  0  0  0  0  0  0  0  0  0  0  0
   -3.0535   -8.2287   44.2254 C   0  0  0  0  0  0  0  0  0  0  0  0
   -3.6954   -8.6659   45.3941 C   0  0  0  0  0  0  0  0  0  0  0  0
   -3.0892   -8.4593   46.6534 C   0  0  0  0  0  0  0  0  0  0  0  0
   -1.7770   -7.8586   46.7606 C   0  0  0  0  0  0  0  0  0  0  0  0
   -5.0222   -9.2137   45.3530 C   0  0  0  0  0  0  0  0  0  0  0  0
   -5.4187   -9.5390   46.5319 F   0  0  0  0  0  0  0  0  0  0  0  0
   -5.8502   -8.2561   44.8405 F   0  0  0  0  0  0  0  0  0  0  0  0
   -5.1006  -10.2331   44.5404 F   0  0  0  0  0  0  0  0  0  0  0  0
  6 11  1  0
  1 12  1  0
 12 13  1  0
 12 14  2  0
 13 15  1  0
 14 16  1  0
 15 16  1  0
  8 17  1  0
 17 18  2  0
 17 19  1  0
 19 20  1  0
 20 21  1  0
 21 22  1  0
 22 23  1  0
 26 29  1  0
 29 30  1  0
 29 31  1  0
 29 32  1  0
  1  2  2  0
  2 10  1  0
 10  9  2  0
  4  3  2  0
  3  1  1  0
 23 24  2  0
 24 25  1  0
 25 26  2  0
 26 27  1  0
 27 28  2  0
 28 23  1  0
  4  5  1  0
  5  6  2  0
  6  7  1  0
  7  8  2  0
  8  9  1  0
  9  4  1  0
M  END
$$$$
O14757_PocketFlow_idx-in-all-generaetd-651
     RDKit          3D

 35 37  0  0  0  0  0  0  0  0999 V2000
   -0.6395   -2.0713   41.4947 C   0  0  0  0  0  0  0  0  0  0  0  0
    0.1859   -1.1027   41.5970 C   0  0  0  0  0  0  0  0  0  0  0  0
    1.5836   -1.3270   41.4670 C   0  0  0  0  0  0  0  0  0  0  0  0
   -0.2462   -3.3905   41.2409 C   0  0  0  0  0  0  0  0  0  0  0  0
    2.5675   -0.3472   41.7943 C   0  0  0  0  0  0  0  0  0  0  0  0
    3.8546   -0.6776   42.2362 C   0  0  0  0  0  0  0  0  0  0  0  0
    3.9971   -0.8191   43.6382 C   0  0  0  0  0  0  0  0  0  0  0  0
    5.3531   -1.1327   44.1210 C   0  0  0  0  0  0  0  0  0  0  0  0
    5.5678   -2.2292   44.9984 C   0  0  0  0  0  0  0  0  0  0  0  0
    4.7708   -3.3437   45.1299 C   0  0  0  0  0  0  0  0  0  0  0  0
    3.8251   -3.7079   44.2199 C   0  0  0  0  0  0  0  0  0  0  0  0
    2.9615   -4.7513   44.6623 C   0  0  0  0  0  0  0  0  0  0  0  0
    3.3169   -5.5854   45.5846 C   0  0  0  0  0  0  0  0  0  0  0  0
    4.4036   -5.3450   46.4137 C   0  0  0  0  0  0  0  0  0  0  0  0
    5.1567   -4.2080   46.2228 C   0  0  0  0  0  0  0  0  0  0  0  0
    1.1456   -3.6372   41.1353 C   0  0  0  0  0  0  0  0  0  0  0  0
    2.0035   -2.6014   41.2880 C   0  0  0  0  0  0  0  0  0  0  0  0
    6.9122   -2.1873   45.6670 C   0  0  0  0  0  0  0  0  0  0  0  0
    7.2523   -3.0459   46.5611 C   0  0  0  0  0  0  0  0  0  0  0  0
    8.5154   -3.0850   47.2880 C   0  0  0  0  0  0  0  0  0  0  0  0
    6.3832   -4.1227   46.8840 C   0  0  0  0  0  0  0  0  0  0  0  0
    9.6641   -3.4578   47.4191 P   0  0  2  0  0  0  0  0  0  0  0  0
   10.2967   -3.7394   48.3392 O   0  0  0  0  0  0  0  0  0  0  0  0
   10.5379   -2.3621   46.5784 O   0  0  0  0  0  0  0  0  0  0  0  0
    9.8521   -4.6980   46.2868 O   0  0  0  0  0  0  0  0  0  0  0  0
   -2.3910   -1.8178   41.5566 Cl  0  0  0  0  0  0  0  0  0  0  0  0
    6.1373   -0.0617   44.1424 O   0  0  0  0  0  0  0  0  0  0  0  0
    2.6558   -6.8583   45.8361 C   0  0  0  0  0  0  0  0  0  0  0  0
    1.5649   -6.8714   45.2821 F   0  0  0  0  0  0  0  0  0  0  0  0
    3.2008   -7.9328   46.0780 F   0  0  0  0  0  0  0  0  0  0  0  0
   11.2221   -3.0560   49.0190 C   0  0  0  0  0  0  0  0  0  0  0  0
   11.4656   -3.0926   50.3902 C   0  0  0  0  0  0  0  0  0  0  0  0
   12.1839   -2.4787   50.7918 F   0  0  0  0  0  0  0  0  0  0  0  0
   10.1042   -2.7493   50.8416 F   0  0  0  0  0  0  0  0  0  0  0  0
   11.4886   -4.4106   50.7034 F   0  0  0  0  0  0  0  0  0  0  0  0
  3  5  1  0
  5  6  1  0
  6  7  1  0
  7  8  1  0
  8  9  1  0
 19 20  1  0
 20 22  1  0
 22 23  1  0
 22 24  2  0
 22 25  1  6
  1 26  1  0
  8 27  2  0
 13 28  1  0
 28 29  1  0
 28 30  1  0
 23 31  1  0
 31 32  1  0
 32 33  1  0
 32 34  1  0
 32 35  1  0
  9 10  1  0
 15 21  1  0
 21 19  2  0
 19 18  1  0
 18  9  2  0
  1  2  2  0
  2  3  1  0
  3 17  2  0
 17 16  1  0
 16  4  2  0
  4  1  1  0
 10 11  2  0
 11 12  1  0
 12 13  2  0
 13 14  1  0
 14 15  2  0
 15 10  1  0
M  END
$$$$
O14757_PocketFlow_idx-in-all-generaetd-652
     RDKit          3D

 27 29  0  0  0  0  0  0  0  0999 V2000
   -0.6395   -2.0713   41.4947 C   0  0  0  0  0  0  0  0  0  0  0  0
   -0.2671   -3.2464   41.6546 C   0  0  0  0  0  0  0  0  0  0  0  0
    0.2407   -0.9706   41.5952 C   0  0  0  0  0  0  0  0  0  0  0  0
    1.6195   -1.2958   41.8767 C   0  0  0  0  0  0  0  0  0  0  0  0
    2.6583   -0.3517   42.0703 C   0  0  0  0  0  0  0  0  0  0  0  0
    3.7100   -0.6048   42.9733 C   0  0  0  0  0  0  0  0  0  0  0  0
    3.9332   -1.9315   43.3907 C   0  0  0  0  0  0  0  0  0  0  0  0
    2.8043   -2.8322   43.2715 C   0  0  0  0  0  0  0  0  0  0  0  0
    1.6915   -2.4495   42.6102 C   0  0  0  0  0  0  0  0  0  0  0  0
    0.7539   -3.5024   42.3682 C   0  0  0  0  0  0  0  0  0  0  0  0
    5.0595   -2.2398   44.2391 C   0  0  0  0  0  0  0  0  0  0  0  0
    5.1694   -3.4579   44.9991 C   0  0  0  0  0  0  0  0  0  0  0  0
    5.4327   -3.3359   46.2565 C   0  0  0  0  0  0  0  0  0  0  0  0
    5.3853   -4.5099   47.1207 C   0  0  0  0  0  0  0  0  0  0  0  0
    5.8450   -4.3933   48.4545 C   0  0  0  0  0  0  0  0  0  0  0  0
    5.6735   -5.2675   49.3467 C   0  0  0  0  0  0  0  0  0  0  0  0
    6.2049   -6.4850   49.1017 C   0  0  0  0  0  0  0  0  0  0  0  0
    6.0280   -7.4963   50.0095 C   0  0  0  0  0  0  0  0  0  0  0  0
    6.1294   -1.2753   44.2797 C   0  0  0  0  0  0  0  0  0  0  0  0
    6.8254   -8.4209   50.1490 C   0  0  0  0  0  0  0  0  0  0  0  0
    7.7165   -8.7565   49.0337 C   0  0  0  0  0  0  0  0  0  0  0  0
    7.8815   -7.7859   48.0517 C   0  0  0  0  0  0  0  0  0  0  0  0
    7.1523   -6.6117   48.1448 C   0  0  0  0  0  0  0  0  0  0  0  0
   -2.0323   -1.6792   40.9847 C   0  0  0  0  0  0  0  0  0  0  0  0
   -2.6752   -0.5416   41.3038 N   0  0  0  0  0  0  0  0  0  0  0  0
   -2.7571   -2.5486   40.4376 O   0  0  0  0  0  0  0  0  0  0  0  0
   -3.9248   -0.0776   40.8691 C   0  0  0  0  0  0  0  0  0  0  0  0
  7 11  1  0
 11 12  1  0
 12 13  2  3
 13 14  1  0
 14 15  1  0
 15 16  2  3
 16 17  1  0
 11 19  1  0
  1 24  1  0
 24 25  1  0
 24 26  2  0
 25 27  1  0
  1  2  2  0
  2 10  1  0
 10  9  2  0
  4  3  2  0
  3  1  1  0
 17 18  2  0
 18 20  1  0
 20 21  2  0
 21 22  1  0
 22 23  2  0
 23 17  1  0
  4  5  1  0
  5  6  2  0
  6  7  1  0
  7  8  2  0
  8  9  1  0
  9  4  1  0
M  END
$$$$
O14757_PocketFlow_idx-in-all-generaetd-653
     RDKit          3D

 11 11  0  0  0  0  0  0  0  0999 V2000
    0.0872   -2.8840   42.3280 Br  0  0  0  0  0  0  0  0  0  0  0  0
    1.5245   -2.8086   42.6889 C   0  0  0  0  0  0  0  0  0  0  0  0
    2.0567   -3.6224   43.4658 C   0  0  0  0  0  0  0  0  0  0  0  0
    3.4446   -3.4571   43.9466 C   0  0  0  0  0  0  0  0  0  0  0  0
    4.0674   -2.4933   44.1329 C   0  0  0  0  0  0  0  0  0  0  0  0
    3.6173   -1.4170   43.1496 C   0  0  0  0  0  0  0  0  0  0  0  0
    4.3619   -0.2229   42.9903 C   0  0  0  0  0  0  0  0  0  0  0  0
    2.2498   -1.4966   42.6272 C   0  0  0  0  0  0  0  0  0  0  0  0
    4.0644   -4.6151   44.9233 C   0  0  0  0  0  0  0  0  0  0  0  0
    3.4048   -5.7298   45.0169 N   0  0  0  0  0  0  0  0  0  0  0  0
    3.9301    0.7627   42.2348 O   0  0  0  0  0  0  0  0  0  0  0  0
  1  2  1  0
  4  9  1  0
  9 10  1  0
  7 11  1  0
  7  6  1  0
  2  3  2  0
  3  4  1  0
  4  5  2  0
  5  6  1  0
  6  8  2  0
  8  2  1  0
M  END
$$$$
O14757_PocketFlow_idx-in-all-generaetd-654
     RDKit          3D

 35 38  0  0  0  0  0  0  0  0999 V2000
   -0.6395   -2.0713   41.4947 C   0  0  0  0  0  0  0  0  0  0  0  0
    0.6719   -2.2449   41.7518 C   0  0  2  0  0  0  0  0  0  0  0  0
    1.5951   -1.1948   41.6106 C   0  0  0  0  0  0  0  0  0  0  0  0
    2.8936   -1.2860   42.2441 C   0  0  0  0  0  0  0  0  0  0  0  0
    3.7940   -0.2219   42.2897 C   0  0  0  0  0  0  0  0  0  0  0  0
   -1.5413   -3.1234   41.4338 C   0  0  0  0  0  0  0  0  0  0  0  0
    5.0120   -0.3694   42.9827 C   0  0  0  0  0  0  0  0  0  0  0  0
    5.3025   -1.4947   43.7553 C   0  0  0  0  0  0  0  0  0  0  0  0
    4.3310   -2.5622   43.7178 C   0  0  0  0  0  0  0  0  0  0  0  0
    3.1286   -2.4010   43.0159 C   0  0  0  0  0  0  0  0  0  0  0  0
   -0.9055   -4.3646   41.4495 N   0  0  0  0  0  0  0  0  0  0  0  0
    4.5754   -3.7936   44.4580 C   0  0  0  0  0  0  0  0  0  0  0  0
    3.9416   -4.0739   45.6351 C   0  0  0  0  0  0  0  0  0  0  0  0
    4.4056   -3.4003   46.7501 C   0  0  0  0  0  0  0  0  0  0  0  0
    2.7238   -4.7832   45.6760 C   0  0  0  0  0  0  0  0  0  0  0  0
    2.6195   -5.9985   45.1834 C   0  0  0  0  0  0  0  0  0  0  0  0
    1.4809   -6.7027   44.9289 C   0  0  0  0  0  0  0  0  0  0  0  0
    0.2786   -5.9371   45.1214 C   0  0  0  0  0  0  0  0  0  0  0  0
    0.3054   -4.6197   45.5880 C   0  0  0  0  0  0  0  0  0  0  0  0
    1.5555   -4.0196   45.8037 C   0  0  0  0  0  0  0  0  0  0  0  0
    0.8154   -3.7080   41.7931 C   0  0  0  0  0  0  0  0  0  0  0  0
   -0.9626   -6.6873   44.8396 C   0  0  0  0  0  0  0  0  0  0  0  0
   -1.2735   -6.9958   43.6872 O   0  0  0  0  0  0  0  0  0  0  0  0
   -1.8497   -6.9052   45.8149 O   0  0  0  0  0  0  0  0  0  0  0  0
    5.6152   -4.1729   47.3879 C   0  0  0  0  0  0  0  0  0  0  0  0
    5.9295   -4.2550   48.6684 C   0  0  0  0  0  0  0  0  0  0  0  0
    7.0825   -4.9976   49.1074 C   0  0  0  0  0  0  0  0  0  0  0  0
    7.3671   -5.2991   50.1292 C   0  0  0  0  0  0  0  0  0  0  0  0
    8.5519   -6.1503   50.4149 C   0  0  0  0  0  0  0  0  0  0  0  0
    9.2904   -6.5985   49.3827 C   0  0  0  0  0  0  0  0  0  0  0  0
    7.9943   -5.6138   48.0946 C   0  0  0  0  0  0  0  0  0  0  0  0
    8.9944   -6.2993   48.1818 C   0  0  0  0  0  0  0  0  0  0  0  0
    6.4354   -1.5737   44.3655 F   0  0  0  0  0  0  0  0  0  0  0  0
   -1.1465   -0.7172   41.3694 N   0  0  0  0  0  0  0  0  0  0  0  0
    1.3075   -0.0784   40.8457 C   0  0  0  0  0  0  0  0  0  0  0  0
  1  2  1  0
  2  3  1  6
  3  4  1  0
  1  6  2  0
  6 11  1  0
  9 12  1  0
 12 13  1  0
 13 14  2  3
 13 15  1  0
  2 21  1  0
 11 21  2  0
 18 22  1  0
 22 23  2  0
 22 24  1  0
 14 25  1  0
 25 26  2  3
 26 27  1  0
  8 33  1  0
  1 34  1  0
  3 35  1  0
 15 16  2  0
 16 17  1  0
 17 18  2  0
 18 19  1  0
 19 20  2  0
 20 15  1  0
  4  5  2  0
  5  7  1  0
  7  8  2  0
  8  9  1  0
  9 10  2  0
 10  4  1  0
 27 28  2  0
 28 29  1  0
 29 30  2  0
 30 32  1  0
 32 31  2  0
 31 27  1  0
M  END
$$$$
O14757_PocketFlow_idx-in-all-generaetd-655
     RDKit          3D

 24 27  0  0  0  0  0  0  0  0999 V2000
    0.2881   -2.9111   42.4378 C   0  0  0  0  0  0  0  0  0  0  0  0
    1.1784   -3.4293   42.9321 C   0  0  0  0  0  0  0  0  0  0  0  0
    2.4507   -2.7243   42.9621 C   0  0  0  0  0  0  0  0  0  0  0  0
    2.5762   -1.5430   42.3314 C   0  0  0  0  0  0  0  0  0  0  0  0
    0.2669   -1.7116   41.6824 C   0  0  0  0  0  0  0  0  0  0  0  0
    1.4692   -1.0385   41.6539 C   0  0  0  0  0  0  0  0  0  0  0  0
    3.7492   -3.0294   43.6898 C   0  0  0  0  0  0  0  0  0  0  0  0
    3.9173   -4.2379   44.4377 C   0  0  0  0  0  0  0  0  0  0  0  0
    4.7726   -4.3451   45.3818 C   0  0  0  0  0  0  0  0  0  0  0  0
    5.7039   -3.2923   45.7093 C   0  0  0  0  0  0  0  0  0  0  0  0
    5.5813   -2.0799   44.9450 C   0  0  0  0  0  0  0  0  0  0  0  0
    4.5428   -1.9067   44.0402 C   0  0  0  0  0  0  0  0  0  0  0  0
    6.8128   -3.4369   46.6571 C   0  0  0  0  0  0  0  0  0  0  0  0
    6.7031   -4.1239   47.8457 C   0  0  0  0  0  0  0  0  0  0  0  0
    7.5742   -4.0730   48.9016 C   0  0  0  0  0  0  0  0  0  0  0  0
    8.7257   -3.3784   48.7654 C   0  0  0  0  0  0  0  0  0  0  0  0
    8.0525   -2.7082   46.4451 C   0  0  0  0  0  0  0  0  0  0  0  0
    9.0019   -2.7009   47.4866 C   0  0  0  0  0  0  0  0  0  0  0  0
   -0.9034   -1.2786   41.1303 N   0  0  0  0  0  0  0  0  0  0  0  0
   -2.0114   -1.9917   40.9857 C   0  0  2  0  0  0  0  0  0  0  0  0
   -2.0781   -3.1983   41.2885 F   0  0  0  0  0  0  0  0  0  0  0  0
   -3.0534   -1.3466   40.2212 C   0  0  0  0  0  0  0  0  0  0  0  0
    4.4689   -0.6697   43.3555 C   0  0  0  0  0  0  0  0  0  0  0  0
    3.4071   -0.4617   42.5466 N   0  0  0  0  0  0  0  0  0  0  0  0
  3  7  1  0
 10 13  1  0
  5 19  1  0
 19 20  1  0
 20 21  1  0
 20 22  1  6
 12 23  1  0
  4 24  1  0
 23 24  1  0
  1  2  2  0
  2  3  1  0
  3  4  2  0
  4  6  1  0
  6  5  2  0
  5  1  1  0
 13 14  2  0
 14 15  1  0
 15 16  2  0
 16 18  1  0
 18 17  2  0
 17 13  1  0
  7  8  2  0
  8  9  1  0
  9 10  2  0
 10 11  1  0
 11 12  2  0
 12  7  1  0
M  END
$$$$
O14757_PocketFlow_idx-in-all-generaetd-656
     RDKit          3D

 10  9  0  0  0  0  0  0  0  0999 V2000
   -0.6395   -2.0713   41.4947 C   0  0  0  0  0  0  0  0  0  0  0  0
   -0.2671   -3.2464   41.6546 C   0  0  0  0  0  0  0  0  0  0  0  0
    0.2407   -0.9706   41.5952 C   0  0  0  0  0  0  0  0  0  0  0  0
    1.6195   -1.2958   41.8767 C   0  0  0  0  0  0  0  0  0  0  0  0
    1.9162   -2.6816   42.2016 C   0  0  0  0  0  0  0  0  0  0  0  0
    0.9422   -3.6324   42.1156 C   0  0  2  0  0  0  0  0  0  0  0  0
    3.1343   -2.9098   42.9789 C   0  0  0  0  0  0  0  0  0  0  0  0
    1.1725   -4.6342   42.5988 O   0  0  0  0  0  0  0  0  0  0  0  0
    2.7422   -3.0333   41.6811 O   0  0  0  0  0  0  0  0  0  0  0  0
    0.3378   -3.8794   42.9909 F   0  0  0  0  0  0  0  0  0  0  0  0
  1  2  1  0
  1  3  2  3
  3  4  1  0
  4  5  2  3
  2  6  1  0
  5  7  1  0
  6  8  1  6
  5  9  1  0
  6 10  1  0
M  END
$$$$
O14757_PocketFlow_idx-in-all-generaetd-657
     RDKit          3D

 35 38  0  0  0  0  0  0  0  0999 V2000
   -0.6770   -2.0561   41.5845 Cl  0  0  0  0  0  0  0  0  0  0  0  0
    0.8348   -2.3079   42.0606 C   0  0  0  0  0  0  0  0  0  0  0  0
    1.7771   -1.3772   41.6166 C   0  0  0  0  0  0  0  0  0  0  0  0
    1.5244   -0.1749   41.0743 C   0  0  0  0  0  0  0  0  0  0  0  0
    1.2096    0.5907   41.7490 C   0  0  0  0  0  0  0  0  0  0  0  0
    2.0463    0.9098   42.6991 C   0  0  0  0  0  0  0  0  0  0  0  0
    3.3924    0.3464   42.8008 C   0  0  0  0  0  0  0  0  0  0  0  0
    3.7502   -0.9232   42.7680 C   0  0  2  0  0  0  0  0  0  0  0  0
    4.9515   -1.3924   43.2864 C   0  0  0  0  0  0  0  0  0  0  0  0
    3.0297   -1.6736   42.1543 C   0  0  0  0  0  0  0  0  0  0  0  0
    5.9669   -0.5351   43.8335 C   0  0  0  0  0  0  0  0  0  0  0  0
    1.0946   -3.5772   42.6959 C   0  0  0  0  0  0  0  0  0  0  0  0
    0.0330   -4.4892   42.9793 C   0  0  0  0  0  0  0  0  0  0  0  0
    0.5898   -5.5295   43.7223 C   0  0  0  0  0  0  0  0  0  0  0  0
   -0.2109   -6.6126   44.1399 C   0  0  0  0  0  0  0  0  0  0  0  0
    7.0019   -1.0271   44.6386 C   0  0  0  0  0  0  0  0  0  0  0  0
    6.9177   -2.3913   45.2614 C   0  0  0  0  0  0  0  0  0  0  0  0
    5.7176   -3.1463   44.8582 C   0  0  0  0  0  0  0  0  0  0  0  0
    4.8527   -2.6916   43.9369 C   0  0  0  0  0  0  0  0  0  0  0  0
    0.1995   -7.5165   45.1709 C   0  0  0  0  0  0  0  0  0  0  0  0
    1.4967   -7.3410   45.6355 C   0  0  0  0  0  0  0  0  0  0  0  0
    2.3318   -6.3195   45.2761 C   0  0  0  0  0  0  0  0  0  0  0  0
    1.8551   -5.3911   44.4246 C   0  0  0  0  0  0  0  0  0  0  0  0
    7.7143   -2.9874   46.2406 C   0  0  0  0  0  0  0  0  0  0  0  0
    9.0954   -2.6880   46.3197 C   0  0  0  0  0  0  0  0  0  0  0  0
    9.9331   -3.4305   47.2275 C   0  0  0  0  0  0  0  0  0  0  0  0
    7.3118   -3.9408   47.1572 C   0  0  0  0  0  0  0  0  0  0  0  0
    8.0516   -4.5354   48.1214 C   0  0  0  0  0  0  0  0  0  0  0  0
    9.4009   -4.2724   48.1553 C   0  0  0  0  0  0  0  0  0  0  0  0
    1.9676   -8.4202   46.5971 C   0  0  0  0  0  0  0  0  0  0  0  0
    2.0439   -8.1456   47.7549 O   0  0  0  0  0  0  0  0  0  0  0  0
    2.6927   -9.4059   46.0726 O   0  0  0  0  0  0  0  0  0  0  0  0
    1.7730   -9.3116   48.6189 C   0  0  0  0  0  0  0  0  0  0  0  0
    1.1295  -10.3511   48.1350 C   0  0  0  0  0  0  0  0  0  0  0  0
    0.4396  -10.9780   49.1204 C   0  0  0  0  0  0  0  0  0  0  0  0
  1  2  1  0
  2  3  2  3
  3  4  1  0
  4  5  2  0
  5  6  1  0
  6  7  2  0
  7  8  1  0
  8  9  1  6
  3 10  1  0
  8 10  1  0
  2 12  1  0
 12 13  1  0
 17 24  1  0
 21 30  1  0
 30 31  1  0
 30 32  2  0
 31 33  1  0
 33 34  1  0
 34 35  2  0
 13 14  1  0
 14 15  2  0
 15 20  1  0
 20 21  2  0
 21 22  1  0
 22 23  2  0
 23 14  1  0
 24 25  2  0
 25 26  1  0
 26 29  2  0
 29 28  1  0
 28 27  2  0
 27 24  1  0
  9 11  2  0
 11 16  1  0
 16 17  2  0
 17 18  1  0
 18 19  2  0
 19  9  1  0
M  END
$$$$
O14757_PocketFlow_idx-in-all-generaetd-658
     RDKit          3D

 25 27  0  0  0  0  0  0  0  0999 V2000
   -0.6395   -2.0713   41.4947 C   0  0  0  0  0  0  0  0  0  0  0  0
   -0.2671   -3.2464   41.6546 C   0  0  0  0  0  0  0  0  0  0  0  0
    0.2277   -0.9875   41.6495 C   0  0  0  0  0  0  0  0  0  0  0  0
    1.6284   -1.2752   41.8841 C   0  0  0  0  0  0  0  0  0  0  0  0
    1.8971   -2.6873   42.1685 C   0  0  0  0  0  0  0  0  0  0  0  0
    0.9380   -3.6379   42.0922 C   0  0  0  0  0  0  0  0  0  0  0  0
    2.5765   -0.2838   42.1328 C   0  0  0  0  0  0  0  0  0  0  0  0
    3.8925   -0.5890   42.5973 C   0  0  0  0  0  0  0  0  0  0  0  0
    4.8907    0.3430   42.8374 C   0  0  0  0  0  0  0  0  0  0  0  0
   -1.9634   -1.5590   41.1102 N   0  0  0  0  0  0  0  0  0  0  0  0
    6.0425   -0.1776   43.4697 C   0  0  0  0  0  0  0  0  0  0  0  0
    5.9367   -1.2984   44.3580 C   0  0  0  0  0  0  0  0  0  0  0  0
    4.8330   -2.1693   44.1316 C   0  0  0  0  0  0  0  0  0  0  0  0
    3.7510   -1.7759   43.3861 C   0  0  0  0  0  0  0  0  0  0  0  0
    4.8274   -3.4514   44.8847 C   0  0  0  0  0  0  0  0  0  0  0  0
    4.1552   -4.5723   44.3732 C   0  0  0  0  0  0  0  0  0  0  0  0
    3.9623   -5.7024   45.1735 C   0  0  0  0  0  0  0  0  0  0  0  0
    4.3532   -5.6806   46.5071 C   0  0  0  0  0  0  0  0  0  0  0  0
    5.0523   -4.5806   47.0178 C   0  0  0  0  0  0  0  0  0  0  0  0
    5.2167   -3.3879   46.2847 C   0  0  0  0  0  0  0  0  0  0  0  0
   -2.8969   -2.4311   40.6816 C   0  0  0  0  0  0  0  0  0  0  0  0
   -2.4528   -0.2729   41.4003 C   0  0  0  0  0  0  0  0  0  0  0  0
   -3.7432    0.0002   40.9436 C   0  0  0  0  0  0  0  0  0  0  0  0
   -3.7875   -1.9040   39.8823 N   0  0  0  0  0  0  0  0  0  0  0  0
   -4.3840   -0.8092   40.1783 N   0  0  0  0  0  0  0  0  0  0  0  0
  4  7  1  0
  7  8  1  0
  1 10  1  0
 13 15  1  0
 10 21  1  0
 10 22  1  0
 22 23  1  0
 21 24  1  0
 23 25  2  3
 15 16  2  0
 16 17  1  0
 17 18  2  0
 18 19  1  0
 19 20  2  0
 20 15  1  0
  1  2  2  0
  2  6  1  0
  6  5  2  0
  5  4  1  0
  4  3  2  0
  3  1  1  0
  8  9  2  0
  9 11  1  0
 11 12  2  0
 12 13  1  0
 13 14  2  0
 14  8  1  0
M  END
$$$$
O14757_PocketFlow_idx-in-all-generaetd-659
     RDKit          3D

 29 32  0  0  0  0  0  0  0  0999 V2000
   -0.6395   -2.0713   41.4947 C   0  0  0  0  0  0  0  0  0  0  0  0
   -0.2671   -3.2464   41.6546 C   0  0  0  0  0  0  0  0  0  0  0  0
   -1.9911   -1.6663   41.2869 C   0  0  0  0  0  0  0  0  0  0  0  0
   -2.3125   -0.3119   41.2742 C   0  0  0  0  0  0  0  0  0  0  0  0
   -3.5823   -0.0329   41.1226 N   0  0  0  0  0  0  0  0  0  0  0  0
    0.4113   -1.0147   41.4908 C   0  0  0  0  0  0  0  0  0  0  0  0
    1.7571   -1.2787   41.6189 C   0  0  0  0  0  0  0  0  0  0  0  0
    2.1156   -2.3746   42.4931 C   0  0  0  0  0  0  0  0  0  0  0  0
    3.2893   -2.5661   43.1118 C   0  0  0  0  0  0  0  0  0  0  0  0
    4.2437   -1.5174   43.1922 C   0  0  0  0  0  0  0  0  0  0  0  0
    5.3659   -1.5808   44.0298 C   0  0  0  0  0  0  0  0  0  0  0  0
    1.0236   -3.4276   42.4952 C   0  0  0  0  0  0  0  0  0  0  0  0
    5.5247   -2.7510   44.8416 C   0  0  0  0  0  0  0  0  0  0  0  0
    3.5609   -3.6225   44.0461 C   0  0  0  0  0  0  0  0  0  0  0  0
    4.6053   -3.7033   44.8845 C   0  0  0  0  0  0  0  0  0  0  0  0
    6.7785   -2.7402   45.7007 C   0  0  0  0  0  0  0  0  0  0  0  0
    7.7237   -1.7496   45.6699 C   0  0  0  0  0  0  0  0  0  0  0  0
    8.8837   -1.7297   46.4557 C   0  0  0  0  0  0  0  0  0  0  0  0
    9.1106   -2.7599   47.3299 C   0  0  0  0  0  0  0  0  0  0  0  0
    6.9060   -3.7010   46.7509 C   0  0  0  0  0  0  0  0  0  0  0  0
    8.0760   -3.6909   47.5609 C   0  0  0  0  0  0  0  0  0  0  0  0
    8.0719   -4.7755   48.5253 C   0  0  0  0  0  0  0  0  0  0  0  0
    7.2347   -5.5629   48.7428 C   0  0  0  0  0  0  0  0  0  0  0  0
    7.2138   -6.5800   49.7302 C   0  0  0  0  0  0  0  0  0  0  0  0
    6.0461   -7.4161   49.9685 C   0  0  0  0  0  0  0  0  0  0  0  0
    5.9549   -8.1520   51.0765 C   0  0  0  0  0  0  0  0  0  0  0  0
    7.1268   -8.5853   51.7652 C   0  0  0  0  0  0  0  0  0  0  0  0
    8.2921   -7.8615   51.4998 C   0  0  0  0  0  0  0  0  0  0  0  0
    8.3247   -6.8730   50.4816 C   0  0  0  0  0  0  0  0  0  0  0  0
  1  3  1  0
  3  4  1  0
  4  5  1  0
  8  9  1  0
 13 16  1  0
 21 22  1  0
 22 23  2  3
 23 24  1  0
  9 10  2  0
 10 11  1  0
 11 13  2  0
 13 15  1  0
 15 14  2  0
 14  9  1  0
 24 25  2  0
 25 26  1  0
 26 27  2  0
 27 28  1  0
 28 29  2  0
 29 24  1  0
  1  2  2  0
  2 12  1  0
 12  8  2  0
  8  7  1  0
  7  6  2  0
  6  1  1  0
 16 17  2  0
 17 18  1  0
 18 19  2  0
 19 21  1  0
 21 20  2  0
 20 16  1  0
M  END
$$$$
O14757_PocketFlow_idx-in-all-generaetd-660
     RDKit          3D

 23 25  0  0  0  0  0  0  0  0999 V2000
    0.0138   -2.7927   42.5918 N   0  0  0  0  0  0  0  0  0  0  0  0
   -0.1707   -2.5494   41.4965 C   0  0  0  0  0  0  0  0  0  0  0  0
    1.3170   -2.6905   43.0184 C   0  0  0  0  0  0  0  0  0  0  0  0
    2.0255   -1.8901   42.0563 C   0  0  1  0  0  0  0  0  0  0  0  0
    1.6206   -1.1573   41.1263 C   0  0  0  0  0  0  0  0  0  0  0  0
    0.4260   -1.6018   40.7382 N   0  0  0  0  0  0  0  0  0  0  0  0
    3.3670   -1.5652   42.8748 C   0  0  0  0  0  0  0  0  0  0  0  0
    4.1502   -0.4712   42.6121 C   0  0  0  0  0  0  0  0  0  0  0  0
    3.8543   -2.5389   43.8164 C   0  0  0  0  0  0  0  0  0  0  0  0
    5.0646   -2.3166   44.4770 C   0  0  0  0  0  0  0  0  0  0  0  0
    5.5322   -3.2723   45.4413 C   0  0  0  0  0  0  0  0  0  0  0  0
    5.3694   -0.2316   43.3126 C   0  0  0  0  0  0  0  0  0  0  0  0
    5.8212   -1.1172   44.2309 C   0  0  0  0  0  0  0  0  0  0  0  0
    4.8158   -4.3601   45.7370 N   0  0  0  0  0  0  0  0  0  0  0  0
    6.5928   -2.9905   46.2542 N   0  0  0  0  0  0  0  0  0  0  0  0
    6.8646   -3.9519   47.2101 C   0  0  0  0  0  0  0  0  0  0  0  0
    8.1828   -3.8654   47.8222 C   0  0  0  0  0  0  0  0  0  0  0  0
    5.9312   -4.8449   47.6648 C   0  0  0  0  0  0  0  0  0  0  0  0
    4.9132   -5.1308   46.8232 C   0  0  0  0  0  0  0  0  0  0  0  0
    9.2529   -3.3293   47.0781 C   0  0  0  0  0  0  0  0  0  0  0  0
    9.2681   -2.5023   46.1659 C   0  0  0  0  0  0  0  0  0  0  0  0
    1.6583   -3.2854   44.1236 O   0  0  0  0  0  0  0  0  0  0  0  0
   10.4942   -4.1660   47.1949 C   0  0  0  0  0  0  0  0  0  0  0  0
  1  3  1  0
  3  4  1  0
  4  5  1  0
  2  6  1  0
  5  6  1  0
  4  7  1  1
 16 17  1  0
 17 20  1  0
 20 21  1  0
  3 22  2  0
 20 23  1  0
 10 11  1  0
  1  2  1  0
 11 14  2  0
 14 19  1  0
 19 18  2  0
 18 16  1  0
 16 15  2  0
 15 11  1  0
  7  8  2  0
  8 12  1  0
 12 13  2  0
 13 10  1  0
 10  9  2  0
  9  7  1  0
M  END
$$$$
O14757_PocketFlow_idx-in-all-generaetd-661
     RDKit          3D

 26 28  0  0  0  0  0  0  0  0999 V2000
   -0.6395   -2.0713   41.4947 C   0  0  0  0  0  0  0  0  0  0  0  0
   -0.2671   -3.2464   41.6546 C   0  0  0  0  0  0  0  0  0  0  0  0
    0.2407   -0.9706   41.5952 C   0  0  0  0  0  0  0  0  0  0  0  0
    1.6195   -1.2958   41.8767 C   0  0  0  0  0  0  0  0  0  0  0  0
    1.9162   -2.6816   42.2016 C   0  0  0  0  0  0  0  0  0  0  0  0
    0.9422   -3.6324   42.1156 C   0  0  0  0  0  0  0  0  0  0  0  0
    2.6088   -0.2775   42.1300 C   0  0  0  0  0  0  0  0  0  0  0  0
    3.5975   -0.3645   43.1012 C   0  0  0  0  0  0  0  0  0  0  0  0
    3.8557   -1.4264   43.8452 C   0  0  0  0  0  0  0  0  0  0  0  0
    4.8014   -1.8704   44.2408 C   0  0  0  0  0  0  0  0  0  0  0  0
    6.1006   -1.1139   44.4491 C   0  0  0  0  0  0  0  0  0  0  0  0
    7.1862   -1.6631   45.1809 C   0  0  0  0  0  0  0  0  0  0  0  0
    7.1595   -2.8672   45.8110 C   0  0  0  0  0  0  0  0  0  0  0  0
    5.9173   -3.5871   45.7192 C   0  0  0  0  0  0  0  0  0  0  0  0
    4.8187   -3.1367   45.0750 C   0  0  0  0  0  0  0  0  0  0  0  0
    8.2875   -3.3417   46.5505 C   0  0  0  0  0  0  0  0  0  0  0  0
    8.3661   -3.2908   47.6856 N   0  0  0  0  0  0  0  0  0  0  0  0
    9.5216   -3.7220   48.3797 C   0  0  0  0  0  0  0  0  0  0  0  0
   -2.0498   -1.7466   41.0277 C   0  0  0  0  0  0  0  0  0  0  0  0
   -2.6733   -0.5949   41.2906 N   0  0  0  0  0  0  0  0  0  0  0  0
   -2.8762   -2.7271   40.6445 N   0  0  0  0  0  0  0  0  0  0  0  0
   -3.8982   -0.6066   40.7414 C   0  0  0  0  0  0  0  0  0  0  0  0
   -4.0160   -1.8869   40.2857 N   0  0  0  0  0  0  0  0  0  0  0  0
    9.4325   -3.6059   49.8755 C   0  0  0  0  0  0  0  0  0  0  0  0
    8.1082   -3.3988   50.3977 C   0  0  0  0  0  0  0  0  0  0  0  0
    7.2045   -3.6237   49.7889 C   0  0  0  0  0  0  0  0  0  0  0  0
  4  7  1  0
  7  8  1  0
  8  9  2  3
  9 10  1  0
 13 16  1  0
 16 17  2  3
 17 18  1  0
  1 19  1  0
 19 20  1  0
 19 21  2  0
 20 22  1  0
 21 23  1  0
 22 23  1  0
 18 24  1  0
 24 25  2  3
 25 26  1  0
  1  2  2  0
  2  6  1  0
  6  5  2  0
  5  4  1  0
  4  3  2  0
  3  1  1  0
 10 11  2  0
 11 12  1  0
 12 13  2  0
 13 14  1  0
 14 15  2  0
 15 10  1  0
M  END
$$$$
O14757_PocketFlow_idx-in-all-generaetd-662
     RDKit          3D

 35 38  0  0  0  0  0  0  0  0999 V2000
    0.2881   -2.9111   42.4378 C   0  0  0  0  0  0  0  0  0  0  0  0
   -0.0650   -2.5021   41.5798 C   0  0  0  0  0  0  0  0  0  0  0  0
    1.5584   -2.5265   43.0885 C   0  0  0  0  0  0  0  0  0  0  0  0
    2.2571   -1.5118   42.4661 C   0  0  0  0  0  0  0  0  0  0  0  0
    3.4613   -0.9848   43.0009 C   0  0  0  0  0  0  0  0  0  0  0  0
    4.0748    0.1380   42.4173 C   0  0  0  0  0  0  0  0  0  0  0  0
    0.4833   -1.3341   40.9291 C   0  0  0  0  0  0  0  0  0  0  0  0
    1.6768   -0.8384   41.4162 C   0  0  0  0  0  0  0  0  0  0  0  0
    4.2699   -1.7720   43.9593 C   0  0  0  0  0  0  0  0  0  0  0  0
    4.0760   -2.9685   44.4063 C   0  0  0  0  0  0  0  0  0  0  0  0
    4.9761   -3.5539   45.2971 C   0  0  0  0  0  0  0  0  0  0  0  0
    5.8339   -2.8170   45.8423 C   0  0  0  0  0  0  0  0  0  0  0  0
    6.1792   -1.5414   45.4843 C   0  0  0  0  0  0  0  0  0  0  0  0
    5.4235   -0.9905   44.5256 C   0  0  0  0  0  0  0  0  0  0  0  0
    6.9896   -3.3613   46.8442 C   0  0  0  0  0  0  0  0  0  0  0  0
    8.2799   -3.0986   46.7502 C   0  0  0  0  0  0  0  0  0  0  0  0
    9.2310   -3.6686   47.5571 C   0  0  0  0  0  0  0  0  0  0  0  0
    8.8342   -4.5581   48.5380 C   0  0  0  0  0  0  0  0  0  0  0  0
    6.5911   -4.2724   47.9208 C   0  0  0  0  0  0  0  0  0  0  0  0
    7.4826   -4.7951   48.7519 C   0  0  0  0  0  0  0  0  0  0  0  0
   -1.2884   -2.8684   40.9967 O   0  0  0  0  0  0  0  0  0  0  0  0
    4.8944   -4.5780   48.1357 Cl  0  0  0  0  0  0  0  0  0  0  0  0
   10.6772   -3.4270   47.2679 C   0  0  0  0  0  0  0  0  0  0  0  0
   11.0477   -2.1770   46.9562 C   0  0  0  0  0  0  0  0  0  0  0  0
   10.3856   -1.1501   47.1717 C   0  0  0  0  0  0  0  0  0  0  0  0
   12.1100   -2.0289   45.9354 C   0  0  0  0  0  0  0  0  0  0  0  0
   13.0157   -0.9928   46.0387 C   0  0  0  0  0  0  0  0  0  0  0  0
    9.4366   -1.2007   48.1251 N   0  0  0  0  0  0  0  0  0  0  0  0
   14.0943   -0.9003   45.1450 C   0  0  0  0  0  0  0  0  0  0  0  0
   14.3272    0.0070   44.5013 C   0  0  0  0  0  0  0  0  0  0  0  0
   14.1681    1.4067   45.0120 C   0  0  0  0  0  0  0  0  0  0  0  0
   13.2351    1.4296   46.1292 C   0  0  0  0  0  0  0  0  0  0  0  0
   12.5484    0.2545   46.5326 C   0  0  0  0  0  0  0  0  0  0  0  0
   14.7849    2.6076   44.5367 C   0  0  0  0  0  0  0  0  0  0  0  0
   14.2741    3.0547   43.5068 O   0  0  0  0  0  0  0  0  0  0  0  0
  4  5  1  0
  5  6  2  0
  5  9  1  0
 12 15  1  0
  2 21  1  0
 19 22  1  0
 17 23  1  0
 23 24  1  0
 24 25  2  3
 24 26  1  0
 25 28  1  0
 31 34  1  0
 34 35  1  0
 26 27  1  0
 15 16  2  0
 16 17  1  0
 17 18  2  0
 18 20  1  0
 20 19  2  0
 19 15  1  0
 27 29  2  0
 29 30  1  0
 30 31  2  0
 31 32  1  0
 32 33  2  0
 33 27  1  0
  9 10  2  0
 10 11  1  0
 11 12  2  0
 12 13  1  0
 13 14  2  0
 14  9  1  0
  1  2  2  0
  2  7  1  0
  7  8  2  0
  8  4  1  0
  4  3  2  0
  3  1  1  0
M  END
$$$$
O14757_PocketFlow_idx-in-all-generaetd-663
     RDKit          3D

 14 16  0  0  0  0  0  0  0  0999 V2000
   -0.6395   -2.0713   41.4947 C   0  0  0  0  0  0  0  0  0  0  0  0
    0.1859   -1.1027   41.5970 C   0  0  0  0  0  0  0  0  0  0  0  0
   -0.2410   -3.3795   41.5297 C   0  0  0  0  0  0  0  0  0  0  0  0
    1.6125   -1.3642   41.8466 C   0  0  0  0  0  0  0  0  0  0  0  0
    2.5720   -0.3568   42.0335 C   0  0  0  0  0  0  0  0  0  0  0  0
    3.8647   -0.6704   42.4195 C   0  0  0  0  0  0  0  0  0  0  0  0
    4.0924   -1.9486   43.0494 C   0  0  0  0  0  0  0  0  0  0  0  0
    2.9708   -2.8562   43.1557 C   0  0  0  0  0  0  0  0  0  0  0  0
    3.2453   -4.0009   43.8033 C   0  0  0  0  0  0  0  0  0  0  0  0
    1.7857   -2.5119   42.6073 C   0  0  0  0  0  0  0  0  0  0  0  0
    0.9586   -3.6727   42.2774 C   0  0  0  0  0  0  0  0  0  0  0  0
    4.4359   -4.2183   44.6467 C   0  0  0  0  0  0  0  0  0  0  0  0
    5.3753   -3.1677   44.6663 C   0  0  0  0  0  0  0  0  0  0  0  0
    5.2559   -2.0626   43.9076 C   0  0  0  0  0  0  0  0  0  0  0  0
  4  5  2  0
  5  6  1  0
  6  7  2  0
  8 10  2  0
  7  8  1  0
  8  9  1  0
  9 12  2  0
 12 13  1  0
 13 14  2  0
 14  7  1  0
  1  2  2  0
  2  4  1  0
  4 10  1  0
 10 11  1  0
 11  3  2  0
  3  1  1  0
M  END
$$$$
O14757_PocketFlow_idx-in-all-generaetd-664
     RDKit          3D

 35 37  0  0  0  0  0  0  0  0999 V2000
   -0.6395   -2.0713   41.4947 C   0  0  0  0  0  0  0  0  0  0  0  0
    0.1859   -1.1027   41.5970 C   0  0  0  0  0  0  0  0  0  0  0  0
    1.5858   -1.4430   41.9548 C   0  0  0  0  0  0  0  0  0  0  0  0
   -2.0361   -1.7936   41.0994 C   0  0  0  0  0  0  0  0  0  0  0  0
    2.6407   -0.5054   42.0435 C   0  0  0  0  0  0  0  0  0  0  0  0
    3.9083   -0.8538   42.4801 C   0  0  0  0  0  0  0  0  0  0  0  0
    4.0605   -2.0117   43.3289 C   0  0  0  0  0  0  0  0  0  0  0  0
    2.9309   -2.8999   43.4031 C   0  0  0  0  0  0  0  0  0  0  0  0
    1.7384   -2.5200   42.7886 C   0  0  0  0  0  0  0  0  0  0  0  0
    5.2792   -2.3238   43.9896 C   0  0  0  0  0  0  0  0  0  0  0  0
    5.3414   -3.2355   45.1270 C   0  0  0  0  0  0  0  0  0  0  0  0
    6.5818   -3.3091   45.8315 C   0  0  0  0  0  0  0  0  0  0  0  0
    6.7942   -4.2453   46.8529 C   0  0  0  0  0  0  0  0  0  0  0  0
    5.6300   -4.8284   47.3845 C   0  0  0  0  0  0  0  0  0  0  0  0
    4.4159   -4.6698   46.7951 C   0  0  0  0  0  0  0  0  0  0  0  0
    4.2578   -3.8374   45.7299 C   0  0  0  0  0  0  0  0  0  0  0  0
   -2.5238   -0.7797   41.5556 F   0  0  0  0  0  0  0  0  0  0  0  0
   -2.8014   -2.7260   40.8884 F   0  0  0  0  0  0  0  0  0  0  0  0
    5.8218   -5.6506   48.6302 C   0  0  0  0  0  0  0  0  0  0  0  0
    6.4162   -5.1841   49.5711 O   0  0  0  0  0  0  0  0  0  0  0  0
    5.3776   -6.8484   48.5527 O   0  0  0  0  0  0  0  0  0  0  0  0
    4.9338    0.0224   42.4948 O   0  0  0  0  0  0  0  0  0  0  0  0
   -0.3568   -3.3473   41.6271 O   0  0  0  0  0  0  0  0  0  0  0  0
    8.1482   -4.2709   47.4493 C   0  0  0  0  0  0  0  0  0  0  0  0
    8.7776   -5.2644   47.3857 C   0  0  0  0  0  0  0  0  0  0  0  0
   10.1500   -5.3936   47.5808 C   0  0  0  0  0  0  0  0  0  0  0  0
   10.8503   -4.2440   48.0521 C   0  0  0  0  0  0  0  0  0  0  0  0
    8.6962   -3.0107   47.8482 C   0  0  0  0  0  0  0  0  0  0  0  0
   10.0552   -3.0241   48.1680 C   0  0  0  0  0  0  0  0  0  0  0  0
   10.7070   -1.7523   48.6035 C   0  0  0  0  0  0  0  0  0  0  0  0
   11.5861   -1.0383   47.6145 Cl  0  0  0  0  0  0  0  0  0  0  0  0
   11.4929   -1.9873   49.7612 F   0  0  0  0  0  0  0  0  0  0  0  0
    9.7035   -0.9119   49.1568 F   0  0  0  0  0  0  0  0  0  0  0  0
   10.9697   -6.5966   47.5028 C   0  0  0  0  0  0  0  0  0  0  0  0
   11.7706   -6.7370   48.1498 F   0  0  0  0  0  0  0  0  0  0  0  0
  1  2  1  0
  1  4  1  0
  7 10  1  0
  4 17  1  0
  4 18  1  0
 14 19  1  0
 19 20  1  0
 19 21  2  0
  6 22  1  0
  1 23  2  0
 13 24  1  0
 29 30  1  0
 30 31  1  0
 30 32  1  0
 30 33  1  0
 26 34  1  0
 34 35  1  0
  2  3  1  0
 10 11  1  0
 11 12  2  0
 12 13  1  0
 13 14  2  0
 14 15  1  0
 15 16  2  0
 16 11  1  0
  3  5  2  0
  5  6  1  0
  6  7  2  0
  7  8  1  0
  8  9  2  0
  9  3  1  0
 24 25  2  0
 25 26  1  0
 26 27  2  0
 27 29  1  0
 29 28  2  0
 28 24  1  0
M  END
$$$$
O14757_PocketFlow_idx-in-all-generaetd-665
     RDKit          3D

 35 37  0  0  0  0  0  0  0  0999 V2000
   -0.6395   -2.0713   41.4947 C   0  0  2  0  0  0  0  0  0  0  0  0
    0.6719   -2.2449   41.7518 C   0  0  0  0  0  0  0  0  0  0  0  0
    1.3815   -1.6359   42.7231 C   0  0  0  0  0  0  0  0  0  0  0  0
   -1.3884   -2.9047   40.6798 C   0  0  0  0  0  0  0  0  0  0  0  0
    2.8449   -1.5590   42.5246 C   0  0  0  0  0  0  0  0  0  0  0  0
    3.5343   -0.3705   42.5477 C   0  0  0  0  0  0  0  0  0  0  0  0
    4.9772   -0.3610   42.7489 C   0  0  0  0  0  0  0  0  0  0  0  0
   -2.6904   -2.6193   40.6091 N   0  0  0  0  0  0  0  0  0  0  0  0
    5.4604   -1.4523   43.5825 C   0  0  0  0  0  0  0  0  0  0  0  0
    4.6407   -2.5829   43.7961 C   0  0  0  0  0  0  0  0  0  0  0  0
    3.2835   -2.6085   43.3929 C   0  0  0  0  0  0  0  0  0  0  0  0
    5.1244   -3.7034   44.6269 C   0  0  0  0  0  0  0  0  0  0  0  0
    5.6978   -3.4035   45.9173 C   0  0  0  0  0  0  0  0  0  0  0  0
    6.8942   -2.9703   46.0726 C   0  0  0  0  0  0  0  0  0  0  0  0
    7.7111   -3.1516   47.2467 C   0  0  0  0  0  0  0  0  0  0  0  0
    7.1477   -3.8113   48.3122 C   0  0  0  0  0  0  0  0  0  0  0  0
    5.7222   -4.2480   48.1346 C   0  0  0  0  0  0  0  0  0  0  0  0
    5.0437   -4.1293   46.9831 C   0  0  0  0  0  0  0  0  0  0  0  0
    7.7780   -3.9151   49.6114 C   0  0  0  0  0  0  0  0  0  0  0  0
    8.2857   -3.0045   50.1218 O   0  0  0  0  0  0  0  0  0  0  0  0
    7.6473   -5.1210   50.2086 O   0  0  0  0  0  0  0  0  0  0  0  0
   -3.0898   -1.3776   41.0033 C   0  0  0  0  0  0  0  0  0  0  0  0
   -1.5060   -0.8795   41.7374 C   0  0  0  0  0  0  0  0  0  0  0  0
    2.6254   -3.6600   43.6024 O   0  0  0  0  0  0  0  0  0  0  0  0
    2.1564   -4.0014   44.9537 C   0  0  0  0  0  0  0  0  0  0  0  0
    0.7510   -4.2065   44.9615 C   0  0  0  0  0  0  0  0  0  0  0  0
    0.3177   -5.3508   44.2906 C   0  0  0  0  0  0  0  0  0  0  0  0
   -0.2372   -6.2344   44.9236 O   0  0  0  0  0  0  0  0  0  0  0  0
   -1.2355   -7.0926   44.4288 C   0  0  0  0  0  0  0  0  0  0  0  0
    1.4096   -2.4955   40.4995 C   0  0  0  0  0  0  0  0  0  0  0  0
   -1.6812   -8.0918   45.4709 C   0  0  0  0  0  0  0  0  0  0  0  0
   -2.8242   -8.7567   45.1736 O   0  0  0  0  0  0  0  0  0  0  0  0
   -3.3955   -9.6077   46.0363 C   0  0  0  0  0  0  0  0  0  0  0  0
   -3.5981   -8.8724   47.2660 C   0  0  0  0  0  0  0  0  0  0  0  0
   -2.2793   -8.2664   47.7572 C   0  0  0  0  0  0  0  0  0  0  0  0
  1  2  1  0
  2  3  2  3
  1  4  1  6
  3  5  1  0
  4  8  1  0
 10 12  1  0
 12 13  1  0
 16 19  1  0
 19 20  2  0
 19 21  1  0
  8 22  2  0
  1 23  1  0
 22 23  1  0
 11 24  1  0
 24 25  1  0
 25 26  1  0
 26 27  1  0
 27 28  1  0
 28 29  1  0
  2 30  1  0
 29 31  1  0
 31 32  1  0
 32 33  1  0
 33 34  1  0
 34 35  1  0
 13 14  2  0
 14 15  1  0
 15 16  2  0
 16 17  1  0
 17 18  2  0
 18 13  1  0
  5  6  2  0
  6  7  1  0
  7  9  2  0
  9 10  1  0
 10 11  2  0
 11  5  1  0
M  END
$$$$
O14757_PocketFlow_idx-in-all-generaetd-666
     RDKit          3D

 35 38  0  0  0  0  0  0  0  0999 V2000
   -0.6395   -2.0713   41.4947 C   0  0  0  0  0  0  0  0  0  0  0  0
   -0.2671   -3.2464   41.6546 C   0  0  0  0  0  0  0  0  0  0  0  0
    0.2277   -0.9875   41.6495 C   0  0  0  0  0  0  0  0  0  0  0  0
    1.6284   -1.2752   41.8841 C   0  0  0  0  0  0  0  0  0  0  0  0
    1.8971   -2.6873   42.1685 C   0  0  0  0  0  0  0  0  0  0  0  0
    0.9380   -3.6379   42.0922 C   0  0  0  0  0  0  0  0  0  0  0  0
    2.5765   -0.2838   42.1328 C   0  0  0  0  0  0  0  0  0  0  0  0
    3.8924   -0.5890   42.5973 C   0  0  0  0  0  0  0  0  0  0  0  0
    4.4147   -0.3958   43.5876 C   0  0  0  0  0  0  0  0  0  0  0  0
    5.7866   -0.8716   44.0068 C   0  0  0  0  0  0  0  0  0  0  0  0
    5.7789   -2.3357   44.3326 C   0  0  0  0  0  0  0  0  0  0  0  0
    5.3336   -2.7189   45.5995 C   0  0  0  0  0  0  0  0  0  0  0  0
    6.1485   -2.6765   46.6589 C   0  0  0  0  0  0  0  0  0  0  0  0
    4.1833   -3.6564   45.6765 C   0  0  0  0  0  0  0  0  0  0  0  0
    3.0300   -3.3629   45.0273 C   0  0  0  0  0  0  0  0  0  0  0  0
    1.8895   -4.1879   45.1292 C   0  0  0  0  0  0  0  0  0  0  0  0
    0.7002   -3.7877   45.6052 C   0  0  0  0  0  0  0  0  0  0  0  0
   -0.3325   -4.8049   45.8684 C   0  0  0  0  0  0  0  0  0  0  0  0
   -0.0885   -6.1378   45.4945 C   0  0  0  0  0  0  0  0  0  0  0  0
    1.1557   -6.5247   44.9633 C   0  0  0  0  0  0  0  0  0  0  0  0
    2.1775   -5.5969   44.8390 C   0  0  0  0  0  0  0  0  0  0  0  0
    6.7280   -3.8884   47.0625 C   0  0  0  0  0  0  0  0  0  0  0  0
    5.6738   -4.7935   47.6020 C   0  0  0  0  0  0  0  0  0  0  0  0
    4.3870   -4.6818   46.7434 C   0  0  0  0  0  0  0  0  0  0  0  0
   -1.1625   -7.1218   45.6343 C   0  0  0  0  0  0  0  0  0  0  0  0
   -1.9091   -7.4967   44.4938 C   0  0  0  0  0  0  0  0  0  0  0  0
   -2.9796   -8.4241   44.6781 C   0  0  0  0  0  0  0  0  0  0  0  0
   -3.1911   -8.9936   45.9692 C   0  0  0  0  0  0  0  0  0  0  0  0
   -1.5249   -7.6398   46.9384 C   0  0  0  0  0  0  0  0  0  0  0  0
   -2.4907   -8.4911   47.1166 C   0  0  0  0  0  0  0  0  0  0  0  0
   -2.0786   -1.7099   41.1708 C   0  0  0  0  0  0  0  0  0  0  0  0
   -2.6235   -0.5284   41.3724 N   0  0  0  0  0  0  0  0  0  0  0  0
   -2.8475   -2.5766   40.4843 N   0  0  0  0  0  0  0  0  0  0  0  0
    5.8329   -5.8985   48.4381 C   0  0  0  0  0  0  0  0  0  0  0  0
    5.3627   -7.0731   48.2562 N   0  0  0  0  0  0  0  0  0  0  0  0
  4  7  1  0
  7  8  1  0
  8  9  2  3
  9 10  1  0
 10 11  1  0
 11 12  1  0
 15 16  1  0
 19 25  1  0
  1 31  1  0
 31 32  1  0
 31 33  2  3
 23 34  1  0
 34 35  1  0
 15 14  1  0
  1  2  2  0
  2  6  1  0
  6  5  2  0
  5  4  1  0
  4  3  2  0
  3  1  1  0
 12 13  2  0
 13 22  1  0
 22 23  2  0
 23 24  1  0
 24 14  2  0
 14 12  1  0
 25 26  2  0
 26 27  1  0
 27 28  2  0
 28 30  1  0
 30 29  2  0
 29 25  1  0
 16 17  2  0
 17 18  1  0
 18 19  2  0
 19 20  1  0
 20 21  2  0
 21 16  1  0
M  END
$$$$
O14757_PocketFlow_idx-in-all-generaetd-667
     RDKit          3D

 20 23  0  0  0  0  0  0  0  0999 V2000
    0.2881   -2.9111   42.4378 C   0  0  0  0  0  0  0  0  0  0  0  0
    1.1784   -3.4293   42.9321 C   0  0  0  0  0  0  0  0  0  0  0  0
    2.4507   -2.7243   42.9621 C   0  0  0  0  0  0  0  0  0  0  0  0
    3.6020   -3.2282   43.7398 C   0  0  0  0  0  0  0  0  0  0  0  0
    4.7688   -2.4047   43.9090 C   0  0  0  0  0  0  0  0  0  0  0  0
    5.7650   -2.7027   44.9133 C   0  0  0  0  0  0  0  0  0  0  0  0
    0.4292   -1.7741   41.5661 C   0  0  0  0  0  0  0  0  0  0  0  0
    1.5725   -1.0467   41.6204 C   0  0  0  0  0  0  0  0  0  0  0  0
    2.6125   -1.4921   42.3748 C   0  0  0  0  0  0  0  0  0  0  0  0
    5.5901   -3.9140   45.6130 C   0  0  0  0  0  0  0  0  0  0  0  0
    3.6023   -4.3819   44.5824 C   0  0  0  0  0  0  0  0  0  0  0  0
    4.5548   -4.6785   45.4949 C   0  0  0  0  0  0  0  0  0  0  0  0
    6.8607   -1.8633   44.9783 N   0  0  0  0  0  0  0  0  0  0  0  0
    7.8973   -2.1196   45.8245 C   0  0  0  0  0  0  0  0  0  0  0  0
    8.2173   -3.2879   46.4127 C   0  0  0  0  0  0  0  0  0  0  0  0
    6.8998   -4.1626   46.4255 C   0  0  0  0  0  0  0  0  0  0  0  0
    8.9408   -1.1801   45.8068 N   0  0  0  0  0  0  0  0  0  0  0  0
    9.2461   -3.5669   47.1672 C   0  0  0  0  0  0  0  0  0  0  0  0
   10.2547   -2.6233   47.2599 C   0  0  0  0  0  0  0  0  0  0  0  0
   10.0854   -1.3579   46.5668 C   0  0  0  0  0  0  0  0  0  0  0  0
  3  4  1  0
  6 13  1  0
 13 14  1  0
 10 16  1  0
 15 16  1  0
 14 15  2  0
 15 18  1  0
 18 19  2  0
 19 20  1  0
 20 17  2  0
 17 14  1  0
  1  2  2  0
  2  3  1  0
  3  9  2  0
  9  8  1  0
  8  7  2  0
  7  1  1  0
  4  5  2  0
  5  6  1  0
  6 10  2  0
 10 12  1  0
 12 11  2  0
 11  4  1  0
M  END
$$$$
O14757_PocketFlow_idx-in-all-generaetd-668
     RDKit          3D

 33 36  0  0  0  0  0  0  0  0999 V2000
   -0.8413   -1.9048   41.7918 F   0  0  0  0  0  0  0  0  0  0  0  0
    0.3337   -2.3483   41.5607 C   0  0  0  0  0  0  0  0  0  0  0  0
    1.0467   -1.5448   40.8609 F   0  0  0  0  0  0  0  0  0  0  0  0
    0.5982   -3.6715   41.9100 C   0  0  0  0  0  0  0  0  0  0  0  0
    0.1959   -4.0126   43.2683 C   0  0  0  0  0  0  0  0  0  0  0  0
    1.4725   -4.5140   44.1270 C   0  0  0  0  0  0  0  0  0  0  0  0
    1.2099   -4.9893   45.4028 C   0  0  0  0  0  0  0  0  0  0  0  0
    2.1174   -5.1649   46.1723 C   0  0  0  0  0  0  0  0  0  0  0  0
    3.5506   -4.7554   45.8050 C   0  0  0  0  0  0  0  0  0  0  0  0
    3.7435   -4.1518   44.5112 C   0  0  0  0  0  0  0  0  0  0  0  0
    2.6633   -3.9568   43.7026 C   0  0  0  0  0  0  0  0  0  0  0  0
   -0.1608   -5.3854   45.7660 C   0  0  0  0  0  0  0  0  0  0  0  0
   -0.2619   -6.7620   46.2737 C   0  0  0  0  0  0  0  0  0  0  0  0
   -0.6954   -7.6491   45.1728 C   0  0  0  0  0  0  0  0  0  0  0  0
   -1.9540   -8.3984   45.6230 C   0  0  0  0  0  0  0  0  0  0  0  0
   -1.9974   -9.0518   46.7950 C   0  0  0  0  0  0  0  0  0  0  0  0
   -1.3555   -8.2361   47.8898 C   0  0  0  0  0  0  0  0  0  0  0  0
   -1.0673   -6.8779   47.5550 C   0  0  0  0  0  0  0  0  0  0  0  0
    4.6896   -5.0216   46.6867 C   0  0  0  0  0  0  0  0  0  0  0  0
    5.5997   -4.0754   46.7214 O   0  0  0  0  0  0  0  0  0  0  0  0
    6.7441   -4.3082   47.4414 C   0  0  0  0  0  0  0  0  0  0  0  0
    7.8827   -3.5837   47.1895 C   0  0  0  0  0  0  0  0  0  0  0  0
    7.8118   -2.4761   46.3256 C   0  0  0  0  0  0  0  0  0  0  0  0
    8.7237   -1.4675   46.2569 C   0  0  0  0  0  0  0  0  0  0  0  0
    9.8879   -1.5714   46.9854 C   0  0  0  0  0  0  0  0  0  0  0  0
   10.0790   -2.5982   47.9136 C   0  0  0  0  0  0  0  0  0  0  0  0
    9.0406   -3.5752   47.9932 C   0  0  0  0  0  0  0  0  0  0  0  0
    9.1885   -4.6488   48.9883 C   0  0  0  0  0  0  0  0  0  0  0  0
    9.9956   -5.4882   48.8244 C   0  0  0  0  0  0  0  0  0  0  0  0
   10.0968   -6.6674   49.6972 C   0  0  0  0  0  0  0  0  0  0  0  0
    9.1776   -6.7460   50.7548 C   0  0  0  0  0  0  0  0  0  0  0  0
    8.2189   -5.7707   50.9079 C   0  0  0  0  0  0  0  0  0  0  0  0
    8.1516   -4.7074   50.0595 C   0  0  0  0  0  0  0  0  0  0  0  0
  1  2  1  0
  2  3  1  0
  2  4  1  0
  4  5  1  0
  5  6  1  0
  7 12  1  0
 12 13  1  0
  9 19  1  0
 19 20  1  0
 20 21  1  0
 21 22  1  0
 27 28  1  0
 28 29  2  0
 29 30  1  0
 30 31  2  0
 31 32  1  0
 32 33  2  0
 33 28  1  0
 13 14  2  0
 14 15  1  0
 15 16  2  0
 16 17  1  0
 17 18  2  0
 18 13  1  0
 22 23  2  0
 23 24  1  0
 24 25  2  0
 25 26  1  0
 26 27  2  0
 27 22  1  0
  6  7  2  0
  7  8  1  0
  8  9  2  0
  9 10  1  0
 10 11  2  0
 11  6  1  0
M  END
$$$$
O14757_PocketFlow_idx-in-all-generaetd-669
     RDKit          3D

 25 26  0  0  0  0  0  0  0  0999 V2000
   -0.6395   -2.0713   41.4947 C   0  0  0  0  0  0  0  0  0  0  0  0
    0.1859   -1.1027   41.5970 C   0  0  0  0  0  0  0  0  0  0  0  0
    1.5836   -1.3270   41.4670 C   0  0  0  0  0  0  0  0  0  0  0  0
   -0.2462   -3.3905   41.2409 C   0  0  0  0  0  0  0  0  0  0  0  0
    2.0075   -2.6977   41.3341 C   0  0  0  0  0  0  0  0  0  0  0  0
    1.0655   -3.6470   41.1373 C   0  0  0  0  0  0  0  0  0  0  0  0
    2.4591   -0.2501   41.9072 C   0  0  0  0  0  0  0  0  0  0  0  0
    3.3108   -0.3987   43.0636 C   0  0  0  0  0  0  0  0  0  0  0  0
    4.6472   -0.8927   42.8107 C   0  0  0  0  0  0  0  0  0  0  0  0
    5.4395   -1.1023   43.9730 C   0  0  0  0  0  0  0  0  0  0  0  0
    4.8171   -1.5653   45.1759 C   0  0  0  0  0  0  0  0  0  0  0  0
    4.9548   -2.9072   45.5604 C   0  0  0  0  0  0  0  0  0  0  0  0
    4.4023   -3.3999   46.5727 C   0  0  0  0  0  0  0  0  0  0  0  0
    4.5983   -4.8031   46.9964 C   0  0  0  0  0  0  0  0  0  0  0  0
   -2.0064   -1.7899   41.5563 O   0  0  0  0  0  0  0  0  0  0  0  0
    5.7535   -5.1211   47.5805 C   0  0  0  0  0  0  0  0  0  0  0  0
    6.9262   -4.2970   47.1519 C   0  0  0  0  0  0  0  0  0  0  0  0
    6.5920   -3.1465   46.1777 C   0  0  0  0  0  0  0  0  0  0  0  0
    8.2839   -4.4607   47.4731 C   0  0  0  0  0  0  0  0  0  0  0  0
    8.8595   -3.7671   48.4302 C   0  0  0  0  0  0  0  0  0  0  0  0
    9.6100   -3.8582   49.1176 C   0  0  0  0  0  0  0  0  0  0  0  0
    9.9055   -3.2688   50.2809 C   0  0  0  0  0  0  0  0  0  0  0  0
    9.0832   -2.0846   50.7260 C   0  0  0  0  0  0  0  0  0  0  0  0
    9.3363   -1.4191   51.9267 C   0  0  0  0  0  0  0  0  0  0  0  0
    8.4177   -0.4265   52.3446 C   0  0  0  0  0  0  0  0  0  0  0  0
  3  7  1  0
  7  8  1  0
  8  9  1  0
  9 10  1  0
 10 11  1  0
 11 12  1  0
  1 15  1  0
 17 19  1  0
 19 20  1  0
 20 21  2  3
 21 22  1  0
 22 23  2  3
 23 24  1  0
 24 25  2  0
  1  2  2  0
  2  3  1  0
  3  5  2  0
  5  6  1  0
  6  4  2  0
  4  1  1  0
 12 13  2  0
 13 14  1  0
 14 16  2  0
 16 17  1  0
 17 18  2  0
 18 12  1  0
M  END
$$$$
O14757_PocketFlow_idx-in-all-generaetd-670
     RDKit          3D

 35 37  0  0  0  0  0  0  0  0999 V2000
   -0.6395   -2.0713   41.4947 C   0  0  0  0  0  0  0  0  0  0  0  0
   -0.2671   -3.2464   41.6546 C   0  0  0  0  0  0  0  0  0  0  0  0
   -2.0053   -1.6706   41.3987 C   0  0  0  0  0  0  0  0  0  0  0  0
   -2.2928   -0.3176   41.3208 C   0  0  0  0  0  0  0  0  0  0  0  0
   -3.5679   -0.0116   41.1750 N   0  0  0  0  0  0  0  0  0  0  0  0
    0.4132   -1.0390   41.4557 C   0  0  0  0  0  0  0  0  0  0  0  0
    1.7546   -1.3379   41.5356 C   0  0  0  0  0  0  0  0  0  0  0  0
    2.7371   -0.3829   41.6403 C   0  0  0  0  0  0  0  0  0  0  0  0
    3.3245   -0.1512   42.9288 C   0  0  0  0  0  0  0  0  0  0  0  0
    4.6684   -0.7127   43.1231 C   0  0  0  0  0  0  0  0  0  0  0  0
    4.7292   -1.7614   44.1938 C   0  0  0  0  0  0  0  0  0  0  0  0
    3.9583   -2.7463   44.4135 C   0  0  0  0  0  0  0  0  0  0  0  0
    4.1364   -3.7254   45.3850 C   0  0  0  0  0  0  0  0  0  0  0  0
    3.2869   -4.8782   45.5471 C   0  0  0  0  0  0  0  0  0  0  0  0
    5.8981   -1.6354   45.1451 C   0  0  0  0  0  0  0  0  0  0  0  0
    6.1652   -2.6493   46.0707 C   0  0  0  0  0  0  0  0  0  0  0  0
    5.2786   -3.7193   46.2082 C   0  0  0  0  0  0  0  0  0  0  0  0
    2.7279   -5.5200   44.4480 C   0  0  0  0  0  0  0  0  0  0  0  0
    1.9921   -6.6962   44.5418 C   0  0  0  0  0  0  0  0  0  0  0  0
    1.3105   -6.8147   45.3766 C   0  0  0  0  0  0  0  0  0  0  0  0
    1.1125   -5.8790   46.5304 C   0  0  0  0  0  0  0  0  0  0  0  0
    2.1686   -4.8702   46.5527 C   0  0  0  0  0  0  0  0  0  0  0  0
    5.5002   -4.6611   47.3124 C   0  0  0  0  0  0  0  0  0  0  0  0
    6.6431   -4.5809   48.0861 C   0  0  0  0  0  0  0  0  0  0  0  0
    6.6228   -5.3138   49.3475 C   0  0  0  0  0  0  0  0  0  0  0  0
    5.9569   -6.5965   49.2234 C   0  0  0  0  0  0  0  0  0  0  0  0
    5.5795   -6.8990   50.4920 F   0  0  0  0  0  0  0  0  0  0  0  0
    4.8266   -6.5142   48.5349 F   0  0  0  0  0  0  0  0  0  0  0  0
    6.7287   -7.5109   48.7922 F   0  0  0  0  0  0  0  0  0  0  0  0
   -0.8657   -4.2324   41.5602 F   0  0  0  0  0  0  0  0  0  0  0  0
    1.2826   -3.4427   41.7205 C   0  0  0  0  0  0  0  0  0  0  0  0
    2.1746   -2.5473   41.7818 C   0  0  0  0  0  0  0  0  0  0  0  0
    5.6785   -0.2545   42.5716 O   0  0  0  0  0  0  0  0  0  0  0  0
    0.1487   -7.8815   45.4881 C   0  0  0  0  0  0  0  0  0  0  0  0
   -1.1276   -7.3482   44.8676 C   0  0  0  0  0  0  0  0  0  0  0  0
  3  4  1  0
  4  5  1  0
  7  8  1  0
  8  9  1  0
  9 10  1  0
 10 11  1  0
 13 14  1  0
 17 23  1  0
 23 24  2  3
 24 25  1  0
 25 26  1  0
 26 27  1  0
 26 28  1  0
 26 29  1  0
  2 30  1  0
 10 33  2  0
 20 34  1  0
 34 35  1  0
  3  1  1  0
 14 18  2  0
 18 19  1  0
 19 20  2  0
 20 21  1  0
 21 22  2  0
 22 14  1  0
  1  2  2  0
  2 31  1  0
 31 32  2  0
 32  7  1  0
  7  6  2  0
  6  1  1  0
 11 12  2  0
 12 13  1  0
 13 17  2  0
 17 16  1  0
 16 15  2  0
 15 11  1  0
M  END
$$$$
O14757_PocketFlow_idx-in-all-generaetd-671
     RDKit          3D

 29 29  0  0  0  0  0  0  0  0999 V2000
    0.2881   -2.9111   42.4378 C   0  0  0  0  0  0  0  0  0  0  0  0
    1.1784   -3.4293   42.9321 C   0  0  0  0  0  0  0  0  0  0  0  0
    1.7344   -3.2949   44.1416 C   0  0  0  0  0  0  0  0  0  0  0  0
   -0.1251   -3.1416   41.0579 C   0  0  0  0  0  0  0  0  0  0  0  0
    2.5921   -4.2799   44.7961 C   0  0  1  0  0  0  0  0  0  0  0  0
    1.9996   -5.4945   45.3368 C   0  0  0  0  0  0  0  0  0  0  0  0
    0.7582   -5.5866   45.6214 C   0  0  0  0  0  0  0  0  0  0  0  0
    0.1607   -6.8534   46.0586 C   0  0  0  0  0  0  0  0  0  0  0  0
   -1.2873   -6.8585   46.2501 C   0  0  0  0  0  0  0  0  0  0  0  0
   -1.9935   -7.6733   45.6334 N   0  0  0  0  0  0  0  0  0  0  0  0
   -2.7698   -8.6371   46.0289 C   0  0  0  0  0  0  0  0  0  0  0  0
   -3.9777   -8.7450   45.7504 C   0  0  0  0  0  0  0  0  0  0  0  0
   -4.8519   -9.7975   46.1992 C   0  0  0  0  0  0  0  0  0  0  0  0
   -4.3112  -10.6494   47.1718 C   0  0  0  0  0  0  0  0  0  0  0  0
   -2.2814   -9.5283   47.0698 C   0  0  0  0  0  0  0  0  0  0  0  0
   -3.0389  -10.4742   47.6007 C   0  0  0  0  0  0  0  0  0  0  0  0
    4.0258   -4.0679   44.7316 C   0  0  0  0  0  0  0  0  0  0  0  0
    4.6037   -3.1267   45.7142 C   0  0  0  0  0  0  0  0  0  0  0  0
    5.0198   -3.3367   46.7961 C   0  0  0  0  0  0  0  0  0  0  0  0
    4.7819   -1.6860   45.2508 C   0  0  0  0  0  0  0  0  0  0  0  0
    5.1693   -1.3037   44.0954 C   0  0  0  0  0  0  0  0  0  0  0  0
    4.7980   -0.1226   43.4196 C   0  0  0  0  0  0  0  0  0  0  0  0
    3.4692    0.2955   43.4836 C   0  0  0  0  0  0  0  0  0  0  0  0
   -4.6369   -7.8957   44.6057 C   0  0  0  0  0  0  0  0  0  0  0  0
   -5.8150   -8.4888   43.9280 Br  0  0  0  0  0  0  0  0  0  0  0  0
    2.9271    0.9415   42.2805 C   0  0  0  0  0  0  0  0  0  0  0  0
    5.7081   -4.2862   46.7727 F   0  0  0  0  0  0  0  0  0  0  0  0
    2.1236    0.0800   41.4401 C   0  0  0  0  0  0  0  0  0  0  0  0
    5.7709   -2.2978   47.4071 F   0  0  0  0  0  0  0  0  0  0  0  0
  1  2  2  3
  2  3  1  0
  1  4  1  0
  5  3  1  6
  5  6  1  0
  6  7  2  3
  7  8  1  0
  8  9  1  0
  9 10  1  0
 10 11  1  0
  5 17  1  0
 17 18  1  0
 18 19  2  3
 18 20  1  0
 20 21  1  0
 21 22  2  3
 22 23  1  0
 12 24  1  0
 24 25  1  0
 23 26  1  0
 19 27  1  0
 26 28  1  0
 19 29  1  0
 11 12  2  0
 12 13  1  0
 13 14  2  0
 14 16  1  0
 16 15  2  0
 15 11  1  0
M  END
$$$$
O14757_PocketFlow_idx-in-all-generaetd-672
     RDKit          3D

 35 39  0  0  0  0  0  0  0  0999 V2000
   -0.8794   -1.9236   41.9357 O   0  0  0  0  0  0  0  0  0  0  0  0
    0.3182   -2.2442   41.7073 C   0  0  0  0  0  0  0  0  0  0  0  0
    0.6331   -3.7049   41.7547 C   0  0  0  0  0  0  0  0  0  0  0  0
    1.2769   -1.3708   41.3620 N   0  0  0  0  0  0  0  0  0  0  0  0
    2.6588   -1.7005   41.5888 C   0  0  0  0  0  0  0  0  0  0  0  0
    2.9236   -2.1515   42.9834 C   0  0  0  0  0  0  0  0  0  0  0  0
    2.4813   -3.3429   43.5030 C   0  0  0  0  0  0  0  0  0  0  0  0
    3.0910   -3.9200   44.6915 C   0  0  0  0  0  0  0  0  0  0  0  0
    2.6380   -5.1063   45.3139 C   0  0  0  0  0  0  0  0  0  0  0  0
    1.2219   -4.0406   43.1203 C   0  0  0  0  0  0  0  0  0  0  0  0
    1.4849   -5.7139   44.7848 C   0  0  0  0  0  0  0  0  0  0  0  0
    0.7625   -5.1994   43.7400 C   0  0  0  0  0  0  0  0  0  0  0  0
    4.2400   -1.6752   43.4013 C   0  0  0  0  0  0  0  0  0  0  0  0
    4.8195   -2.1067   44.6501 C   0  0  0  0  0  0  0  0  0  0  0  0
    4.2713   -3.3024   45.2213 C   0  0  0  0  0  0  0  0  0  0  0  0
    4.9516   -3.7582   46.4399 C   0  0  0  0  0  0  0  0  0  0  0  0
    6.3892   -3.8848   46.4244 C   0  0  0  0  0  0  0  0  0  0  0  0
    7.0574   -4.2765   47.6209 C   0  0  0  0  0  0  0  0  0  0  0  0
    6.2993   -4.7388   48.7145 C   0  0  0  0  0  0  0  0  0  0  0  0
    4.8701   -4.8672   48.5184 C   0  0  0  0  0  0  0  0  0  0  0  0
    4.2951   -4.3673   47.4411 C   0  0  0  0  0  0  0  0  0  0  0  0
    8.5072   -4.1334   47.7210 C   0  0  0  0  0  0  0  0  0  0  0  0
    9.1882   -5.1245   47.8178 C   0  0  0  0  0  0  0  0  0  0  0  0
   10.5381   -5.0956   47.6378 C   0  0  0  0  0  0  0  0  0  0  0  0
    9.0858   -2.8940   47.3656 C   0  0  0  0  0  0  0  0  0  0  0  0
   10.4195   -2.7018   47.2122 C   0  0  0  0  0  0  0  0  0  0  0  0
   11.2157   -3.8459   47.3556 C   0  0  0  0  0  0  0  0  0  0  0  0
    0.9380   -6.9598   45.4138 C   0  0  0  0  0  0  0  0  0  0  0  0
    0.0641   -6.8129   46.3464 N   0  0  0  0  0  0  0  0  0  0  0  0
   -0.6188   -7.9214   46.8769 C   0  0  0  0  0  0  0  0  0  0  0  0
   -1.8964   -8.0842   46.3745 C   0  0  0  0  0  0  0  0  0  0  0  0
   -2.3545   -7.4379   45.2681 C   0  0  0  0  0  0  0  0  0  0  0  0
   -2.9194   -8.4078   44.2752 C   0  0  0  0  0  0  0  0  0  0  0  0
   -4.1273   -9.0080   44.7549 C   0  0  0  0  0  0  0  0  0  0  0  0
   -4.8232   -8.4214   45.2219 C   0  0  0  0  0  0  0  0  0  0  0  0
  1  2  2  0
  2  3  1  0
  2  4  1  0
  4  5  1  0
  5  6  1  0
  3 10  1  0
 15 16  1  0
 18 22  1  0
 11 28  1  0
 28 29  1  0
 29 30  1  0
 30 31  1  0
 31 32  1  0
 32 33  1  0
 33 34  1  0
 34 35  2  0
  6  7  2  0
  8 15  2  0
 15 14  1  0
 14 13  2  0
 13  6  1  0
 22 23  2  0
 23 24  1  0
 24 27  2  0
 27 26  1  0
 26 25  2  0
 25 22  1  0
  7  8  1  0
  8  9  1  0
  9 11  2  0
 11 12  1  0
 12 10  2  0
 10  7  1  0
 16 17  2  0
 17 18  1  0
 18 19  2  0
 19 20  1  0
 20 21  2  0
 21 16  1  0
M  END
$$$$
O14757_PocketFlow_idx-in-all-generaetd-673
     RDKit          3D

 17 17  0  0  0  0  0  0  0  0999 V2000
    0.2881   -2.9111   42.4378 C   0  0  0  0  0  0  0  0  0  0  0  0
   -0.0650   -2.5020   41.5798 C   0  0  0  0  0  0  0  0  0  0  0  0
    1.6108   -3.5167   42.6657 C   0  0  1  0  0  0  0  0  0  0  0  0
    2.0262   -4.1022   43.9169 C   0  0  0  0  0  0  0  0  0  0  0  0
    0.9628   -4.5654   44.7705 C   0  0  0  0  0  0  0  0  0  0  0  0
    1.0204   -4.9444   45.6975 C   0  0  0  0  0  0  0  0  0  0  0  0
    0.9323   -1.6999   40.7432 C   0  0  0  0  0  0  0  0  0  0  0  0
    2.3035   -4.9826   46.3983 C   0  0  0  0  0  0  0  0  0  0  0  0
    3.4243   -4.4616   45.7243 C   0  0  0  0  0  0  0  0  0  0  0  0
    3.2433   -3.9574   44.4558 C   0  0  0  0  0  0  0  0  0  0  0  0
    1.6404   -0.6431   41.4557 C   0  0  0  0  0  0  0  0  0  0  0  0
    2.0749   -0.7239   42.6527 C   0  0  0  0  0  0  0  0  0  0  0  0
    2.8733   -2.0318   42.6500 C   0  0  0  0  0  0  0  0  0  0  0  0
    4.0844   -2.3304   42.8217 C   0  0  0  0  0  0  0  0  0  0  0  0
    3.3609   -2.3269   41.5892 O   0  0  0  0  0  0  0  0  0  0  0  0
    1.9290   -4.2529   41.7564 F   0  0  0  0  0  0  0  0  0  0  0  0
    4.9557   -1.2536   43.1609 C   0  0  0  0  0  0  0  0  0  0  0  0
  1  2  2  3
  1  3  1  0
  3  4  1  0
  2  7  1  0
  7 11  1  0
 11 12  2  3
 12 13  1  0
 13 14  2  3
 13 15  1  0
  3 16  1  6
 14 17  1  0
  4  5  2  0
  5  6  1  0
  6  8  2  0
  8  9  1  0
  9 10  2  0
 10  4  1  0
M  END
$$$$
O14757_PocketFlow_idx-in-all-generaetd-674
     RDKit          3D

 35 38  0  0  0  0  0  0  0  0999 V2000
   -0.8794   -1.9236   41.9357 O   0  0  0  0  0  0  0  0  0  0  0  0
    0.3182   -2.2442   41.7073 C   0  0  2  0  0  0  0  0  0  0  0  0
    1.3766   -1.3498   41.6019 C   0  0  0  0  0  0  0  0  0  0  0  0
    1.0656   -0.0447   41.5628 C   0  0  0  0  0  0  0  0  0  0  0  0
    0.5062   -3.5827   41.3154 N   0  0  0  0  0  0  0  0  0  0  0  0
    2.6930   -1.8344   42.0691 C   0  0  0  0  0  0  0  0  0  0  0  0
    3.7867   -0.8997   42.0729 C   0  0  0  0  0  0  0  0  0  0  0  0
    3.5133    0.4790   42.2806 C   0  0  0  0  0  0  0  0  0  0  0  0
    2.1994    0.9328   41.9638 C   0  0  0  0  0  0  0  0  0  0  0  0
   -0.5256   -4.5570   41.4108 C   0  0  0  0  0  0  0  0  0  0  0  0
    4.9708   -1.3630   42.4976 O   0  0  0  0  0  0  0  0  0  0  0  0
    5.2880   -1.4615   43.8943 C   0  0  0  0  0  0  0  0  0  0  0  0
    5.3934   -2.3963   44.3934 C   0  0  0  0  0  0  0  0  0  0  0  0
    5.9248   -2.5111   45.8263 C   0  0  0  0  0  0  0  0  0  0  0  0
    6.1258   -3.7682   46.4487 C   0  0  0  0  0  0  0  0  0  0  0  0
    6.7665   -3.8073   47.7137 C   0  0  0  0  0  0  0  0  0  0  0  0
    8.0326   -3.4902   47.9161 C   0  0  0  0  0  0  0  0  0  0  0  0
    8.7147   -3.6306   49.1499 C   0  0  0  0  0  0  0  0  0  0  0  0
    9.9739   -3.1763   49.4351 C   0  0  0  0  0  0  0  0  0  0  0  0
   10.7163   -2.6835   48.3326 C   0  0  0  0  0  0  0  0  0  0  0  0
   10.1442   -2.5943   47.0711 C   0  0  0  0  0  0  0  0  0  0  0  0
    8.8362   -2.9583   46.8419 C   0  0  0  0  0  0  0  0  0  0  0  0
    5.6882   -3.7059   49.0308 Cl  0  0  0  0  0  0  0  0  0  0  0  0
    5.3769   -0.2273   44.3819 F   0  0  0  0  0  0  0  0  0  0  0  0
   10.9613   -1.9697   46.0003 C   0  0  0  0  0  0  0  0  0  0  0  0
   12.2297   -2.2203   45.9351 C   0  0  0  0  0  0  0  0  0  0  0  0
   13.0041   -1.5252   45.0223 C   0  0  0  0  0  0  0  0  0  0  0  0
   14.3275   -1.2172   45.2762 C   0  0  0  0  0  0  0  0  0  0  0  0
   14.9945   -1.8590   46.3323 C   0  0  0  0  0  0  0  0  0  0  0  0
   14.2459   -2.5257   47.2664 C   0  0  0  0  0  0  0  0  0  0  0  0
   12.9031   -2.6481   47.1502 C   0  0  0  0  0  0  0  0  0  0  0  0
   12.0594   -2.9953   48.2781 C   0  0  0  0  0  0  0  0  0  0  0  0
   15.1689   -0.6357   44.1369 C   0  0  0  0  0  0  0  0  0  0  0  0
   14.7098    0.6553   43.7092 C   0  0  0  0  0  0  0  0  0  0  0  0
   14.2569    1.5397   44.5219 C   0  0  0  0  0  0  0  0  0  0  0  0
  2  1  1  6
  2  3  1  0
  2  5  1  0
  5 10  1  0
  7 11  1  0
 11 12  1  0
 12 13  1  0
 13 14  2  3
 14 15  1  0
 15 16  2  3
 16 17  1  0
 16 23  1  0
 12 24  1  0
 28 33  1  0
 33 34  1  0
 34 35  2  0
 17 18  2  0
 18 19  1  0
 19 20  2  0
 21 22  2  0
 22 17  1  0
 20 21  1  0
 21 25  1  0
 25 26  2  0
 31 32  2  0
 32 20  1  0
 26 27  1  0
 27 28  2  0
 28 29  1  0
 29 30  2  0
 30 31  1  0
 31 26  1  0
  3  4  2  0
  4  9  1  0
  9  8  2  0
  8  7  1  0
  7  6  2  0
  6  3  1  0
M  END
$$$$
O14757_PocketFlow_idx-in-all-generaetd-675
     RDKit          3D

 18 20  0  0  0  0  0  0  0  0999 V2000
   -0.6395   -2.0713   41.4947 C   0  0  0  0  0  0  0  0  0  0  0  0
   -0.2671   -3.2464   41.6546 C   0  0  0  0  0  0  0  0  0  0  0  0
   -2.0053   -1.6706   41.3987 C   0  0  0  0  0  0  0  0  0  0  0  0
   -2.8330   -2.6263   40.7760 C   0  0  0  0  0  0  0  0  0  0  0  0
    1.1099   -3.6129   41.9114 C   0  0  0  0  0  0  0  0  0  0  0  0
    1.9434   -2.5225   42.1864 C   0  0  0  0  0  0  0  0  0  0  0  0
    1.4810   -1.1988   42.1414 C   0  0  0  0  0  0  0  0  0  0  0  0
    0.1562   -0.9259   41.8221 C   0  0  0  0  0  0  0  0  0  0  0  0
    2.4763   -0.0787   42.3041 C   0  0  0  0  0  0  0  0  0  0  0  0
    3.7891   -0.3368   42.7694 C   0  0  0  0  0  0  0  0  0  0  0  0
    4.1721   -1.5819   43.2650 C   0  0  0  0  0  0  0  0  0  0  0  0
    5.3354   -1.8283   44.0335 C   0  0  0  0  0  0  0  0  0  0  0  0
    6.2536   -0.8153   44.4203 C   0  0  0  0  0  0  0  0  0  0  0  0
    3.2000   -2.6354   42.9691 C   0  0  0  0  0  0  0  0  0  0  0  0
    5.4806   -3.1293   44.6718 C   0  0  0  0  0  0  0  0  0  0  0  0
    7.3782   -1.0755   45.1856 C   0  0  0  0  0  0  0  0  0  0  0  0
    7.5685   -2.3792   45.8226 C   0  0  0  0  0  0  0  0  0  0  0  0
    6.5704   -3.3799   45.5261 C   0  0  0  0  0  0  0  0  0  0  0  0
  3  4  1  0
 11 12  1  0
  3  1  1  0
 12 13  2  0
 13 16  1  0
 16 17  2  0
 17 18  1  0
 18 15  2  0
 15 12  1  0
  7  9  1  0
  9 10  2  0
 10 11  1  0
 11 14  2  0
 14  6  1  0
  1  2  2  0
  2  5  1  0
  5  6  2  0
  6  7  1  0
  7  8  2  0
  8  1  1  0
M  END
$$$$
O14757_PocketFlow_idx-in-all-generaetd-676
     RDKit          3D

 16 17  0  0  0  0  0  0  0  0999 V2000
   -0.6770   -2.0561   41.5845 Cl  0  0  0  0  0  0  0  0  0  0  0  0
    0.8348   -2.3079   42.0606 C   0  0  0  0  0  0  0  0  0  0  0  0
    1.7771   -1.3772   41.6166 C   0  0  0  0  0  0  0  0  0  0  0  0
    3.1118   -1.4448   42.2151 C   0  0  0  0  0  0  0  0  0  0  0  0
    3.3055   -2.3663   43.2784 C   0  0  0  0  0  0  0  0  0  0  0  0
    2.3436   -3.2276   43.6978 C   0  0  0  0  0  0  0  0  0  0  0  0
    1.0607   -3.1862   43.1113 C   0  0  0  0  0  0  0  0  0  0  0  0
    2.3903   -4.2172   44.7725 C   0  0  0  0  0  0  0  0  0  0  0  0
    1.3899   -4.9615   45.2919 C   0  0  0  0  0  0  0  0  0  0  0  0
    1.5935   -5.8834   46.2505 C   0  0  0  0  0  0  0  0  0  0  0  0
    2.9320   -6.3413   46.3638 C   0  0  0  0  0  0  0  0  0  0  0  0
    4.0235   -5.7138   45.8021 C   0  0  0  0  0  0  0  0  0  0  0  0
    3.8459   -4.7074   44.9357 C   0  0  0  0  0  0  0  0  0  0  0  0
    0.4933   -6.6295   46.8286 C   0  0  0  0  0  0  0  0  0  0  0  0
    0.6024   -7.6619   47.3586 O   0  0  0  0  0  0  0  0  0  0  0  0
   -0.8478   -6.1814   46.4766 N   0  0  0  0  0  0  0  0  0  0  0  0
  1  2  1  0
  6  8  1  0
 10 14  1  0
 14 15  2  0
 14 16  1  0
  2  3  2  0
  3  4  1  0
  4  5  2  0
  5  6  1  0
  6  7  2  0
  7  2  1  0
  8  9  2  0
  9 10  1  0
 10 11  2  0
 11 12  1  0
 12 13  2  0
 13  8  1  0
M  END
$$$$
O14757_PocketFlow_idx-in-all-generaetd-677
     RDKit          3D

 18 18  0  0  0  0  0  0  0  0999 V2000
   -0.6395   -2.0713   41.4947 C   0  0  0  0  0  0  0  0  0  0  0  0
    0.1859   -1.1027   41.5970 C   0  0  0  0  0  0  0  0  0  0  0  0
    1.5836   -1.3270   41.4670 C   0  0  0  0  0  0  0  0  0  0  0  0
   -0.2462   -3.3905   41.2409 C   0  0  0  0  0  0  0  0  0  0  0  0
    2.5675   -0.3473   41.7943 C   0  0  0  0  0  0  0  0  0  0  0  0
    3.8546   -0.6776   42.2362 C   0  0  0  0  0  0  0  0  0  0  0  0
    4.7501    0.3011   42.7357 C   0  0  0  0  0  0  0  0  0  0  0  0
    1.0806   -3.6013   41.1169 N   0  0  0  0  0  0  0  0  0  0  0  0
    1.9611   -2.5866   41.2296 C   0  0  0  0  0  0  0  0  0  0  0  0
    5.8066   -0.2648   43.3351 F   0  0  0  0  0  0  0  0  0  0  0  0
   -2.0369   -1.8984   41.6174 O   0  0  0  0  0  0  0  0  0  0  0  0
   -2.5367   -0.8010   40.9823 C   0  0  0  0  0  0  0  0  0  0  0  0
    4.0382    0.8453   43.8387 F   0  0  0  0  0  0  0  0  0  0  0  0
    4.9349    1.1996   41.9322 F   0  0  0  0  0  0  0  0  0  0  0  0
   -3.8433   -0.9837   40.4568 C   0  0  0  0  0  0  0  0  0  0  0  0
   -4.0759   -2.1191   40.0538 O   0  0  0  0  0  0  0  0  0  0  0  0
   -4.6307   -0.0429   40.2541 O   0  0  0  0  0  0  0  0  0  0  0  0
    4.2025   -1.9379   42.1830 O   0  0  0  0  0  0  0  0  0  0  0  0
  3  5  1  0
  5  6  1  0
  6  7  1  0
  7 10  1  0
  1 11  1  0
 11 12  1  0
  7 13  1  0
  7 14  1  0
 12 15  1  0
 15 16  1  0
 15 17  2  0
  6 18  2  0
  1  2  2  0
  2  3  1  0
  3  9  2  0
  9  8  1  0
  8  4  2  0
  4  1  1  0
M  END
$$$$
O14757_PocketFlow_idx-in-all-generaetd-678
     RDKit          3D

 35 38  0  0  0  0  0  0  0  0999 V2000
   -0.8794   -1.9236   41.9357 O   0  0  0  0  0  0  0  0  0  0  0  0
    0.3182   -2.2442   41.7074 C   0  0  0  0  0  0  0  0  0  0  0  0
    1.3766   -1.3498   41.6019 C   0  0  0  0  0  0  0  0  0  0  0  0
    2.6423   -1.6963   42.1387 C   0  0  0  0  0  0  0  0  0  0  0  0
    2.9424   -1.9961   43.3027 C   0  0  0  0  0  0  0  0  0  0  0  0
    4.2272   -2.0408   43.8440 C   0  0  0  0  0  0  0  0  0  0  0  0
    4.6441   -2.8875   44.8538 C   0  0  0  0  0  0  0  0  0  0  0  0
    3.8049   -3.8479   45.3584 C   0  0  0  0  0  0  0  0  0  0  0  0
    2.5175   -3.9794   44.7243 C   0  0  0  0  0  0  0  0  0  0  0  0
    2.1378   -3.2339   43.7098 C   0  0  0  0  0  0  0  0  0  0  0  0
    6.0077   -2.4875   45.3591 C   0  0  1  0  0  0  0  0  0  0  0  0
    6.7268   -3.4916   46.1042 C   0  0  0  0  0  0  0  0  0  0  0  0
    8.0315   -3.0742   46.5675 C   0  0  0  0  0  0  0  0  0  0  0  0
    8.8162   -3.9118   47.3955 C   0  0  0  0  0  0  0  0  0  0  0  0
    8.1165   -4.9041   48.0267 C   0  0  0  0  0  0  0  0  0  0  0  0
    6.7681   -5.1321   47.7793 C   0  0  0  0  0  0  0  0  0  0  0  0
    6.0565   -4.3668   46.9338 C   0  0  0  0  0  0  0  0  0  0  0  0
    1.5999   -5.0301   45.2476 C   0  0  0  0  0  0  0  0  0  0  0  0
    0.8363   -4.5430   46.2976 C   0  0  0  0  0  0  0  0  0  0  0  0
    1.5113   -6.3221   44.8125 C   0  0  0  0  0  0  0  0  0  0  0  0
    0.2779   -6.9238   44.4569 C   0  0  0  0  0  0  0  0  0  0  0  0
   -0.4675   -5.3796   46.4692 C   0  0  0  0  0  0  0  0  0  0  0  0
   -0.6003   -6.5938   45.7083 C   0  0  0  0  0  0  0  0  0  0  0  0
   -2.0833   -6.9932   45.3645 C   0  0  0  0  0  0  0  0  0  0  0  0
   -2.4296   -8.0326   46.3094 C   0  0  0  0  0  0  0  0  0  0  0  0
   -1.6493   -8.3740   47.3271 C   0  0  0  0  0  0  0  0  0  0  0  0
   -3.6511   -8.7393   46.0617 C   0  0  0  0  0  0  0  0  0  0  0  0
    6.5850   -1.5035   44.8615 F   0  0  0  0  0  0  0  0  0  0  0  0
   -2.0432   -9.4605   48.2256 C   0  0  0  0  0  0  0  0  0  0  0  0
   -4.3970   -8.4452   44.8439 C   0  0  2  0  0  0  0  0  0  0  0  0
   -3.1887  -10.1051   47.9510 C   0  0  0  0  0  0  0  0  0  0  0  0
   -3.9920   -9.7554   46.8631 C   0  0  0  0  0  0  0  0  0  0  0  0
   -4.0471   -7.9869   43.7636 C   0  0  0  0  0  0  0  0  0  0  0  0
   -4.8302   -8.0887   42.5804 N   0  0  0  0  0  0  0  0  0  0  0  0
   -5.8502   -8.3339   44.9357 C   0  0  0  0  0  0  0  0  0  0  0  0
  1  2  1  0
  2  3  1  0
  3  4  2  3
  4  5  1  0
  7 11  1  0
  9 18  1  0
 23 24  1  0
 24 25  1  0
 11 28  1  6
 27 30  1  0
 30 33  1  0
 33 34  2  3
 30 35  1  1
 11 12  1  0
 12 13  2  0
 13 14  1  0
 14 15  2  0
 15 16  1  0
 16 17  2  0
 17 12  1  0
 18 19  2  0
 19 22  1  0
 22 23  2  0
 23 21  1  0
 21 20  2  0
 20 18  1  0
  5  6  2  0
  6  7  1  0
  7  8  2  0
  8  9  1  0
  9 10  2  0
 10  5  1  0
 25 26  2  0
 26 29  1  0
 29 31  2  0
 31 32  1  0
 32 27  2  0
 27 25  1  0
M  END
$$$$
O14757_PocketFlow_idx-in-all-generaetd-679
     RDKit          3D

 35 39  0  0  0  0  0  0  0  0999 V2000
    0.2881   -2.9111   42.4378 C   0  0  0  0  0  0  0  0  0  0  0  0
    1.1801   -2.2228   42.2048 N   0  0  0  0  0  0  0  0  0  0  0  0
    0.9828   -1.0640   41.4831 C   0  0  0  0  0  0  0  0  0  0  0  0
   -0.8400   -2.7084   42.0362 O   0  0  0  0  0  0  0  0  0  0  0  0
    0.6774   -4.3328   43.0320 C   0  0  0  0  0  0  0  0  0  0  0  0
    1.6735   -4.3882   44.0767 C   0  0  0  0  0  0  0  0  0  0  0  0
    1.5309   -5.1804   45.2149 C   0  0  0  0  0  0  0  0  0  0  0  0
    2.1597   -0.1370   41.4832 C   0  0  0  0  0  0  0  0  0  0  0  0
    3.2238   -0.5177   42.3452 C   0  0  0  0  0  0  0  0  0  0  0  0
    4.3262    0.4141   42.4309 C   0  0  0  0  0  0  0  0  0  0  0  0
    0.2924   -5.7808   45.4908 C   0  0  0  0  0  0  0  0  0  0  0  0
    0.2666   -7.0692   45.5019 C   0  0  0  0  0  0  0  0  0  0  0  0
   -0.2692   -7.6731   46.4841 C   0  0  1  0  0  0  0  0  0  0  0  0
   -1.5824   -7.3114   46.9021 C   0  0  0  0  0  0  0  0  0  0  0  0
   -2.5896   -7.6709   46.2415 O   0  0  0  0  0  0  0  0  0  0  0  0
   -3.3508   -8.7382   46.5399 C   0  0  0  0  0  0  0  0  0  0  0  0
   -3.4959   -9.6547   45.4810 C   0  0  0  0  0  0  0  0  0  0  0  0
   -4.7110   -9.4960   44.7718 C   0  0  0  0  0  0  0  0  0  0  0  0
   -4.5795   -8.5931   43.6309 C   0  0  0  0  0  0  0  0  0  0  0  0
   -3.4730   -7.7876   43.6214 C   0  0  0  0  0  0  0  0  0  0  0  0
   -5.6083   -8.4449   42.6526 C   0  0  0  0  0  0  0  0  0  0  0  0
    5.2946    0.0041   43.3795 C   0  0  0  0  0  0  0  0  0  0  0  0
    5.3244   -1.2506   44.0353 C   0  0  0  0  0  0  0  0  0  0  0  0
    4.2296   -2.1096   43.8342 C   0  0  0  0  0  0  0  0  0  0  0  0
    3.2345   -1.6990   43.0161 C   0  0  0  0  0  0  0  0  0  0  0  0
    2.2991   -2.3787   42.9858 C   0  0  2  0  0  0  0  0  0  0  0  0
    2.4054   -3.5480   43.7888 C   0  0  1  0  0  0  0  0  0  0  0  0
    3.7705   -3.3568   44.4124 C   0  0  0  0  0  0  0  0  0  0  0  0
    6.4660   -1.6445   44.9181 C   0  0  0  0  0  0  0  0  0  0  0  0
    6.4567   -2.8995   45.5705 C   0  0  0  0  0  0  0  0  0  0  0  0
    7.6017   -3.2417   46.3575 C   0  0  0  0  0  0  0  0  0  0  0  0
    8.6470   -2.3029   46.4376 C   0  0  0  0  0  0  0  0  0  0  0  0
    8.6094   -1.0822   45.7839 C   0  0  0  0  0  0  0  0  0  0  0  0
    7.5283   -0.7603   45.1189 C   0  0  0  0  0  0  0  0  0  0  0  0
   -0.3220   -9.2606   46.4677 N   0  0  0  0  0  0  0  0  0  0  0  0
  1  2  1  0
  2  3  1  0
  1  4  2  0
  1  5  1  0
  5  6  1  0
  6  7  2  3
  3  8  1  0
  8  9  1  0
  7 11  1  0
 11 12  1  0
 12 13  1  0
 13 14  1  0
 14 15  1  0
 15 16  1  0
 16 17  1  0
 17 18  1  0
 18 19  1  0
 19 20  1  0
 19 21  1  0
 26  2  1  6
 25 26  1  0
  6 27  1  0
 26 27  1  0
 24 28  1  0
 27 28  1  1
 23 29  1  0
 13 35  1  6
  9 10  2  0
 10 22  1  0
 22 23  2  0
 23 24  1  0
 24 25  2  0
 25  9  1  0
 29 30  2  0
 30 31  1  0
 31 32  2  0
 32 33  1  0
 33 34  2  0
 34 29  1  0
M  END
$$$$
O14757_PocketFlow_idx-in-all-generaetd-680
     RDKit          3D

 25 25  0  0  0  0  0  0  0  0999 V2000
   -0.6395   -2.0713   41.4947 C   0  0  0  0  0  0  0  0  0  0  0  0
    0.6719   -2.2449   41.7518 C   0  0  2  0  0  0  0  0  0  0  0  0
    1.1287   -3.3339   42.4778 C   0  0  0  0  0  0  0  0  0  0  0  0
    0.1107   -4.1457   43.0600 C   0  0  0  0  0  0  0  0  0  0  0  0
    0.7277   -5.5234   43.2766 C   0  0  0  0  0  0  0  0  0  0  0  0
    1.4717   -0.9022   41.9278 C   0  0  0  0  0  0  0  0  0  0  0  0
    2.8548   -0.9016   42.0153 C   0  0  0  0  0  0  0  0  0  0  0  0
    3.4318    0.3355   42.5029 C   0  0  0  0  0  0  0  0  0  0  0  0
    0.4313   -5.9575   44.6283 C   0  0  2  0  0  0  0  0  0  0  0  0
    1.4209   -5.7705   45.4810 C   0  0  0  0  0  0  0  0  0  0  0  0
    2.2074   -4.9619   45.2529 O   0  0  0  0  0  0  0  0  0  0  0  0
    3.5594   -5.0763   45.7472 C   0  0  0  0  0  0  0  0  0  0  0  0
    4.4731   -4.0826   45.1741 C   0  0  0  0  0  0  0  0  0  0  0  0
    5.5771   -3.6056   45.8777 C   0  0  0  0  0  0  0  0  0  0  0  0
    6.3780   -2.5335   45.4209 C   0  0  0  0  0  0  0  0  0  0  0  0
    5.9504   -1.8182   44.2382 C   0  0  0  0  0  0  0  0  0  0  0  0
    4.7859   -2.3008   43.5927 C   0  0  0  0  0  0  0  0  0  0  0  0
    4.0597   -3.3716   44.1227 C   0  0  0  0  0  0  0  0  0  0  0  0
   -1.2799   -0.9263   41.3416 O   0  0  0  0  0  0  0  0  0  0  0  0
   -0.7379   -6.7983   44.8118 C   0  0  0  0  0  0  0  0  0  0  0  0
   -0.8542   -7.5009   46.0707 C   0  0  0  0  0  0  0  0  0  0  0  0
   -2.1061   -7.8907   46.4153 C   0  0  0  0  0  0  0  0  0  0  0  0
   -3.1559   -7.5211   45.8197 C   0  0  0  0  0  0  0  0  0  0  0  0
   -3.0990   -7.4179   44.3636 C   0  0  0  0  0  0  0  0  0  0  0  0
   -1.7458   -7.0167   43.9030 C   0  0  0  0  0  0  0  0  0  0  0  0
  1  2  1  0
  2  3  1  1
  3  4  1  0
  4  5  1  0
  2  6  1  0
  6  7  1  0
  7  8  2  0
  9  5  1  6
  9 10  1  0
 10 11  1  0
 11 12  1  0
 12 13  1  0
  1 19  2  0
  9 20  1  0
 20 21  2  3
 21 22  1  0
 22 23  2  3
 23 24  1  0
 24 25  1  0
 13 14  2  0
 14 15  1  0
 15 16  2  0
 16 17  1  0
 17 18  2  0
 18 13  1  0
M  END
$$$$
O14757_PocketFlow_idx-in-all-generaetd-681
     RDKit          3D

 10 10  0  0  0  0  0  0  0  0999 V2000
    0.2881   -2.9111   42.4378 C   0  0  0  0  0  0  0  0  0  0  0  0
   -0.0650   -2.5021   41.5798 C   0  0  0  0  0  0  0  0  0  0  0  0
    1.6221   -3.4772   42.5980 C   0  0  0  0  0  0  0  0  0  0  0  0
    2.5750   -2.3320   42.6205 C   0  0  0  0  0  0  0  0  0  0  0  0
    2.2774   -1.1676   41.9568 C   0  0  0  0  0  0  0  0  0  0  0  0
    3.1180   -0.1453   41.8280 C   0  0  0  0  0  0  0  0  0  0  0  0
   -1.4063   -2.2954   41.1988 C   0  0  0  0  0  0  0  0  0  0  0  0
    4.3133   -0.2283   42.6002 C   0  0  0  0  0  0  0  0  0  0  0  0
    4.6283   -1.3413   43.3835 C   0  0  0  0  0  0  0  0  0  0  0  0
    3.7083   -2.4169   43.3879 C   0  0  0  0  0  0  0  0  0  0  0  0
  1  2  1  0
  1  3  1  0
  3  4  1  0
  2  7  1  0
  4  5  2  0
  5  6  1  0
  6  8  2  0
  8  9  1  0
  9 10  2  0
 10  4  1  0
M  END
$$$$
O14757_PocketFlow_idx-in-all-generaetd-682
     RDKit          3D

 26 28  0  0  0  0  0  0  0  0999 V2000
    0.2881   -2.9111   42.4378 C   0  0  0  0  0  0  0  0  0  0  0  0
    1.1784   -3.4293   42.9321 C   0  0  0  0  0  0  0  0  0  0  0  0
    2.4696   -2.7231   42.8997 C   0  0  0  0  0  0  0  0  0  0  0  0
    3.6320   -3.1839   43.6508 C   0  0  0  0  0  0  0  0  0  0  0  0
    4.7810   -2.3542   43.7528 C   0  0  0  0  0  0  0  0  0  0  0  0
    0.3948   -1.7688   41.5591 C   0  0  0  0  0  0  0  0  0  0  0  0
    1.5740   -1.0667   41.5573 C   0  0  0  0  0  0  0  0  0  0  0  0
    2.6368   -1.5468   42.2493 C   0  0  0  0  0  0  0  0  0  0  0  0
    4.7735   -1.1189   43.0121 C   0  0  0  0  0  0  0  0  0  0  0  0
    3.7259   -0.7116   42.3273 C   0  0  0  0  0  0  0  0  0  0  0  0
    3.6565   -4.4062   44.4420 C   0  0  0  0  0  0  0  0  0  0  0  0
    3.0769   -4.4653   45.7718 C   0  0  0  0  0  0  0  0  0  0  0  0
    2.1006   -5.4741   45.9059 C   0  0  0  0  0  0  0  0  0  0  0  0
    0.7541   -5.0946   45.8259 C   0  0  0  0  0  0  0  0  0  0  0  0
   -0.3045   -6.0782   45.9662 C   0  0  0  0  0  0  0  0  0  0  0  0
    0.0241   -7.3971   45.9657 C   0  0  0  0  0  0  0  0  0  0  0  0
    1.3689   -7.7696   45.8444 C   0  0  0  0  0  0  0  0  0  0  0  0
    2.4264   -6.8337   45.7422 C   0  0  0  0  0  0  0  0  0  0  0  0
   -1.0835   -8.3160   46.0048 C   0  0  0  0  0  0  0  0  0  0  0  0
   -1.7365   -8.3839   44.8166 F   0  0  0  0  0  0  0  0  0  0  0  0
   -1.9428   -8.1328   47.0455 F   0  0  0  0  0  0  0  0  0  0  0  0
   -0.6097   -9.6112   46.2056 F   0  0  0  0  0  0  0  0  0  0  0  0
   -1.1552   -1.0492   40.9584 P   0  0  0  0  0  0  0  0  0  0  0  0
   -2.0395   -1.3021   42.2970 O   0  0  0  0  0  0  0  0  0  0  0  0
   -0.9215    0.4389   41.0677 O   0  0  0  0  0  0  0  0  0  0  0  0
   -1.7286   -1.7433   39.9683 O   0  0  0  0  0  0  0  0  0  0  0  0
  4 11  1  0
 11 12  1  0
 12 13  1  0
 16 19  1  0
 19 20  1  0
 19 21  1  0
 19 22  1  0
  6 23  1  0
 23 24  1  0
 23 25  1  0
 23 26  2  0
 13 14  2  0
 14 15  1  0
 15 16  2  0
 16 17  1  0
 17 18  2  0
 18 13  1  0
  1  2  2  0
  2  3  1  0
  8  7  1  0
  7  6  2  0
  6  1  1  0
  3  4  2  0
  4  5  1  0
  5  9  2  0
  9 10  1  0
 10  8  2  0
  8  3  1  0
M  END
$$$$
O14757_PocketFlow_idx-in-all-generaetd-683
     RDKit          3D

 19 20  0  0  0  0  0  0  0  0999 V2000
    0.0138   -2.7927   42.5918 N   0  0  0  0  0  0  0  0  0  0  0  0
    1.0651   -2.2375   42.1679 C   0  0  1  0  0  0  0  0  0  0  0  0
    0.8947   -1.0867   41.3479 C   0  0  0  0  0  0  0  0  0  0  0  0
    2.1078   -0.3090   41.2076 C   0  0  0  0  0  0  0  0  0  0  0  0
    2.8351   -0.0188   42.4223 C   0  0  0  0  0  0  0  0  0  0  0  0
    3.7864    0.9135   42.3802 C   0  0  0  0  0  0  0  0  0  0  0  0
    2.3149   -2.7025   42.7358 C   0  0  1  0  0  0  0  0  0  0  0  0
    3.2633   -1.5990   42.8821 C   0  0  0  0  0  0  0  0  0  0  0  0
    2.3506   -3.7567   43.6367 C   0  0  2  0  0  0  0  0  0  0  0  0
    3.4860   -4.1255   44.3653 C   0  0  0  0  0  0  0  0  0  0  0  0
    3.5235   -5.3241   45.0599 C   0  0  0  0  0  0  0  0  0  0  0  0
    4.5404   -5.6314   45.9364 C   0  0  0  0  0  0  0  0  0  0  0  0
    5.4678   -4.6139   46.2835 C   0  0  0  0  0  0  0  0  0  0  0  0
    5.3236   -3.2825   45.7644 C   0  0  0  0  0  0  0  0  0  0  0  0
    4.2914   -3.0243   44.8896 C   0  0  0  0  0  0  0  0  0  0  0  0
    6.3017   -2.3088   46.1626 C   0  0  0  0  0  0  0  0  0  0  0  0
    6.5596   -1.2291   45.3094 C   0  0  0  0  0  0  0  0  0  0  0  0
    1.4325   -4.6212   43.5560 F   0  0  0  0  0  0  0  0  0  0  0  0
    7.8096   -0.6713   45.4643 N   0  0  0  0  0  0  0  0  0  0  0  0
  2  1  1  1
  2  3  1  0
  3  4  1  0
  4  5  1  0
  5  6  2  0
  2  7  1  0
  5  8  1  0
  7  8  1  1
  7  9  1  0
  9 10  1  0
 14 16  1  0
 16 17  1  0
  9 18  1  6
 17 19  2  3
 10 11  2  0
 11 12  1  0
 12 13  2  0
 13 14  1  0
 14 15  2  0
 15 10  1  0
M  END
$$$$
O14757_PocketFlow_idx-in-all-generaetd-684
     RDKit          3D

 23 26  0  0  0  0  0  0  0  0999 V2000
   -0.6395   -2.0713   41.4947 C   0  0  0  0  0  0  0  0  0  0  0  0
    0.1859   -1.1027   41.5970 C   0  0  0  0  0  0  0  0  0  0  0  0
    1.5836   -1.3270   41.4669 C   0  0  0  0  0  0  0  0  0  0  0  0
   -0.2462   -3.3905   41.2409 C   0  0  0  0  0  0  0  0  0  0  0  0
    2.5675   -0.3472   41.7943 C   0  0  0  0  0  0  0  0  0  0  0  0
    3.8546   -0.6776   42.2362 C   0  0  2  0  0  0  0  0  0  0  0  0
    4.0126   -1.8382   43.0706 C   0  0  0  0  0  0  0  0  0  0  0  0
    5.0976   -2.0692   43.9469 C   0  0  0  0  0  0  0  0  0  0  0  0
    5.1390   -3.2028   44.7700 C   0  0  0  0  0  0  0  0  0  0  0  0
    4.1210   -4.2158   44.5930 C   0  0  0  0  0  0  0  0  0  0  0  0
    2.9865   -3.9078   43.8234 C   0  0  0  0  0  0  0  0  0  0  0  0
    2.9293   -2.7349   43.0940 C   0  0  0  0  0  0  0  0  0  0  0  0
    1.6878   -2.4625   42.3476 C   0  0  0  0  0  0  0  0  0  0  0  0
    0.9328   -3.6980   42.0825 C   0  0  0  0  0  0  0  0  0  0  0  0
   -2.1422   -1.7833   41.4039 C   0  0  0  0  0  0  0  0  0  0  0  0
   -2.4916   -0.5819   41.3306 O   0  0  0  0  0  0  0  0  0  0  0  0
    4.8856    0.4047   42.3917 C   0  0  0  0  0  0  0  0  0  0  0  0
    6.3198   -3.4158   45.6215 C   0  0  0  0  0  0  0  0  0  0  0  0
    6.3388   -4.3297   46.6734 C   0  0  0  0  0  0  0  0  0  0  0  0
    7.4157   -4.3100   47.5804 C   0  0  0  0  0  0  0  0  0  0  0  0
    8.4677   -3.3953   47.3735 C   0  0  0  0  0  0  0  0  0  0  0  0
    8.4129   -2.4854   46.2861 C   0  0  0  0  0  0  0  0  0  0  0  0
    7.3325   -2.4566   45.4843 C   0  0  0  0  0  0  0  0  0  0  0  0
  3  5  1  0
  5  6  1  0
  6  7  1  0
 12 13  1  0
  1 15  1  0
 15 16  2  0
  6 17  1  1
  9 18  1  0
 18 19  2  0
 19 20  1  0
 20 21  2  0
 21 22  1  0
 22 23  2  0
 23 18  1  0
  1  2  2  0
  2  3  1  0
  3 13  2  0
 13 14  1  0
 14  4  2  0
  4  1  1  0
  7  8  2  0
  8  9  1  0
  9 10  2  0
 10 11  1  0
 11 12  2  0
 12  7  1  0
M  END
$$$$
O14757_PocketFlow_idx-in-all-generaetd-685
     RDKit          3D

  5  4  0  0  0  0  0  0  0  0999 V2000
   -0.8413   -1.9048   41.7918 F   0  0  0  0  0  0  0  0  0  0  0  0
   -0.4300   -2.8526   41.5038 C   0  0  0  0  0  0  0  0  0  0  0  0
   -1.2613   -3.8342   41.5789 F   0  0  0  0  0  0  0  0  0  0  0  0
    0.0516   -2.8482   40.1745 F   0  0  0  0  0  0  0  0  0  0  0  0
    0.6816   -3.0977   42.2991 F   0  0  0  0  0  0  0  0  0  0  0  0
  1  2  1  0
  2  3  1  0
  2  4  1  0
  2  5  1  0
M  END
$$$$
O14757_PocketFlow_idx-in-all-generaetd-686
     RDKit          3D

 20 22  0  0  0  0  0  0  0  0999 V2000
   -0.6395   -2.0713   41.4947 C   0  0  0  0  0  0  0  0  0  0  0  0
    0.1859   -1.1027   41.5970 C   0  0  0  0  0  0  0  0  0  0  0  0
   -0.2410   -3.3795   41.5297 C   0  0  0  0  0  0  0  0  0  0  0  0
    1.6125   -1.3642   41.8466 C   0  0  0  0  0  0  0  0  0  0  0  0
    2.5720   -0.3568   42.0335 C   0  0  0  0  0  0  0  0  0  0  0  0
    3.8647   -0.6704   42.4195 C   0  0  0  0  0  0  0  0  0  0  0  0
    4.1194   -1.9335   43.0710 C   0  0  0  0  0  0  0  0  0  0  0  0
    2.9722   -2.8423   43.1550 C   0  0  0  0  0  0  0  0  0  0  0  0
    1.7954   -2.5064   42.6379 C   0  0  0  0  0  0  0  0  0  0  0  0
    0.8386   -3.5908   42.4008 C   0  0  0  0  0  0  0  0  0  0  0  0
    4.9271    0.1776   42.4430 N   0  0  0  0  0  0  0  0  0  0  0  0
   -2.1018   -1.7455   41.3022 C   0  0  0  0  0  0  0  0  0  0  0  0
   -2.8919   -2.6213   40.8552 O   0  0  0  0  0  0  0  0  0  0  0  0
   -2.5389   -0.5520   41.5498 O   0  0  0  0  0  0  0  0  0  0  0  0
    3.2233   -4.0220   44.0148 C   0  0  0  0  0  0  0  0  0  0  0  0
    3.3604   -3.9353   45.3853 C   0  0  0  0  0  0  0  0  0  0  0  0
    3.4478   -5.1818   46.1512 C   0  0  0  0  0  0  0  0  0  0  0  0
    3.1437   -6.3974   45.4113 C   0  0  0  0  0  0  0  0  0  0  0  0
    2.9337   -6.3530   44.0865 C   0  0  0  0  0  0  0  0  0  0  0  0
    2.9187   -5.2127   43.4946 C   0  0  0  0  0  0  0  0  0  0  0  0
  6 11  1  0
  1 12  1  0
 12 13  2  0
 12 14  1  0
  8 15  1  0
 15 16  2  0
 16 17  1  0
 17 18  2  0
 18 19  1  0
 19 20  2  0
 20 15  1  0
  1  2  2  0
  2  4  1  0
  9 10  1  0
 10  3  2  0
  3  1  1  0
  4  5  2  0
  5  6  1  0
  6  7  2  0
  7  8  1  0
  8  9  2  0
  9  4  1  0
M  END
$$$$
O14757_PocketFlow_idx-in-all-generaetd-687
     RDKit          3D

 28 30  0  0  0  0  0  0  0  0999 V2000
   -0.6395   -2.0713   41.4947 C   0  0  0  0  0  0  0  0  0  0  0  0
    0.6719   -2.2449   41.7518 C   0  0  0  0  0  0  0  0  0  0  0  0
    1.5951   -1.1948   41.6106 C   0  0  0  0  0  0  0  0  0  0  0  0
    2.9587   -1.3961   42.0240 C   0  0  1  0  0  0  0  0  0  0  0  0
    3.8815   -0.3441   42.0598 C   0  0  0  0  0  0  0  0  0  0  0  0
    5.0972   -0.5585   42.8399 C   0  0  0  0  0  0  0  0  0  0  0  0
    4.9153   -1.2970   43.9929 C   0  0  0  0  0  0  0  0  0  0  0  0
    5.9828   -1.4515   44.9792 C   0  0  0  0  0  0  0  0  0  0  0  0
    5.8917   -2.5106   45.9331 C   0  0  0  0  0  0  0  0  0  0  0  0
    5.2282   -3.4513   45.6771 C   0  0  0  0  0  0  0  0  0  0  0  0
    4.1759   -3.5049   44.6805 C   0  0  0  0  0  0  0  0  0  0  0  0
    3.2562   -4.5110   44.5042 C   0  0  0  0  0  0  0  0  0  0  0  0
    4.1280   -2.4017   43.8027 C   0  0  0  0  0  0  0  0  0  0  0  0
    3.0583   -2.3476   42.9474 C   0  0  0  0  0  0  0  0  0  0  0  0
    2.5169   -4.9543   45.3376 N   0  0  0  0  0  0  0  0  0  0  0  0
    1.4339   -5.8136   45.2384 C   0  0  0  0  0  0  0  0  0  0  0  0
    0.2077   -5.1763   45.7124 C   0  0  0  0  0  0  0  0  0  0  0  0
    0.1965   -3.9335   45.4408 F   0  0  0  0  0  0  0  0  0  0  0  0
   -0.9415   -5.7938   45.6918 F   0  0  0  0  0  0  0  0  0  0  0  0
   -1.5510   -3.1926   41.4833 C   0  0  2  0  0  0  0  0  0  0  0  0
   -0.8366   -4.3917   41.4615 N   0  0  0  0  0  0  0  0  0  0  0  0
   -1.1382   -0.7037   41.4180 C   0  0  0  0  0  0  0  0  0  0  0  0
    1.1753    0.0429   41.0352 C   0  0  0  0  0  0  0  0  0  0  0  0
   -0.2146    0.2295   41.0941 N   0  0  0  0  0  0  0  0  0  0  0  0
   -2.3844   -0.4375   41.1995 N   0  0  0  0  0  0  0  0  0  0  0  0
    1.4634   -6.8770   44.7935 O   0  0  0  0  0  0  0  0  0  0  0  0
   -2.6881   -3.0815   41.1017 F   0  0  0  0  0  0  0  0  0  0  0  0
    0.4234   -5.1123   47.1781 F   0  0  0  0  0  0  0  0  0  0  0  0
  4  3  1  1
  4  5  1  0
  5  6  1  0
  6  7  1  0
 11 12  1  0
  4 14  1  0
 13 14  1  0
 12 15  1  0
 15 16  1  0
 16 17  1  0
 17 18  1  0
 17 19  1  0
 20 21  1  6
 22 25  1  0
 16 26  2  0
 20 27  1  0
 17 28  1  0
 20  1  1  0
  7  8  2  0
  8  9  1  0
  9 10  2  0
 10 11  1  0
 11 13  2  0
 13  7  1  0
  1  2  2  0
  2  3  1  0
  3 23  2  0
 23 24  1  0
 24 22  2  0
 22  1  1  0
M  END
$$$$
O14757_PocketFlow_idx-in-all-generaetd-688
     RDKit          3D

 11 11  0  0  0  0  0  0  0  0999 V2000
   -0.6395   -2.0713   41.4947 C   0  0  0  0  0  0  0  0  0  0  0  0
   -0.2671   -3.2464   41.6546 C   0  0  0  0  0  0  0  0  0  0  0  0
    0.2277   -0.9875   41.6495 C   0  0  0  0  0  0  0  0  0  0  0  0
    1.6284   -1.2752   41.8841 C   0  0  0  0  0  0  0  0  0  0  0  0
    1.9209   -2.6657   42.2361 C   0  0  0  0  0  0  0  0  0  0  0  0
    3.1938   -2.8774   42.9001 C   0  0  0  0  0  0  0  0  0  0  0  0
    0.9832   -3.6161   42.1007 C   0  0  0  0  0  0  0  0  0  0  0  0
    3.2897   -2.8009   44.3304 C   0  0  0  0  0  0  0  0  0  0  0  0
    4.6006   -2.8172   44.9092 C   0  0  0  0  0  0  0  0  0  0  0  0
    5.4755   -1.7399   44.6735 C   0  0  0  0  0  0  0  0  0  0  0  0
    5.0720   -0.5572   44.0219 C   0  0  0  0  0  0  0  0  0  0  0  0
  5  6  1  0
  6  8  1  0
  8  9  2  3
  9 10  1  0
 10 11  1  0
  1  2  2  0
  2  7  1  0
  7  5  2  0
  5  4  1  0
  4  3  2  0
  3  1  1  0
M  END
$$$$
O14757_PocketFlow_idx-in-all-generaetd-689
     RDKit          3D

 35 38  0  0  0  0  0  0  0  0999 V2000
   -0.6395   -2.0713   41.4947 C   0  0  0  0  0  0  0  0  0  0  0  0
    0.1859   -1.1027   41.5970 C   0  0  0  0  0  0  0  0  0  0  0  0
    1.5836   -1.3270   41.4670 C   0  0  0  0  0  0  0  0  0  0  0  0
   -0.2462   -3.3905   41.2409 C   0  0  0  0  0  0  0  0  0  0  0  0
    2.0075   -2.6977   41.3341 C   0  0  0  0  0  0  0  0  0  0  0  0
    1.0655   -3.6470   41.1373 C   0  0  0  0  0  0  0  0  0  0  0  0
    2.5007   -0.3428   41.6891 N   0  0  0  0  0  0  0  0  0  0  0  0
    3.5646   -0.3991   42.5560 C   0  0  0  0  0  0  0  0  0  0  0  0
    3.8561   -1.4009   43.4454 C   0  0  0  0  0  0  0  0  0  0  0  0
    4.9675   -1.2591   44.2976 C   0  0  0  0  0  0  0  0  0  0  0  0
    5.2174   -2.2919   45.2705 C   0  0  0  0  0  0  0  0  0  0  0  0
    4.3770   -3.4026   45.4188 C   0  0  0  0  0  0  0  0  0  0  0  0
    3.2633   -3.4609   44.5559 C   0  0  0  0  0  0  0  0  0  0  0  0
    3.0499   -2.5003   43.6212 C   0  0  0  0  0  0  0  0  0  0  0  0
    4.3781    0.6374   42.4434 O   0  0  0  0  0  0  0  0  0  0  0  0
    2.4577   -4.6857   44.8584 C   0  0  0  0  0  0  0  0  0  0  0  0
    1.1763   -4.5777   45.3031 C   0  0  0  0  0  0  0  0  0  0  0  0
    0.3242   -5.6746   45.4971 C   0  0  0  0  0  0  0  0  0  0  0  0
    0.7783   -6.9111   45.0281 C   0  0  0  0  0  0  0  0  0  0  0  0
    2.0686   -7.0110   44.5768 C   0  0  0  0  0  0  0  0  0  0  0  0
    2.9444   -5.9449   44.4777 C   0  0  0  0  0  0  0  0  0  0  0  0
   -2.0483   -1.8104   41.4515 N   0  0  0  0  0  0  0  0  0  0  0  0
   -2.5347   -0.6742   40.9297 C   0  0  0  0  0  0  0  0  0  0  0  0
   -3.9551   -0.5392   40.8288 C   0  0  0  0  0  0  0  0  0  0  0  0
    6.4532   -2.1375   46.1025 C   0  0  0  0  0  0  0  0  0  0  0  0
    7.4013   -3.1274   45.9758 C   0  0  0  0  0  0  0  0  0  0  0  0
    8.3434   -3.1538   46.9096 C   0  0  0  0  0  0  0  0  0  0  0  0
    9.4125   -2.3156   47.0019 C   0  0  0  0  0  0  0  0  0  0  0  0
   10.2864   -2.2378   47.8018 C   0  0  0  0  0  0  0  0  0  0  0  0
   10.3069   -3.0718   48.9386 C   0  0  0  0  0  0  0  0  0  0  0  0
    9.2744   -4.0675   48.9594 C   0  0  0  0  0  0  0  0  0  0  0  0
    8.3176   -4.1036   47.9768 C   0  0  0  0  0  0  0  0  0  0  0  0
   -0.9347   -5.5055   45.9519 O   0  0  0  0  0  0  0  0  0  0  0  0
    9.6435   -1.1630   45.8989 C   0  0  0  0  0  0  0  0  0  0  0  0
    9.1551   -5.0578   50.1065 C   0  0  0  0  0  0  0  0  0  0  0  0
  3  7  1  0
  7  8  1  0
  8  9  1  0
  8 15  2  0
 13 16  1  0
  1 22  1  0
 22 23  1  0
 23 24  1  0
 11 25  1  0
 25 26  1  0
 26 27  1  0
 18 33  1  0
 28 34  1  0
 31 35  1  0
 27 28  2  0
 28 29  1  0
 29 30  2  0
 30 31  1  0
 31 32  2  0
 32 27  1  0
  1  2  2  0
  2  3  1  0
  3  5  2  0
  5  6  1  0
  6  4  2  0
  4  1  1  0
  9 10  2  0
 10 11  1  0
 11 12  2  0
 12 13  1  0
 13 14  2  0
 14  9  1  0
 16 17  2  0
 17 18  1  0
 18 19  2  0
 19 20  1  0
 20 21  2  0
 21 16  1  0
M  END
$$$$
O14757_PocketFlow_idx-in-all-generaetd-690
     RDKit          3D

 22 24  0  0  0  0  0  0  0  0999 V2000
    0.2881   -2.9111   42.4378 C   0  0  0  0  0  0  0  0  0  0  0  0
    1.3023   -2.0648   42.1981 C   0  0  0  0  0  0  0  0  0  0  0  0
    2.5313   -2.2887   42.6989 C   0  0  0  0  0  0  0  0  0  0  0  0
    3.5902   -1.3681   42.6298 C   0  0  0  0  0  0  0  0  0  0  0  0
    4.8471   -1.5684   43.3007 C   0  0  0  0  0  0  0  0  0  0  0  0
    0.5626   -4.0213   43.2438 C   0  0  0  0  0  0  0  0  0  0  0  0
    1.7176   -4.0733   44.0102 C   0  0  0  0  0  0  0  0  0  0  0  0
    2.7608   -3.1756   43.7988 C   0  0  0  0  0  0  0  0  0  0  0  0
    4.9307   -2.5627   44.2472 C   0  0  0  0  0  0  0  0  0  0  0  0
    3.9128   -3.3968   44.5478 C   0  0  0  0  0  0  0  0  0  0  0  0
    4.0014   -4.4799   45.4600 C   0  0  0  0  0  0  0  0  0  0  0  0
    4.8259   -4.2590   46.5989 C   0  0  0  0  0  0  0  0  0  0  0  0
    5.0087   -5.2158   47.6319 C   0  0  0  0  0  0  0  0  0  0  0  0
    1.0799   -0.9305   41.2182 C   0  0  0  0  0  0  0  0  0  0  0  0
    5.8888   -4.8814   48.7675 C   0  0  0  0  0  0  0  0  0  0  0  0
    7.1465   -5.0550   48.6723 C   0  0  0  0  0  0  0  0  0  0  0  0
    7.7738   -5.7964   48.0282 C   0  0  0  0  0  0  0  0  0  0  0  0
    8.9416   -6.4985   48.3447 C   0  0  0  0  0  0  0  0  0  0  0  0
    9.8645   -5.8479   49.1890 C   0  0  0  0  0  0  0  0  0  0  0  0
    7.8789   -4.6124   49.9896 C   0  0  0  0  0  0  0  0  0  0  0  0
    9.1911   -4.9982   50.1762 C   0  0  0  0  0  0  0  0  0  0  0  0
   -0.8764   -2.8617   41.8266 O   0  0  0  0  0  0  0  0  0  0  0  0
 10 11  1  0
 11 12  2  3
 12 13  1  0
  2 14  1  0
 13 15  2  3
 15 16  1  0
  1 22  1  0
  1  2  2  0
  2  3  1  0
  8  7  1  0
  7  6  2  0
  6  1  1  0
  3  4  2  0
  4  5  1  0
  5  9  2  0
  9 10  1  0
 10  8  2  0
  8  3  1  0
 16 17  2  0
 17 18  1  0
 18 19  2  0
 19 21  1  0
 21 20  2  0
 20 16  1  0
M  END
$$$$
O14757_PocketFlow_idx-in-all-generaetd-691
     RDKit          3D

 10 10  0  0  0  0  0  0  0  0999 V2000
   -0.6395   -2.0713   41.4947 C   0  0  0  0  0  0  0  0  0  0  0  0
   -0.2671   -3.2464   41.6546 C   0  0  0  0  0  0  0  0  0  0  0  0
    0.2407   -0.9706   41.5952 C   0  0  0  0  0  0  0  0  0  0  0  0
    1.6195   -1.2958   41.8767 C   0  0  0  0  0  0  0  0  0  0  0  0
    1.9162   -2.6816   42.2016 C   0  0  0  0  0  0  0  0  0  0  0  0
    0.9422   -3.6324   42.1156 C   0  0  0  0  0  0  0  0  0  0  0  0
    2.4522   -0.1918   42.1376 C   0  0  0  0  0  0  0  0  0  0  0  0
    3.7906   -0.4191   42.2910 N   0  0  0  0  0  0  0  0  0  0  0  0
    4.2656   -1.4828   42.9201 C   0  0  0  0  0  0  0  0  0  0  0  0
    3.7554   -2.4508   43.6428 C   0  0  0  0  0  0  0  0  0  0  0  0
  4  7  1  0
  7  8  1  0
  8  9  1  0
  9 10  2  0
  1  2  2  0
  2  6  1  0
  6  5  2  0
  5  4  1  0
  4  3  2  0
  3  1  1  0
M  END
$$$$
O14757_PocketFlow_idx-in-all-generaetd-692
     RDKit          3D

 29 32  0  0  0  0  0  0  0  0999 V2000
    0.2881   -2.9111   42.4378 C   0  0  0  0  0  0  0  0  0  0  0  0
   -0.0650   -2.5021   41.5798 C   0  0  0  0  0  0  0  0  0  0  0  0
    1.6221   -3.4772   42.5980 C   0  0  0  0  0  0  0  0  0  0  0  0
    2.0908   -4.0216   43.8699 C   0  0  0  0  0  0  0  0  0  0  0  0
    1.6360   -4.6066   44.5886 C   0  0  0  0  0  0  0  0  0  0  0  0
    0.0611   -4.5167   44.5690 C   0  0  0  0  0  0  0  0  0  0  0  0
   -0.3532   -3.7540   43.5517 N   0  0  0  0  0  0  0  0  0  0  0  0
   -0.3348   -1.0111   41.6509 C   0  0  1  0  0  0  0  0  0  0  0  0
    3.7069   -3.9467   43.8679 C   0  0  0  0  0  0  0  0  0  0  0  0
    4.2465   -4.7705   44.7538 N   0  0  0  0  0  0  0  0  0  0  0  0
    3.5398   -5.5561   45.6138 C   0  0  0  0  0  0  0  0  0  0  0  0
    2.1673   -5.5065   45.5404 N   0  0  0  0  0  0  0  0  0  0  0  0
    4.0499   -6.2606   46.6169 N   0  0  0  0  0  0  0  0  0  0  0  0
    0.8941   -0.2104   41.6917 C   0  0  0  0  0  0  0  0  0  0  0  0
    1.6226   -0.0674   42.8998 C   0  0  0  0  0  0  0  0  0  0  0  0
    2.9022    0.6059   42.8396 C   0  0  0  0  0  0  0  0  0  0  0  0
    4.0841   -0.2202   42.9786 C   0  0  2  0  0  0  0  0  0  0  0  0
    4.1441   -1.4865   43.4613 C   0  0  0  0  0  0  0  0  0  0  0  0
    5.3670   -1.5807   43.7640 C   0  0  0  0  0  0  0  0  0  0  0  0
    5.2234    0.4809   42.9817 F   0  0  0  0  0  0  0  0  0  0  0  0
    5.8816   -2.7052   44.5901 C   0  0  0  0  0  0  0  0  0  0  0  0
    4.3714   -2.7188   44.2492 C   0  0  2  0  0  0  0  0  0  0  0  0
   -1.5953   -0.3590   41.5269 C   0  0  1  0  0  0  0  0  0  0  0  0
   -1.6523    0.7949   41.3680 F   0  0  0  0  0  0  0  0  0  0  0  0
   -2.7245   -1.1674   41.4577 C   0  0  0  0  0  0  0  0  0  0  0  0
   -3.7822   -0.5760   40.7922 N   0  0  0  0  0  0  0  0  0  0  0  0
    6.3958   -0.7670   43.5141 C   0  0  0  0  0  0  0  0  0  0  0  0
    6.9289   -0.2153   44.6743 N   0  0  0  0  0  0  0  0  0  0  0  0
    6.9840   -1.0008   42.6245 O   0  0  0  0  0  0  0  0  0  0  0  0
  1  2  1  0
  8  2  1  6
 11 13  1  0
  8 14  1  0
 14 15  1  0
 15 16  2  0
 16 17  1  0
 17 18  1  0
 18 19  2  0
 17 20  1  1
 19 21  1  0
  9 22  1  0
 18 22  1  0
 22 21  1  6
  8 23  1  0
 23 24  1  6
 23 25  1  0
 25 26  1  0
 19 27  1  0
 27 28  1  0
 27 29  2  0
  5 12  1  0
 12 11  2  0
 11 10  1  0
 10  9  2  0
  9  4  1  0
  1  3  1  0
  3  4  2  0
  4  5  1  0
  5  6  2  0
  6  7  1  0
  7  1  2  0
M  END
$$$$
O14757_PocketFlow_idx-in-all-generaetd-693
     RDKit          3D

 15 16  0  0  0  0  0  0  0  0999 V2000
   -0.6395   -2.0713   41.4947 C   0  0  0  0  0  0  0  0  0  0  0  0
    0.6719   -2.2449   41.7518 C   0  0  0  0  0  0  0  0  0  0  0  0
    1.5951   -1.1948   41.6106 C   0  0  0  0  0  0  0  0  0  0  0  0
    2.9587   -1.3961   42.0240 C   0  0  0  0  0  0  0  0  0  0  0  0
    3.1652   -2.3460   43.1085 C   0  0  0  0  0  0  0  0  0  0  0  0
    2.2115   -3.3199   43.4243 C   0  0  0  0  0  0  0  0  0  0  0  0
    0.9094   -3.1578   42.8194 C   0  0  0  0  0  0  0  0  0  0  0  0
    4.3417   -2.5544   43.9004 C   0  0  0  0  0  0  0  0  0  0  0  0
    5.3849   -1.5937   43.9675 C   0  0  0  0  0  0  0  0  0  0  0  0
    4.5546   -3.7460   44.6143 C   0  0  0  0  0  0  0  0  0  0  0  0
    6.4878   -1.7352   44.8217 C   0  0  0  0  0  0  0  0  0  0  0  0
    6.6331   -2.8937   45.6105 C   0  0  0  0  0  0  0  0  0  0  0  0
    5.6614   -3.8524   45.5208 C   0  0  0  0  0  0  0  0  0  0  0  0
   -1.3142   -1.0176   41.5139 O   0  0  0  0  0  0  0  0  0  0  0  0
   -1.3400   -3.0917   40.9612 O   0  0  0  0  0  0  0  0  0  0  0  0
  1  2  1  0
  5  8  1  0
  1 14  2  0
  1 15  1  0
  2  3  2  0
  3  4  1  0
  4  5  2  0
  5  6  1  0
  6  7  2  0
  7  2  1  0
  8  9  2  0
  9 11  1  0
 11 12  2  0
 12 13  1  0
 13 10  2  0
 10  8  1  0
M  END
$$$$
O14757_PocketFlow_idx-in-all-generaetd-694
     RDKit          3D

 16 16  0  0  0  0  0  0  0  0999 V2000
   -0.6395   -2.0713   41.4947 C   0  0  0  0  0  0  0  0  0  0  0  0
    0.1859   -1.1027   41.5970 C   0  0  0  0  0  0  0  0  0  0  0  0
    1.5836   -1.3270   41.4670 C   0  0  0  0  0  0  0  0  0  0  0  0
   -0.2462   -3.3905   41.2409 C   0  0  0  0  0  0  0  0  0  0  0  0
    2.5675   -0.3473   41.7943 C   0  0  0  0  0  0  0  0  0  0  0  0
    3.8546   -0.6776   42.2362 C   0  0  0  0  0  0  0  0  0  0  0  0
    4.0126   -1.8382   43.0706 C   0  0  0  0  0  0  0  0  0  0  0  0
    5.0976   -2.0692   43.9469 C   0  0  0  0  0  0  0  0  0  0  0  0
    5.1390   -3.2028   44.7700 C   0  0  0  0  0  0  0  0  0  0  0  0
    6.1047   -3.3165   45.7848 C   0  0  0  0  0  0  0  0  0  0  0  0
    6.0993   -4.3551   46.7404 C   0  0  0  0  0  0  0  0  0  0  0  0
    6.9868   -4.3096   47.8760 C   0  0  0  0  0  0  0  0  0  0  0  0
    8.0840   -3.4813   47.7481 C   0  0  0  0  0  0  0  0  0  0  0  0
    8.2358   -2.5687   46.6761 C   0  0  0  0  0  0  0  0  0  0  0  0
    7.2767   -2.4857   45.6736 C   0  0  0  0  0  0  0  0  0  0  0  0
   -1.3381   -4.5794   41.4509 Cl  0  0  0  0  0  0  0  0  0  0  0  0
  1  2  1  0
  2  3  2  3
  1  4  1  0
  3  5  1  0
  5  6  1  0
  6  7  1  0
  7  8  2  3
  8  9  1  0
  4 16  1  0
  9 10  1  0
 10 11  2  0
 11 12  1  0
 12 13  2  0
 13 14  1  0
 14 15  2  0
 15 10  1  0
M  END
$$$$
O14757_PocketFlow_idx-in-all-generaetd-695
     RDKit          3D

 35 36  0  0  0  0  0  0  0  0999 V2000
   -0.6395   -2.0713   41.4947 C   0  0  0  0  0  0  0  0  0  0  0  0
    0.1859   -1.1027   41.5970 C   0  0  0  0  0  0  0  0  0  0  0  0
    1.5858   -1.4430   41.9548 C   0  0  0  0  0  0  0  0  0  0  0  0
   -0.3290   -3.4217   41.4987 C   0  0  0  0  0  0  0  0  0  0  0  0
    2.5755   -0.4652   42.0743 C   0  0  0  0  0  0  0  0  0  0  0  0
    3.8590   -0.7417   42.5241 C   0  0  0  0  0  0  0  0  0  0  0  0
    4.0941   -1.9517   43.2900 C   0  0  0  0  0  0  0  0  0  0  0  0
    5.3279   -2.2655   43.8874 C   0  0  0  0  0  0  0  0  0  0  0  0
    5.4548   -2.0891   45.2253 C   0  0  0  0  0  0  0  0  0  0  0  0
    6.4062   -2.9099   45.9714 C   0  0  0  0  0  0  0  0  0  0  0  0
    6.0576   -3.8539   46.9097 C   0  0  0  0  0  0  0  0  0  0  0  0
    0.9874   -3.7861   41.9091 C   0  0  0  0  0  0  0  0  0  0  0  0
    1.9034   -2.7613   42.1179 C   0  0  0  0  0  0  0  0  0  0  0  0
    3.1646   -3.0200   42.8239 C   0  0  0  0  0  0  0  0  0  0  0  0
    4.6732   -3.7827   47.3335 C   0  0  0  0  0  0  0  0  0  0  0  0
    4.7466    0.2036   42.7139 F   0  0  0  0  0  0  0  0  0  0  0  0
   -2.0821   -1.7253   41.0772 C   0  0  0  0  0  0  0  0  0  0  0  0
   -2.5201   -0.5744   41.4124 O   0  0  0  0  0  0  0  0  0  0  0  0
   -2.9359   -2.6721   40.7733 O   0  0  0  0  0  0  0  0  0  0  0  0
    3.7577   -3.9499   46.3657 C   0  0  0  0  0  0  0  0  0  0  0  0
    3.8715   -4.7680   45.2613 C   0  0  0  0  0  0  0  0  0  0  0  0
    2.7820   -5.7829   45.0716 C   0  0  0  0  0  0  0  0  0  0  0  0
    2.3344   -6.3032   46.1270 C   0  0  0  0  0  0  0  0  0  0  0  0
    1.0057   -6.9930   45.8372 C   0  0  0  0  0  0  0  0  0  0  0  0
    0.2980   -7.6832   46.7206 C   0  0  0  0  0  0  0  0  0  0  0  0
   -1.1326   -7.6650   46.5817 C   0  0  0  0  0  0  0  0  0  0  0  0
   -1.5817   -8.4936   45.4046 C   0  0  0  0  0  0  0  0  0  0  0  0
   -2.6061   -7.7228   44.6399 C   0  0  0  0  0  0  0  0  0  0  0  0
   -3.6179   -8.6629   44.0372 C   0  0  0  0  0  0  0  0  0  0  0  0
   -4.8951   -8.2517   44.5404 C   0  0  2  0  0  0  0  0  0  0  0  0
   -5.7089   -7.8949   43.7042 O   0  0  0  0  0  0  0  0  0  0  0  0
   -6.9159   -7.2749   44.0406 C   0  0  0  0  0  0  0  0  0  0  0  0
   -4.9207   -7.3578   45.7303 C   0  0  0  0  0  0  0  0  0  0  0  0
    6.9970   -4.5768   47.6796 C   0  0  0  0  0  0  0  0  0  0  0  0
    6.5517   -5.8435   48.9047 Br  0  0  0  0  0  0  0  0  0  0  0  0
  7  8  1  0
  8  9  1  0
  9 10  1  0
 10 11  2  3
 11 15  1  0
  6 16  1  0
  1 17  1  0
 17 18  2  0
 17 19  1  0
 15 20  1  0
 20 21  1  0
 21 22  1  0
 22 23  1  0
 23 24  1  0
 24 25  1  0
 25 26  1  0
 26 27  1  0
 27 28  1  0
 28 29  1  0
 29 30  1  0
 30 31  1  0
 31 32  1  0
 30 33  1  1
 11 34  1  0
 34 35  1  0
  3  5  2  0
  5  6  1  0
  6  7  2  0
  7 14  1  0
 14 13  2  0
  1  2  2  0
  2  3  1  0
  3 13  1  0
 13 12  1  0
 12  4  2  0
  4  1  1  0
M  END
$$$$
O14757_PocketFlow_idx-in-all-generaetd-696
     RDKit          3D

 15 15  0  0  0  0  0  0  0  0999 V2000
   -0.6395   -2.0713   41.4947 C   0  0  0  0  0  0  0  0  0  0  0  0
    0.1859   -1.1027   41.5970 C   0  0  0  0  0  0  0  0  0  0  0  0
    1.5836   -1.3270   41.4670 C   0  0  0  0  0  0  0  0  0  0  0  0
   -0.2462   -3.3905   41.2409 C   0  0  0  0  0  0  0  0  0  0  0  0
    2.0075   -2.6977   41.3341 C   0  0  0  0  0  0  0  0  0  0  0  0
    1.0655   -3.6470   41.1373 C   0  0  0  0  0  0  0  0  0  0  0  0
    2.3959   -0.2861   41.8065 N   0  0  0  0  0  0  0  0  0  0  0  0
    3.4912   -0.4740   42.5698 C   0  0  0  0  0  0  0  0  0  0  0  0
    3.8439   -1.5407   43.3381 C   0  0  0  0  0  0  0  0  0  0  0  0
    4.9995   -1.4135   44.1376 C   0  0  0  0  0  0  0  0  0  0  0  0
    5.7560   -0.2792   43.8515 C   0  0  0  0  0  0  0  0  0  0  0  0
    4.4441    0.5489   42.6731 F   0  0  0  0  0  0  0  0  0  0  0  0
    6.7667   -0.3431   44.7679 F   0  0  0  0  0  0  0  0  0  0  0  0
    6.3393   -0.1906   42.8189 F   0  0  0  0  0  0  0  0  0  0  0  0
   -2.3974   -1.8981   41.5537 Cl  0  0  0  0  0  0  0  0  0  0  0  0
  3  7  1  0
  7  8  1  0
  8  9  1  0
  9 10  2  3
 10 11  1  0
  8 12  1  0
 11 13  1  0
 11 14  1  0
  1 15  1  0
  1  2  2  0
  2  3  1  0
  3  5  2  0
  5  6  1  0
  6  4  2  0
  4  1  1  0
M  END
$$$$
O14757_PocketFlow_idx-in-all-generaetd-697
     RDKit          3D

 10 10  0  0  0  0  0  0  0  0999 V2000
    0.2881   -2.9111   42.4378 C   0  0  0  0  0  0  0  0  0  0  0  0
   -0.0650   -2.5021   41.5798 C   0  0  0  0  0  0  0  0  0  0  0  0
    0.4265   -4.3024   42.9098 C   0  0  0  0  0  0  0  0  0  0  0  0
    0.9679   -4.7232   44.0725 C   0  0  0  0  0  0  0  0  0  0  0  0
    1.8647   -3.7642   44.6952 C   0  0  0  0  0  0  0  0  0  0  0  0
    2.1891   -2.5834   44.1119 C   0  0  1  0  0  0  0  0  0  0  0  0
    3.2676   -1.9151   44.4864 C   0  0  0  0  0  0  0  0  0  0  0  0
    1.4516   -2.1585   43.0326 C   0  0  0  0  0  0  0  0  0  0  0  0
    3.9636   -0.9117   43.6189 C   0  0  0  0  0  0  0  0  0  0  0  0
    5.2929   -0.4571   43.9866 C   0  0  0  0  0  0  0  0  0  0  0  0
  1  2  2  0
  1  3  1  0
  3  4  1  0
  4  5  1  0
  6  5  1  6
  6  7  1  0
  1  8  1  0
  6  8  1  0
  7  9  2  3
  9 10  1  0
M  END
$$$$
O14757_PocketFlow_idx-in-all-generaetd-698
     RDKit          3D

  5  4  0  0  0  0  0  0  0  0999 V2000
    0.2881   -2.9111   42.4378 C   0  0  0  0  0  0  0  0  0  0  0  0
    0.9507   -2.0592   42.5168 F   0  0  0  0  0  0  0  0  0  0  0  0
    0.3132   -3.5934   43.5813 F   0  0  0  0  0  0  0  0  0  0  0  0
   -1.0515   -2.6184   42.2507 F   0  0  0  0  0  0  0  0  0  0  0  0
    0.4977   -3.9411   41.4862 F   0  0  0  0  0  0  0  0  0  0  0  0
  1  2  1  0
  1  3  1  0
  1  4  1  0
  1  5  1  0
M  END
$$$$
O14757_PocketFlow_idx-in-all-generaetd-699
     RDKit          3D

  9  9  0  0  0  0  0  0  0  0999 V2000
   -0.6395   -2.0713   41.4947 C   0  0  0  0  0  0  0  0  0  0  0  0
    0.1859   -1.1027   41.5970 C   0  0  0  0  0  0  0  0  0  0  0  0
   -0.2410   -3.3795   41.5297 C   0  0  0  0  0  0  0  0  0  0  0  0
    1.6125   -1.3642   41.8466 C   0  0  0  0  0  0  0  0  0  0  0  0
    1.9568   -2.7213   42.1561 C   0  0  0  0  0  0  0  0  0  0  0  0
    0.9568   -3.6932   42.0424 C   0  0  0  0  0  0  0  0  0  0  0  0
    2.5419   -0.3107   42.1030 C   0  0  0  0  0  0  0  0  0  0  0  0
    3.8498   -0.5462   42.5716 C   0  0  0  0  0  0  0  0  0  0  0  0
    4.1597   -1.6999   43.3407 C   0  0  0  0  0  0  0  0  0  0  0  0
  4  7  1  0
  7  8  1  0
  8  9  2  0
  1  2  2  0
  2  4  1  0
  4  5  2  0
  5  6  1  0
  6  3  2  0
  3  1  1  0
M  END
$$$$
O14757_PocketFlow_idx-in-all-generaetd-700
     RDKit          3D

 20 21  0  0  0  0  0  0  0  0999 V2000
   -0.6395   -2.0713   41.4947 C   0  0  0  0  0  0  0  0  0  0  0  0
    0.6719   -2.2449   41.7518 C   0  0  0  0  0  0  0  0  0  0  0  0
    1.3815   -1.6359   42.7231 C   0  0  0  0  0  0  0  0  0  0  0  0
    2.9063   -1.6298   42.5164 C   0  0  0  0  0  0  0  0  0  0  0  0
    3.6528   -2.2927   43.5664 C   0  0  0  0  0  0  0  0  0  0  0  0
    4.8051   -1.7109   44.1068 C   0  0  0  0  0  0  0  0  0  0  0  0
    5.4926   -2.2969   45.1349 C   0  0  0  0  0  0  0  0  0  0  0  0
    4.9875   -3.2046   45.8469 C   0  0  0  0  0  0  0  0  0  0  0  0
    3.7582   -3.8490   45.3772 C   0  0  0  0  0  0  0  0  0  0  0  0
    3.0467   -3.1828   44.4689 C   0  0  0  0  0  0  0  0  0  0  0  0
   -1.5423   -3.1093   41.1359 C   0  0  0  0  0  0  0  0  0  0  0  0
    5.6828   -3.8385   47.0364 C   0  0  0  0  0  0  0  0  0  0  0  0
    6.5583   -3.1031   47.7939 C   0  0  0  0  0  0  0  0  0  0  0  0
    7.6252   -3.7907   48.3940 C   0  0  1  0  0  0  0  0  0  0  0  0
    8.6856   -3.0976   49.0099 C   0  0  0  0  0  0  0  0  0  0  0  0
    7.5931   -5.2315   48.4297 C   0  0  0  0  0  0  0  0  0  0  0  0
    6.9466   -5.7567   49.1157 C   0  0  0  0  0  0  0  0  0  0  0  0
    5.3832   -5.8661   48.5564 C   0  0  0  0  0  0  0  0  0  0  0  0
    5.0523   -5.1388   47.4501 C   0  0  0  0  0  0  0  0  0  0  0  0
    9.4674   -2.2333   48.2534 C   0  0  0  0  0  0  0  0  0  0  0  0
  1  2  1  0
  2  3  1  0
  3  4  1  0
  4  5  1  0
  1 11  1  0
  8 12  1  0
 12 13  2  0
 13 14  1  0
 14 15  1  1
 14 16  1  0
 16 17  2  0
 17 18  1  0
 12 19  1  0
 18 19  1  0
 15 20  1  0
  5  6  2  0
  6  7  1  0
  7  8  2  0
  8  9  1  0
  9 10  2  0
 10  5  1  0
M  END
$$$$
O14757_PocketFlow_idx-in-all-generaetd-701
     RDKit          3D

 23 23  0  0  0  0  0  0  0  0999 V2000
   -0.6395   -2.0713   41.4947 C   0  0  0  0  0  0  0  0  0  0  0  0
    0.6719   -2.2449   41.7518 C   0  0  1  0  0  0  0  0  0  0  0  0
    1.1287   -3.3339   42.4778 C   0  0  0  0  0  0  0  0  0  0  0  0
    2.4060   -3.3351   43.0418 C   0  0  0  0  0  0  0  0  0  0  0  0
    2.8579   -4.2212   44.0684 C   0  0  0  0  0  0  0  0  0  0  0  0
    1.8801   -5.1822   44.5266 C   0  0  0  0  0  0  0  0  0  0  0  0
    0.5684   -5.0671   44.0172 C   0  0  0  0  0  0  0  0  0  0  0  0
    0.1857   -4.1701   43.1046 C   0  0  0  0  0  0  0  0  0  0  0  0
   -1.1528   -0.7109   41.1824 C   0  0  0  0  0  0  0  0  0  0  0  0
    1.6267   -1.4379   41.0808 C   0  0  0  0  0  0  0  0  0  0  0  0
    4.1889   -4.1539   44.6236 C   0  0  0  0  0  0  0  0  0  0  0  0
    4.4500   -4.6677   45.8790 C   0  0  0  0  0  0  0  0  0  0  0  0
    5.6233   -4.2470   46.5953 C   0  0  0  0  0  0  0  0  0  0  0  0
    6.4878   -3.2568   46.0667 C   0  0  0  0  0  0  0  0  0  0  0  0
    5.9838   -2.4697   44.9605 C   0  0  0  0  0  0  0  0  0  0  0  0
    4.9552   -3.0101   44.2089 C   0  0  1  0  0  0  0  0  0  0  0  0
    4.6809   -2.3797   43.0972 O   0  0  0  0  0  0  0  0  0  0  0  0
    5.6292   -3.5499   43.5093 O   0  0  0  0  0  0  0  0  0  0  0  0
    4.5077   -5.6451   44.2937 O   0  0  0  0  0  0  0  0  0  0  0  0
    3.4864   -5.0494   46.6442 O   0  0  0  0  0  0  0  0  0  0  0  0
   -2.5858   -0.6373   41.1275 C   0  0  0  0  0  0  0  0  0  0  0  0
    4.7980   -0.9914   43.2093 C   0  0  0  0  0  0  0  0  0  0  0  0
    4.8270   -0.0946   43.8795 Br  0  0  0  0  0  0  0  0  0  0  0  0
  1  2  1  0
  1  9  2  3
  2 10  1  6
  5 11  1  0
 11 12  2  3
 12 13  1  0
 13 14  2  3
 14 15  1  0
 15 16  1  0
 16 17  1  0
 16 18  1  6
 11 19  1  0
 12 20  1  0
  9 21  1  0
 17 22  1  0
 22 23  1  0
  2  3  1  0
  3  4  2  0
  4  5  1  0
  5  6  2  0
  6  7  1  0
  7  8  2  0
  8  3  1  0
M  END
$$$$
O14757_PocketFlow_idx-in-all-generaetd-702
     RDKit          3D

 35 37  0  0  0  0  0  0  0  0999 V2000
   -0.8794   -1.9236   41.9357 O   0  0  0  0  0  0  0  0  0  0  0  0
    0.3070   -1.6014   41.6735 C   0  0  0  0  0  0  0  0  0  0  0  0
    0.8161   -0.2851   41.6101 C   0  0  0  0  0  0  0  0  0  0  0  0
    2.1460   -0.1018   41.4986 C   0  0  0  0  0  0  0  0  0  0  0  0
    2.9914   -0.5434   42.3852 C   0  0  0  0  0  0  0  0  0  0  0  0
    4.3961   -0.1599   42.3168 C   0  0  0  0  0  0  0  0  0  0  0  0
    5.2167   -0.7218   43.3885 C   0  0  0  0  0  0  0  0  0  0  0  0
    4.8331   -1.5703   44.3674 C   0  0  0  0  0  0  0  0  0  0  0  0
    3.5372   -2.1472   44.1462 C   0  0  0  0  0  0  0  0  0  0  0  0
    2.6969   -1.6723   43.2135 C   0  0  0  0  0  0  0  0  0  0  0  0
    1.0671   -2.7233   41.4178 N   0  0  0  0  0  0  0  0  0  0  0  0
    5.7469   -2.0535   45.3776 C   0  0  0  0  0  0  0  0  0  0  0  0
    5.3796   -3.1476   46.2343 C   0  0  0  0  0  0  0  0  0  0  0  0
    6.3531   -3.5406   47.1812 C   0  0  0  0  0  0  0  0  0  0  0  0
    5.9515   -4.5555   48.1819 C   0  0  0  0  0  0  0  0  0  0  0  0
    6.8253   -4.8167   49.2235 C   0  0  0  0  0  0  0  0  0  0  0  0
    8.0681   -4.2450   49.3269 C   0  0  0  0  0  0  0  0  0  0  0  0
    8.5030   -3.4042   48.2944 C   0  0  0  0  0  0  0  0  0  0  0  0
    7.6440   -3.0040   47.2379 C   0  0  0  0  0  0  0  0  0  0  0  0
    7.0593   -1.5487   45.3617 C   0  0  0  0  0  0  0  0  0  0  0  0
    7.9806   -2.0108   46.2853 C   0  0  0  0  0  0  0  0  0  0  0  0
    9.3436   -1.4027   46.3244 C   0  0  0  0  0  0  0  0  0  0  0  0
    9.5704   -0.2928   46.7586 O   0  0  0  0  0  0  0  0  0  0  0  0
   10.3397   -2.1516   45.6847 O   0  0  0  0  0  0  0  0  0  0  0  0
    0.2333   -3.8959   41.6201 C   0  0  0  0  0  0  0  0  0  0  0  0
   -0.0920   -4.4573   42.9696 C   0  0  0  0  0  0  0  0  0  0  0  0
    1.0819   -4.0907   43.7901 C   0  0  0  0  0  0  0  0  0  0  0  0
    0.9985   -4.6601   45.1567 C   0  0  0  0  0  0  0  0  0  0  0  0
   -0.0792   -4.4121   45.9255 C   0  0  0  0  0  0  0  0  0  0  0  0
   -0.2094   -5.3357   47.0887 C   0  0  0  0  0  0  0  0  0  0  0  0
    2.0246   -5.5093   45.5758 C   0  0  0  0  0  0  0  0  0  0  0  0
    3.2740   -5.5933   44.8378 C   0  0  0  0  0  0  0  0  0  0  0  0
   -0.6660   -6.6487   46.8036 C   0  0  0  0  0  0  0  0  0  0  0  0
   -1.6055   -6.8194   46.2534 O   0  0  0  0  0  0  0  0  0  0  0  0
   -1.8059   -8.1055   45.5860 C   0  0  0  0  0  0  0  0  0  0  0  0
  1  2  2  0
  2  3  1  0
  3  4  1  0
  4  5  1  0
  2 11  1  0
  8 12  1  0
 21 22  1  0
 22 23  2  0
 22 24  1  0
 11 25  1  0
 25 26  1  0
 26 27  2  3
 27 28  1  0
 28 29  2  3
 29 30  1  0
 28 31  1  0
 31 32  1  0
 30 33  1  0
 33 34  1  0
 34 35  1  0
 14 15  2  0
 15 16  1  0
 16 17  2  0
 17 18  1  0
 18 19  2  0
  5  6  2  0
  6  7  1  0
  7  8  2  0
  8  9  1  0
  9 10  2  0
 10  5  1  0
 12 13  2  0
 13 14  1  0
 14 19  1  0
 19 21  1  0
 21 20  2  0
 20 12  1  0
M  END
$$$$
O14757_PocketFlow_idx-in-all-generaetd-703
     RDKit          3D

 29 32  0  0  0  0  0  0  0  0999 V2000
   -0.6395   -2.0713   41.4947 C   0  0  0  0  0  0  0  0  0  0  0  0
    0.1859   -1.1027   41.5970 C   0  0  0  0  0  0  0  0  0  0  0  0
    1.5836   -1.3270   41.4670 C   0  0  0  0  0  0  0  0  0  0  0  0
   -0.2462   -3.3905   41.2409 C   0  0  0  0  0  0  0  0  0  0  0  0
    2.5788   -0.3160   41.7511 C   0  0  0  0  0  0  0  0  0  0  0  0
    3.8805   -0.6481   42.0316 C   0  0  2  0  0  0  0  0  0  0  0  0
    4.1140   -1.7786   42.9289 C   0  0  2  0  0  0  0  0  0  0  0  0
    3.0425   -2.6868   43.1417 C   0  0  2  0  0  0  0  0  0  0  0  0
    1.8197   -2.3893   42.5141 C   0  0  0  0  0  0  0  0  0  0  0  0
    0.9097   -3.6955   42.2318 C   0  0  0  0  0  0  0  0  0  0  0  0
    3.1454   -3.6849   44.1519 C   0  0  0  0  0  0  0  0  0  0  0  0
    4.3476   -3.9476   44.8238 C   0  0  0  0  0  0  0  0  0  0  0  0
    5.2745   -2.9157   44.9614 C   0  0  1  0  0  0  0  0  0  0  0  0
    6.4285   -3.0049   45.8263 C   0  0  0  0  0  0  0  0  0  0  0  0
    7.4305   -1.9703   45.7626 C   0  0  0  0  0  0  0  0  0  0  0  0
    5.2336   -1.7830   44.0061 C   0  0  0  0  0  0  0  0  0  0  0  0
    8.5135   -2.0691   46.6046 C   0  0  0  0  0  0  0  0  0  0  0  0
    8.7421   -3.0850   47.4724 C   0  0  0  0  0  0  0  0  0  0  0  0
    7.6518   -4.0848   47.5519 C   0  0  0  0  0  0  0  0  0  0  0  0
    6.5828   -4.0002   46.7351 C   0  0  0  0  0  0  0  0  0  0  0  0
   -2.1380   -1.8000   41.4409 C   0  0  0  0  0  0  0  0  0  0  0  0
   -2.8134   -2.7598   41.0974 F   0  0  0  0  0  0  0  0  0  0  0  0
   -2.3941   -0.7125   40.6305 F   0  0  0  0  0  0  0  0  0  0  0  0
    9.7581   -0.8129   46.4571 Cl  0  0  0  0  0  0  0  0  0  0  0  0
    4.9471    0.4120   42.1106 C   0  0  0  0  0  0  0  0  0  0  0  0
    7.8455   -5.1712   48.5229 C   0  0  0  0  0  0  0  0  0  0  0  0
    7.1160   -5.2314   49.3793 O   0  0  0  0  0  0  0  0  0  0  0  0
    9.0121   -5.7009   48.5502 O   0  0  0  0  0  0  0  0  0  0  0  0
    2.1350   -4.4669   44.3398 O   0  0  0  0  0  0  0  0  0  0  0  0
  3  5  1  0
  5  6  1  0
  6  7  1  0
  7  8  1  0
  8  9  1  0
  8 11  1  1
 11 12  1  0
 13 14  1  6
  7 16  1  1
 13 16  1  0
  1 21  1  0
 21 22  1  0
 21 23  1  0
 17 24  1  0
  6 25  1  1
 19 26  1  0
 26 27  2  0
 26 28  1  0
 11 29  2  0
 13 12  1  0
 14 15  2  0
 15 17  1  0
 17 18  2  0
 18 19  1  0
 19 20  2  0
 20 14  1  0
  1  2  2  0
  2  3  1  0
  3  9  2  0
  9 10  1  0
 10  4  2  0
  4  1  1  0
M  END
$$$$
O14757_PocketFlow_idx-in-all-generaetd-704
     RDKit          3D

 21 22  0  0  0  0  0  0  0  0999 V2000
   -0.6395   -2.0713   41.4947 C   0  0  0  0  0  0  0  0  0  0  0  0
    0.1859   -1.1027   41.5970 C   0  0  0  0  0  0  0  0  0  0  0  0
    1.5836   -1.3270   41.4670 C   0  0  0  0  0  0  0  0  0  0  0  0
   -0.2462   -3.3905   41.2409 C   0  0  0  0  0  0  0  0  0  0  0  0
    2.0075   -2.6977   41.3341 C   0  0  0  0  0  0  0  0  0  0  0  0
    1.0655   -3.6470   41.1373 C   0  0  0  0  0  0  0  0  0  0  0  0
    2.5048   -0.3416   41.6826 N   0  0  0  0  0  0  0  0  0  0  0  0
    3.5415   -0.3915   42.5684 C   0  0  2  0  0  0  0  0  0  0  0  0
    4.7706   -0.3418   42.3930 C   0  0  0  0  0  0  0  0  0  0  0  0
    5.6566   -0.4180   43.5713 C   0  0  0  0  0  0  0  0  0  0  0  0
    4.9677   -0.8517   44.7404 C   0  0  0  0  0  0  0  0  0  0  0  0
    3.3424   -0.9236   43.9921 C   0  0  0  0  0  0  0  0  0  0  0  0
   -2.0251   -1.8076   41.5579 O   0  0  0  0  0  0  0  0  0  0  0  0
   -2.7074   -1.3354   40.4706 C   0  0  2  0  0  0  0  0  0  0  0  0
    5.2619   -1.2801   46.2072 Cl  0  0  0  0  0  0  0  0  0  0  0  0
   -3.4507   -0.1574   40.7481 C   0  0  0  0  0  0  0  0  0  0  0  0
   -3.3421   -2.2715   39.7125 C   0  0  2  0  0  0  0  0  0  0  0  0
   -2.9176   -3.5126   39.7053 F   0  0  0  0  0  0  0  0  0  0  0  0
   -3.8716   -1.6873   38.1961 Cl  0  0  0  0  0  0  0  0  0  0  0  0
   -4.6158    0.1185   40.5171 O   0  0  0  0  0  0  0  0  0  0  0  0
   -2.6216    0.9961   41.1019 O   0  0  0  0  0  0  0  0  0  0  0  0
  3  7  1  0
  8  7  1  6
  8  9  1  0
  9 10  2  0
 10 11  1  0
  8 12  1  0
 11 12  2  0
  1 13  1  0
 14 13  1  1
 11 15  1  0
 14 16  1  0
 14 17  1  0
 17 18  1  6
 17 19  1  0
 16 20  2  0
 16 21  1  0
  1  2  2  0
  2  3  1  0
  3  5  2  0
  5  6  1  0
  6  4  2  0
  4  1  1  0
M  END
$$$$
O14757_PocketFlow_idx-in-all-generaetd-705
     RDKit          3D

 35 38  0  0  0  0  0  0  0  0999 V2000
   -0.8794   -1.9236   41.9357 O   0  0  0  0  0  0  0  0  0  0  0  0
    0.3182   -2.2442   41.7073 C   0  0  0  0  0  0  0  0  0  0  0  0
    0.6331   -3.7049   41.7547 C   0  0  0  0  0  0  0  0  0  0  0  0
    1.2007   -1.3809   41.0774 N   0  0  0  0  0  0  0  0  0  0  0  0
    1.2445   -0.0440   41.3839 C   0  0  0  0  0  0  0  0  0  0  0  0
    0.6990   -3.9925   43.1609 C   0  0  0  0  0  0  0  0  0  0  0  0
    0.3068   -5.0961   43.8559 C   0  0  0  0  0  0  0  0  0  0  0  0
    0.5836   -5.4171   45.1723 C   0  0  0  0  0  0  0  0  0  0  0  0
    0.9459   -4.2945   45.9931 C   0  0  0  0  0  0  0  0  0  0  0  0
    1.3004   -3.0980   45.3020 C   0  0  0  0  0  0  0  0  0  0  0  0
    1.2027   -2.9127   43.9962 C   0  0  0  0  0  0  0  0  0  0  0  0
    0.1433   -6.6623   45.7654 C   0  0  0  0  0  0  0  0  0  0  0  0
   -1.0173   -7.1016   45.4096 N   0  0  0  0  0  0  0  0  0  0  0  0
   -1.7423   -7.9022   46.2273 C   0  0  0  0  0  0  0  0  0  0  0  0
   -1.3904   -8.0830   47.5788 C   0  0  0  0  0  0  0  0  0  0  0  0
   -0.0528   -7.7361   47.8980 C   0  0  0  0  0  0  0  0  0  0  0  0
    0.7387   -7.0663   47.0414 C   0  0  0  0  0  0  0  0  0  0  0  0
   -3.0343   -8.3502   45.7285 C   0  0  0  0  0  0  0  0  0  0  0  0
   -3.2974   -8.3649   44.4810 C   0  0  0  0  0  0  0  0  0  0  0  0
   -4.5468   -8.8093   43.9158 C   0  0  0  0  0  0  0  0  0  0  0  0
   -5.4439   -9.3341   44.8069 C   0  0  0  0  0  0  0  0  0  0  0  0
   -5.2264   -9.2674   46.1946 C   0  0  0  0  0  0  0  0  0  0  0  0
   -4.0109   -8.8006   46.6923 C   0  0  0  0  0  0  0  0  0  0  0  0
   -4.7818   -8.7525   42.4939 C   0  0  0  0  0  0  0  0  0  0  0  0
   -4.4668   -7.5677   41.8605 C   0  0  0  0  0  0  0  0  0  0  0  0
   -5.6730   -9.6086   41.8983 C   0  0  0  0  0  0  0  0  0  0  0  0
   -6.0897   -9.5068   40.5695 C   0  0  0  0  0  0  0  0  0  0  0  0
   -5.0468   -7.3141   40.5575 C   0  0  0  0  0  0  0  0  0  0  0  0
   -5.7853   -8.3520   39.9613 C   0  0  0  0  0  0  0  0  0  0  0  0
    2.6568    0.4535   41.5602 C   0  0  0  0  0  0  0  0  0  0  0  0
    3.2996    0.0652   42.8787 C   0  0  0  0  0  0  0  0  0  0  0  0
    4.7573    0.1798   42.8732 C   0  0  0  0  0  0  0  0  0  0  0  0
    5.3685   -0.6580   43.8751 C   0  0  0  0  0  0  0  0  0  0  0  0
    4.7952   -1.4780   44.7765 C   0  0  0  0  0  0  0  0  0  0  0  0
    5.5895   -2.1138   45.7262 C   0  0  0  0  0  0  0  0  0  0  0  0
  1  2  2  0
  2  3  1  0
  2  4  1  0
  4  5  1  0
  3  6  1  0
  8 12  1  0
 14 18  1  0
 20 24  1  0
  5 30  1  0
 30 31  1  0
 31 32  2  3
 32 33  1  0
 33 34  2  3
 34 35  1  0
 12 13  2  0
 13 14  1  0
 14 15  2  0
 15 16  1  0
 16 17  2  0
 17 12  1  0
 24 25  2  0
 25 28  1  0
 28 29  2  0
 29 27  1  0
 27 26  2  0
 26 24  1  0
 18 19  2  0
 19 20  1  0
 20 21  2  0
 21 22  1  0
 22 23  2  0
 23 18  1  0
  6  7  2  0
  7  8  1  0
  8  9  2  0
  9 10  1  0
 10 11  2  0
 11  6  1  0
M  END
$$$$
O14757_PocketFlow_idx-in-all-generaetd-706
     RDKit          3D

 23 26  0  0  0  0  0  0  0  0999 V2000
    0.2881   -2.9111   42.4378 C   0  0  0  0  0  0  0  0  0  0  0  0
    1.3023   -2.0648   42.1981 C   0  0  0  0  0  0  0  0  0  0  0  0
    2.5313   -2.2887   42.6989 C   0  0  0  0  0  0  0  0  0  0  0  0
    3.5918   -1.3644   42.5325 C   0  0  0  0  0  0  0  0  0  0  0  0
    3.3299   -0.0611   42.1413 C   0  0  0  0  0  0  0  0  0  0  0  0
    0.5929   -4.0815   43.1930 C   0  0  0  0  0  0  0  0  0  0  0  0
    1.7551   -4.1680   43.9291 C   0  0  0  0  0  0  0  0  0  0  0  0
    2.7954   -3.2398   43.7094 C   0  0  0  0  0  0  0  0  0  0  0  0
    2.0499    0.2535   41.5975 C   0  0  0  0  0  0  0  0  0  0  0  0
    0.9906   -0.7068   41.6857 C   0  0  0  0  0  0  0  0  0  0  0  0
    1.9600   -5.3631   44.7848 C   0  0  0  0  0  0  0  0  0  0  0  0
    1.3836   -5.3977   45.9837 C   0  0  0  0  0  0  0  0  0  0  0  0
    0.4259   -6.5128   46.1712 C   0  0  2  0  0  0  0  0  0  0  0  0
   -0.8852   -6.1444   46.3871 C   0  0  0  0  0  0  0  0  0  0  0  0
   -1.9148   -7.2654   46.3827 C   0  0  1  0  0  0  0  0  0  0  0  0
   -1.4855   -8.4084   47.1693 C   0  0  2  0  0  0  0  0  0  0  0  0
   -0.0700   -8.7286   47.0070 C   0  0  0  0  0  0  0  0  0  0  0  0
    0.8707   -7.6383   46.9718 C   0  0  0  0  0  0  0  0  0  0  0  0
   -2.4723   -9.5451   47.0457 C   0  0  0  0  0  0  0  0  0  0  0  0
   -3.6118   -9.2218   46.5749 C   0  0  2  0  0  0  0  0  0  0  0  0
   -4.0146   -7.9539   46.2976 C   0  0  0  0  0  0  0  0  0  0  0  0
   -3.2268   -6.9346   46.2867 O   0  0  0  0  0  0  0  0  0  0  0  0
   -4.6195  -10.1878   46.3813 O   0  0  0  0  0  0  0  0  0  0  0  0
  7 11  1  0
 11 12  1  0
 13 12  1  1
 13 14  1  0
 15 14  1  1
 15 16  1  0
 16 17  1  6
 13 18  1  0
 17 18  1  0
 16 19  1  0
 19 20  1  0
 20 21  1  0
 15 22  1  0
 21 22  1  0
 20 23  1  1
  1  2  2  0
  3  8  2  0
  8  7  1  0
  7  6  2  0
  6  1  1  0
  2  3  1  0
  3  4  1  0
  4  5  2  0
  5  9  1  0
  9 10  2  0
 10  2  1  0
M  END
$$$$
O14757_PocketFlow_idx-in-all-generaetd-707
     RDKit          3D

 35 38  0  0  0  0  0  0  0  0999 V2000
   -0.6395   -2.0713   41.4947 C   0  0  0  0  0  0  0  0  0  0  0  0
    0.1859   -1.1027   41.5970 C   0  0  0  0  0  0  0  0  0  0  0  0
    1.5858   -1.4430   41.9548 C   0  0  2  0  0  0  0  0  0  0  0  0
    2.6622   -0.5501   42.0082 C   0  0  0  0  0  0  0  0  0  0  0  0
    3.8608   -0.8421   42.6622 C   0  0  2  0  0  0  0  0  0  0  0  0
    3.9713   -1.2358   43.8822 C   0  0  0  0  0  0  0  0  0  0  0  0
    4.4361   -2.6598   44.0585 C   0  0  0  0  0  0  0  0  0  0  0  0
    4.2194   -3.3118   45.3321 C   0  0  0  0  0  0  0  0  0  0  0  0
   -2.0193   -1.8758   41.1798 C   0  0  0  0  0  0  0  0  0  0  0  0
    5.0669   -3.0517   46.4429 C   0  0  0  0  0  0  0  0  0  0  0  0
    3.1386   -4.2826   45.4836 C   0  0  0  0  0  0  0  0  0  0  0  0
    3.2512   -5.5724   45.3102 C   0  0  0  0  0  0  0  0  0  0  0  0
    2.3320   -6.3650   44.9831 C   0  0  0  0  0  0  0  0  0  0  0  0
    6.2483   -3.6507   46.4467 C   0  0  0  0  0  0  0  0  0  0  0  0
    1.0226   -5.9317   44.7958 C   0  0  0  0  0  0  0  0  0  0  0  0
    0.7829   -4.5265   44.9152 C   0  0  0  0  0  0  0  0  0  0  0  0
    1.8430   -3.6351   45.1635 C   0  0  0  0  0  0  0  0  0  0  0  0
    7.4026   -2.8728   46.0607 C   0  0  0  0  0  0  0  0  0  0  0  0
    8.7388   -3.0504   46.5729 C   0  0  0  0  0  0  0  0  0  0  0  0
    8.9841   -4.2376   47.3143 C   0  0  0  0  0  0  0  0  0  0  0  0
    7.8593   -4.8911   47.8539 C   0  0  0  0  0  0  0  0  0  0  0  0
    6.6158   -4.6150   47.5264 C   0  0  0  0  0  0  0  0  0  0  0  0
   -0.0764   -6.8120   44.4864 C   0  0  0  0  0  0  0  0  0  0  0  0
   -0.5400   -7.7473   45.4549 N   0  0  0  0  0  0  0  0  0  0  0  0
   -1.8316   -8.1845   45.4603 C   0  0  0  0  0  0  0  0  0  0  0  0
   -2.1403   -9.1610   46.4191 C   0  0  0  0  0  0  0  0  0  0  0  0
   -0.9418   -9.3880   47.1524 C   0  0  0  0  0  0  0  0  0  0  0  0
    0.0531   -8.5255   46.5634 C   0  0  0  0  0  0  0  0  0  0  0  0
   -0.5206   -6.8816   43.3588 O   0  0  0  0  0  0  0  0  0  0  0  0
   -2.4334   -0.5503   41.1749 C   0  0  0  0  0  0  0  0  0  0  0  0
   -3.8063   -0.3008   40.8240 C   0  0  0  0  0  0  0  0  0  0  0  0
   -0.0761   -3.4133   41.6993 C   0  0  0  0  0  0  0  0  0  0  0  0
    1.7712   -2.8569   42.0034 C   0  0  0  0  0  0  0  0  0  0  0  0
    5.1083   -0.3264   42.0855 C   0  0  0  0  0  0  0  0  0  0  0  0
   -3.3829   -9.7846   46.7116 C   0  0  0  0  0  0  0  0  0  0  0  0
  1  2  1  0
  2  3  1  0
  3  4  1  6
  4  5  1  0
  5  6  1  0
  6  7  1  0
  7  8  1  0
  1  9  1  0
  8 10  2  3
  8 11  1  0
 10 14  1  0
 15 23  1  0
 23 24  1  0
 24 25  1  0
 25 26  2  0
 26 27  1  0
 24 28  1  0
 27 28  2  0
 23 29  2  0
  9 30  1  0
 30 31  2  0
  1 32  1  0
  3 33  1  0
 32 33  2  0
  5 34  1  1
 26 35  1  0
 14 18  2  0
 18 19  1  0
 19 20  2  0
 20 21  1  0
 21 22  2  0
 22 14  1  0
 11 12  2  0
 12 13  1  0
 13 15  2  0
 15 16  1  0
 16 17  2  0
 17 11  1  0
M  END
$$$$
O14757_PocketFlow_idx-in-all-generaetd-708
     RDKit          3D

 30 33  0  0  0  0  0  0  0  0999 V2000
   -0.6395   -2.0713   41.4947 C   0  0  0  0  0  0  0  0  0  0  0  0
    0.6719   -2.2449   41.7518 C   0  0  0  0  0  0  0  0  0  0  0  0
    1.1287   -3.3339   42.4778 C   0  0  0  0  0  0  0  0  0  0  0  0
    2.4060   -3.3351   43.0418 C   0  0  0  0  0  0  0  0  0  0  0  0
    3.2172   -2.1534   42.8728 C   0  0  0  0  0  0  0  0  0  0  0  0
    4.5365   -2.0523   43.4782 C   0  0  0  0  0  0  0  0  0  0  0  0
    4.7445   -2.2296   44.6043 C   0  0  0  0  0  0  0  0  0  0  0  0
    6.0373   -2.0327   45.2726 C   0  0  0  0  0  0  0  0  0  0  0  0
    6.4544   -2.8046   46.3771 C   0  0  0  0  0  0  0  0  0  0  0  0
    7.8179   -2.8264   46.8669 C   0  0  0  0  0  0  0  0  0  0  0  0
    8.6640   -1.8368   46.3288 C   0  0  0  0  0  0  0  0  0  0  0  0
    8.2085   -0.9691   45.3093 C   0  0  0  0  0  0  0  0  0  0  0  0
    7.0041   -1.1028   44.7719 C   0  0  0  0  0  0  0  0  0  0  0  0
    2.6118   -1.1808   42.0137 C   0  0  0  0  0  0  0  0  0  0  0  0
    1.4109   -1.1734   41.5128 C   0  0  0  0  0  0  0  0  0  0  0  0
   -1.3937   -1.0194   41.5008 N   0  0  0  0  0  0  0  0  0  0  0  0
   -2.7262   -1.0246   41.1227 C   0  0  0  0  0  0  0  0  0  0  0  0
   -3.1242   -2.1977   40.5205 C   0  0  0  0  0  0  0  0  0  0  0  0
   -1.4855   -3.0705   40.9583 N   0  0  0  0  0  0  0  0  0  0  0  0
   -3.4601    0.1153   41.0627 N   0  0  0  0  0  0  0  0  0  0  0  0
   10.0244   -1.6839   46.8951 C   0  0  0  0  0  0  0  0  0  0  0  0
   10.8946   -1.4554   46.3254 O   0  0  0  0  0  0  0  0  0  0  0  0
   10.0013   -1.4299   48.2798 O   0  0  0  0  0  0  0  0  0  0  0  0
    9.5754   -2.0218   49.2903 C   0  0  0  0  0  0  0  0  0  0  0  0
   10.5866   -2.4484   50.2397 C   0  0  0  0  0  0  0  0  0  0  0  0
   10.1081   -3.1092   51.4530 C   0  0  0  0  0  0  0  0  0  0  0  0
    8.6829   -3.3028   51.6232 C   0  0  0  0  0  0  0  0  0  0  0  0
    7.7430   -2.8711   50.6589 C   0  0  0  0  0  0  0  0  0  0  0  0
    8.3069   -2.2970   49.5854 C   0  0  0  0  0  0  0  0  0  0  0  0
    6.4947   -3.1133   50.8969 O   0  0  0  0  0  0  0  0  0  0  0  0
  1  2  1  0
  5  6  1  0
  6  7  2  3
  7  8  1  0
  1 16  2  0
 16 17  1  0
 17 18  2  0
  1 19  1  0
 18 19  1  0
 17 20  1  0
 11 21  1  0
 21 22  2  0
 21 23  1  0
 23 24  1  0
 28 30  1  0
 24 25  2  0
 25 26  1  0
 26 27  2  0
 27 28  1  0
 28 29  2  0
 29 24  1  0
  2  3  2  0
  3  4  1  0
  4  5  2  0
  5 14  1  0
 14 15  2  0
 15  2  1  0
  8  9  2  0
  9 10  1  0
 10 11  2  0
 11 12  1  0
 12 13  2  0
 13  8  1  0
M  END
$$$$
O14757_PocketFlow_idx-in-all-generaetd-709
     RDKit          3D

 24 26  0  0  0  0  0  0  0  0999 V2000
   -0.6395   -2.0713   41.4947 C   0  0  0  0  0  0  0  0  0  0  0  0
   -0.2671   -3.2464   41.6546 C   0  0  0  0  0  0  0  0  0  0  0  0
    0.2407   -0.9706   41.5952 C   0  0  0  0  0  0  0  0  0  0  0  0
    1.6195   -1.2958   41.8767 C   0  0  0  0  0  0  0  0  0  0  0  0
    2.6583   -0.3517   42.0703 C   0  0  0  0  0  0  0  0  0  0  0  0
    3.9275   -0.7702   42.5387 C   0  0  0  0  0  0  0  0  0  0  0  0
    3.9758   -2.0956   43.1047 C   0  0  0  0  0  0  0  0  0  0  0  0
    2.8202   -2.8904   43.1737 C   0  0  0  0  0  0  0  0  0  0  0  0
    1.6431   -2.4541   42.6305 C   0  0  0  0  0  0  0  0  0  0  0  0
    0.7274   -3.4988   42.3828 C   0  0  0  0  0  0  0  0  0  0  0  0
    4.8828    0.1442   42.7077 N   0  0  0  0  0  0  0  0  0  0  0  0
   -2.0458   -1.6414   41.0471 C   0  0  0  0  0  0  0  0  0  0  0  0
   -2.8179   -2.4865   40.5007 O   0  0  0  0  0  0  0  0  0  0  0  0
   -2.4928   -0.4453   41.3162 O   0  0  0  0  0  0  0  0  0  0  0  0
    2.9358   -3.9868   44.1905 C   0  0  0  0  0  0  0  0  0  0  0  0
    4.1117   -4.5782   44.5391 C   0  0  0  0  0  0  0  0  0  0  0  0
    1.7758   -4.3272   44.9228 C   0  0  0  0  0  0  0  0  0  0  0  0
    1.6443   -5.3613   45.8450 C   0  0  0  0  0  0  0  0  0  0  0  0
    2.9305   -6.0770   45.9146 C   0  0  0  0  0  0  0  0  0  0  0  0
    4.1009   -5.6901   45.2910 C   0  0  0  0  0  0  0  0  0  0  0  0
    0.4939   -5.7667   46.3952 C   0  0  0  0  0  0  0  0  0  0  0  0
    0.3757   -6.7969   46.9826 O   0  0  0  0  0  0  0  0  0  0  0  0
   -0.5536   -4.9175   46.3117 O   0  0  0  0  0  0  0  0  0  0  0  0
    5.3028    0.8619   41.8906 O   0  0  0  0  0  0  0  0  0  0  0  0
  6 11  1  0
  1 12  1  0
 12 13  2  0
 12 14  1  0
  8 15  1  0
 18 21  1  0
 21 22  2  0
 21 23  1  0
 11 24  2  0
  1  2  2  0
  2 10  1  0
 10  9  2  0
  4  3  2  0
  3  1  1  0
 15 16  2  0
 16 20  1  0
 20 19  2  0
 19 18  1  0
 18 17  2  0
 17 15  1  0
  4  5  1  0
  5  6  2  0
  6  7  1  0
  7  8  2  0
  8  9  1  0
  9  4  1  0
M  END
$$$$
O14757_PocketFlow_idx-in-all-generaetd-710
     RDKit          3D

 16 17  0  0  0  0  0  0  0  0999 V2000
    0.2881   -2.9111   42.4378 C   0  0  0  0  0  0  0  0  0  0  0  0
   -0.0650   -2.5021   41.5798 C   0  0  0  0  0  0  0  0  0  0  0  0
    1.5584   -2.5265   43.0885 C   0  0  0  0  0  0  0  0  0  0  0  0
    2.2571   -1.5118   42.4661 C   0  0  0  0  0  0  0  0  0  0  0  0
    1.6539   -0.8478   41.4018 C   0  0  0  0  0  0  0  0  0  0  0  0
    2.3295    0.3648   40.8607 C   0  0  0  0  0  0  0  0  0  0  0  0
    0.5143   -1.3218   40.9346 C   0  0  0  0  0  0  0  0  0  0  0  0
    2.1322   -3.3732   44.2231 C   0  0  0  0  0  0  0  0  0  0  0  0
    1.2931   -4.2538   44.9679 C   0  0  0  0  0  0  0  0  0  0  0  0
    1.8819   -4.9458   46.0223 C   0  0  0  0  0  0  0  0  0  0  0  0
    3.4856   -3.3700   44.4729 C   0  0  0  0  0  0  0  0  0  0  0  0
    4.4608   -2.5114   43.7985 C   0  0  0  0  0  0  0  0  0  0  0  0
    5.6386   -2.2821   44.6116 C   0  0  0  0  0  0  0  0  0  0  0  0
    6.0053   -3.1583   45.6639 C   0  0  0  0  0  0  0  0  0  0  0  0
    5.0750   -3.9810   46.2005 C   0  0  0  0  0  0  0  0  0  0  0  0
    3.8305   -4.0572   45.6834 C   0  0  0  0  0  0  0  0  0  0  0  0
  5  6  1  0
  3  8  1  0
  8  9  2  3
  9 10  1  0
  8 11  1  0
  1  2  2  0
  2  7  1  0
  7  5  2  0
  5  4  1  0
  4  3  2  0
  3  1  1  0
 11 12  2  0
 12 13  1  0
 13 14  2  0
 14 15  1  0
 15 16  2  0
 16 11  1  0
M  END
$$$$
O14757_PocketFlow_idx-in-all-generaetd-711
     RDKit          3D

 14 15  0  0  0  0  0  0  0  0999 V2000
   -0.6395   -2.0713   41.4947 C   0  0  0  0  0  0  0  0  0  0  0  0
    0.1859   -1.1027   41.5970 C   0  0  0  0  0  0  0  0  0  0  0  0
    0.4132   -0.3094   42.2420 C   0  0  0  0  0  0  0  0  0  0  0  0
   -0.5062   -3.2637   40.8029 C   0  0  0  0  0  0  0  0  0  0  0  0
    0.8157   -3.4049   40.5320 N   0  0  0  0  0  0  0  0  0  0  0  0
    1.3694   -2.1708   40.8969 C   0  0  0  0  0  0  0  0  0  0  0  0
    1.7495    0.3930   42.0806 C   0  0  0  0  0  0  0  0  0  0  0  0
    2.8964    0.1711   42.9808 C   0  0  0  0  0  0  0  0  0  0  0  0
    3.1244   -0.9130   43.6844 C   0  0  0  0  0  0  0  0  0  0  0  0
    4.4692   -1.0576   44.2656 C   0  0  0  0  0  0  0  0  0  0  0  0
    4.7470   -2.1727   45.1339 C   0  0  0  0  0  0  0  0  0  0  0  0
    3.9426   -3.3224   45.1570 C   0  0  0  0  0  0  0  0  0  0  0  0
    2.7266   -3.2421   44.3283 C   0  0  0  0  0  0  0  0  0  0  0  0
    2.4119   -2.1243   43.6119 C   0  0  0  0  0  0  0  0  0  0  0  0
  1  2  1  0
  2  3  2  3
  1  4  1  0
  4  5  1  0
  2  6  1  0
  5  6  1  0
  3  7  1  0
  7  8  1  0
  8  9  1  0
  9 10  2  0
 10 11  1  0
 11 12  2  0
 12 13  1  0
 13 14  2  0
 14  9  1  0
M  END
$$$$
O14757_PocketFlow_idx-in-all-generaetd-712
     RDKit          3D

 35 38  0  0  0  0  0  0  0  0999 V2000
   -0.6702   -2.0741   41.4972 P   0  0  0  0  0  0  0  0  0  0  0  0
    0.0312   -1.0383   41.3204 O   0  0  0  0  0  0  0  0  0  0  0  0
   -0.0902   -3.2976   41.0394 O   0  0  0  0  0  0  0  0  0  0  0  0
   -2.1682   -1.9290   41.1203 O   0  0  0  0  0  0  0  0  0  0  0  0
   -0.4927   -2.3933   42.9839 O   0  0  0  0  0  0  0  0  0  0  0  0
    1.4179   -1.0034   41.4484 C   0  0  0  0  0  0  0  0  0  0  0  0
    2.1783   -1.7953   42.1405 C   0  0  0  0  0  0  0  0  0  0  0  0
    3.4075   -1.2899   42.5431 C   0  0  0  0  0  0  0  0  0  0  0  0
    3.8108    0.0521   42.3610 C   0  0  0  0  0  0  0  0  0  0  0  0
    5.0250    0.3888   42.7596 N   0  0  0  0  0  0  0  0  0  0  0  0
    4.4665   -1.9861   43.2327 C   0  0  2  0  0  0  0  0  0  0  0  0
    4.4550   -3.1971   43.8171 C   0  0  0  0  0  0  0  0  0  0  0  0
    5.4889   -0.8840   43.4412 C   0  0  0  0  0  0  0  0  0  0  0  0
    4.0073   -3.4359   45.1609 C   0  0  0  0  0  0  0  0  0  0  0  0
    4.0536   -2.4792   46.2443 C   0  0  0  0  0  0  0  0  0  0  0  0
    3.3206   -4.6840   45.4505 C   0  0  0  0  0  0  0  0  0  0  0  0
    1.9136   -4.6982   45.4150 C   0  0  0  0  0  0  0  0  0  0  0  0
    1.1516   -5.8590   45.4302 C   0  0  0  0  0  0  0  0  0  0  0  0
   -0.2681   -5.7866   45.5213 C   0  0  0  0  0  0  0  0  0  0  0  0
   -0.9426   -7.0336   45.5532 C   0  0  0  0  0  0  0  0  0  0  0  0
   -2.2726   -7.1305   45.3880 C   0  0  0  0  0  0  0  0  0  0  0  0
   -2.8062   -8.4815   45.0450 C   0  0  0  0  0  0  0  0  0  0  0  0
   -3.7960   -8.4398   44.0937 C   0  0  0  0  0  0  0  0  0  0  0  0
   -4.9812   -8.7361   44.0515 C   0  0  0  0  0  0  0  0  0  0  0  0
   -5.5905   -9.1888   45.2826 C   0  0  0  0  0  0  0  0  0  0  0  0
   -4.7199   -9.3727   46.3828 C   0  0  0  0  0  0  0  0  0  0  0  0
   -3.3308   -9.0343   46.1807 C   0  0  0  0  0  0  0  0  0  0  0  0
   -0.3260   -7.8229   46.8115 C   0  0  0  0  0  0  0  0  0  0  0  0
    0.7960   -8.6493   46.4820 C   0  0  0  0  0  0  0  0  0  0  0  0
    1.7074   -8.4052   45.8685 C   0  0  0  0  0  0  0  0  0  0  0  0
    2.1491   -6.9806   45.4424 C   0  0  0  0  0  0  0  0  0  0  0  0
    3.4936   -6.7043   45.4446 C   0  0  0  0  0  0  0  0  0  0  0  0
    4.1496   -5.7596   45.4316 C   0  0  0  0  0  0  0  0  0  0  0  0
   -5.9661   -8.5384   42.9317 C   0  0  0  0  0  0  0  0  0  0  0  0
   -5.2773   -9.1098   42.2279 F   0  0  0  0  0  0  0  0  0  0  0  0
  1  2  1  0
  1  3  2  0
  1  4  1  0
  1  5  1  0
  2  6  1  0
  6  7  1  0
  7  8  2  3
  8  9  1  0
  9 10  2  0
  8 11  1  0
 11 12  1  0
 10 13  1  0
 11 13  1  1
 12 14  2  3
 14 15  1  0
 14 16  1  0
 18 19  1  0
 19 20  2  0
 20 21  1  0
 21 22  1  0
 20 28  1  0
 28 29  1  0
 29 30  2  0
 30 31  1  0
 24 34  1  0
 34 35  1  0
 22 23  2  0
 23 24  1  0
 24 25  2  0
 25 26  1  0
 26 27  2  0
 27 22  1  0
 16 17  2  0
 17 18  1  0
 18 31  2  0
 31 32  1  0
 32 33  2  0
 33 16  1  0
M  END
$$$$
O14757_PocketFlow_idx-in-all-generaetd-713
     RDKit          3D

 35 38  0  0  0  0  0  0  0  0999 V2000
    0.2881   -2.9111   42.4378 C   0  0  0  0  0  0  0  0  0  0  0  0
    1.1784   -3.4293   42.9321 C   0  0  0  0  0  0  0  0  0  0  0  0
    2.4696   -2.7231   42.8997 C   0  0  0  0  0  0  0  0  0  0  0  0
    2.5380   -1.5398   42.2487 C   0  0  0  0  0  0  0  0  0  0  0  0
    0.2254   -1.7181   41.6878 C   0  0  0  0  0  0  0  0  0  0  0  0
    3.7411   -0.7335   42.1233 C   0  0  0  0  0  0  0  0  0  0  0  0
    1.3903   -1.0407   41.5821 C   0  0  0  0  0  0  0  0  0  0  0  0
    4.2500   -0.2563   43.4352 C   0  0  0  0  0  0  0  0  0  0  0  0
    5.7146   -0.0489   43.4406 C   0  0  0  0  0  0  0  0  0  0  0  0
    1.1651   -4.6399   43.8354 C   0  0  0  0  0  0  0  0  0  0  0  0
    2.1007   -4.8217   44.8837 C   0  0  0  0  0  0  0  0  0  0  0  0
    1.9492   -5.9390   45.6990 C   0  0  0  0  0  0  0  0  0  0  0  0
    0.8555   -6.7941   45.5397 C   0  0  0  0  0  0  0  0  0  0  0  0
   -0.0711   -6.5472   44.4668 C   0  0  0  0  0  0  0  0  0  0  0  0
    0.0994   -5.4794   43.6876 C   0  0  0  0  0  0  0  0  0  0  0  0
   -1.3253   -7.6639   44.2151 Cl  0  0  0  0  0  0  0  0  0  0  0  0
   -1.0641   -1.1903   41.1442 C   0  0  0  0  0  0  0  0  0  0  0  0
   -1.7982   -1.3290   42.1145 F   0  0  0  0  0  0  0  0  0  0  0  0
   -0.9561    0.1797   40.9367 F   0  0  0  0  0  0  0  0  0  0  0  0
   -1.6385   -2.0067   40.4985 F   0  0  0  0  0  0  0  0  0  0  0  0
    0.7191   -7.9397   46.4504 C   0  0  0  0  0  0  0  0  0  0  0  0
   -0.2119   -8.8765   45.9399 F   0  0  0  0  0  0  0  0  0  0  0  0
    0.0412   -7.5342   47.5981 F   0  0  0  0  0  0  0  0  0  0  0  0
    1.8043   -8.4671   46.8142 F   0  0  0  0  0  0  0  0  0  0  0  0
    6.3560   -1.1747   44.2197 C   0  0  0  0  0  0  0  0  0  0  0  0
    7.1153   -0.9326   45.3532 C   0  0  0  0  0  0  0  0  0  0  0  0
    7.8203   -2.0401   46.0179 C   0  0  0  0  0  0  0  0  0  0  0  0
    9.0345   -2.0344   46.6451 C   0  0  0  0  0  0  0  0  0  0  0  0
    9.6282   -3.1567   47.1555 C   0  0  0  0  0  0  0  0  0  0  0  0
    8.9182   -4.3862   47.0199 C   0  0  0  0  0  0  0  0  0  0  0  0
    7.6609   -4.3956   46.4599 C   0  0  0  0  0  0  0  0  0  0  0  0
    7.1368   -3.2871   45.8706 C   0  0  0  0  0  0  0  0  0  0  0  0
    5.9910   -3.2340   45.1437 O   0  0  0  0  0  0  0  0  0  0  0  0
    5.6382   -2.2857   44.3095 C   0  0  0  0  0  0  0  0  0  0  0  0
    9.9515   -0.3424   46.8136 Br  0  0  0  0  0  0  0  0  0  0  0  0
  4  6  1  0
  6  8  1  0
  8  9  1  0
  2 10  1  0
 14 16  1  0
  5 17  1  0
 17 18  1  0
 17 19  1  0
 17 20  1  0
 13 21  1  0
 21 22  1  0
 21 23  1  0
 21 24  1  0
  9 25  1  0
 25 26  2  0
 26 27  1  0
 32 33  1  0
 25 34  1  0
 33 34  1  0
 28 35  1  0
 27 28  2  0
 28 29  1  0
 29 30  2  0
 30 31  1  0
 31 32  2  0
 32 27  1  0
  1  2  2  0
  2  3  1  0
  3  4  2  0
  4  7  1  0
  7  5  2  0
  5  1  1  0
 10 11  2  0
 11 12  1  0
 12 13  2  0
 13 14  1  0
 14 15  2  0
 15 10  1  0
M  END
$$$$
O14757_PocketFlow_idx-in-all-generaetd-714
     RDKit          3D

 14 15  0  0  0  0  0  0  0  0999 V2000
   -0.6395   -2.0713   41.4947 C   0  0  0  0  0  0  0  0  0  0  0  0
    0.6719   -2.2449   41.7518 C   0  0  0  0  0  0  0  0  0  0  0  0
    1.1287   -3.3339   42.4778 C   0  0  0  0  0  0  0  0  0  0  0  0
    2.2706   -3.1945   43.3374 C   0  0  0  0  0  0  0  0  0  0  0  0
    3.1681   -2.1636   43.0472 C   0  0  0  0  0  0  0  0  0  0  0  0
    2.7770   -1.0548   42.2739 C   0  0  0  0  0  0  0  0  0  0  0  0
    1.4918   -1.1085   41.6774 C   0  0  0  0  0  0  0  0  0  0  0  0
    4.4476   -2.1443   43.7401 C   0  0  0  0  0  0  0  0  0  0  0  0
    5.2683   -1.0348   43.7784 C   0  0  0  0  0  0  0  0  0  0  0  0
    4.7154   -3.1608   44.7603 C   0  0  0  0  0  0  0  0  0  0  0  0
    4.0709   -4.3174   44.9904 C   0  0  0  0  0  0  0  0  0  0  0  0
    2.7020   -4.3309   44.2024 C   0  0  0  0  0  0  0  0  0  0  0  0
   -1.2935   -0.9434   41.3984 N   0  0  0  0  0  0  0  0  0  0  0  0
    6.3996   -1.0181   44.4218 O   0  0  0  0  0  0  0  0  0  0  0  0
  1  2  1  0
  5  8  1  0
  8  9  2  3
  8 10  1  0
 10 11  1  0
  4 12  1  0
 11 12  1  0
  1 13  1  0
  9 14  1  0
  2  3  2  0
  3  4  1  0
  4  5  2  0
  5  6  1  0
  6  7  2  0
  7  2  1  0
M  END
$$$$
O14757_PocketFlow_idx-in-all-generaetd-715
     RDKit          3D

 12 11  0  0  0  0  0  0  0  0999 V2000
    0.2881   -2.9111   42.4378 C   0  0  0  0  0  0  0  0  0  0  0  0
    1.1784   -3.4293   42.9321 C   0  0  0  0  0  0  0  0  0  0  0  0
    1.6466   -3.2662   44.1990 C   0  0  0  0  0  0  0  0  0  0  0  0
    0.3564   -2.2463   41.1541 C   0  0  0  0  0  0  0  0  0  0  0  0
    2.2925   -4.4283   44.8431 C   0  0  0  0  0  0  0  0  0  0  0  0
    3.2446   -4.8861   44.9729 C   0  0  0  0  0  0  0  0  0  0  0  0
    4.5216   -4.1207   44.6924 C   0  0  0  0  0  0  0  0  0  0  0  0
    4.5351   -2.8394   44.2911 C   0  0  0  0  0  0  0  0  0  0  0  0
    4.0436   -2.2175   43.2105 C   0  0  0  0  0  0  0  0  0  0  0  0
    5.1190   -1.8196   45.3046 C   0  0  0  0  0  0  0  0  0  0  0  0
    4.3018   -0.8851   42.8575 C   0  0  0  0  0  0  0  0  0  0  0  0
    3.6241   -0.0163   42.0501 C   0  0  0  0  0  0  0  0  0  0  0  0
  1  2  1  0
  2  3  1  0
  1  4  1  0
  3  5  1  0
  5  6  2  3
  6  7  1  0
  7  8  1  0
  8  9  2  3
  8 10  1  0
  9 11  1  0
 11 12  1  0
M  END
$$$$
O14757_PocketFlow_idx-in-all-generaetd-716
     RDKit          3D

 20 20  0  0  0  0  0  0  0  0999 V2000
   -0.6395   -2.0713   41.4947 C   0  0  0  0  0  0  0  0  0  0  0  0
    0.1859   -1.1027   41.5970 C   0  0  0  0  0  0  0  0  0  0  0  0
    1.5836   -1.3270   41.4670 C   0  0  0  0  0  0  0  0  0  0  0  0
    2.5750   -0.4224   42.0442 C   0  0  0  0  0  0  0  0  0  0  0  0
    3.7629   -0.7735   42.6336 C   0  0  0  0  0  0  0  0  0  0  0  0
    4.7878    0.0281   42.9889 C   0  0  0  0  0  0  0  0  0  0  0  0
   -2.0340   -1.9276   41.4923 C   0  0  0  0  0  0  0  0  0  0  0  0
   -2.4443   -0.6407   41.1537 C   0  0  0  0  0  0  0  0  0  0  0  0
   -3.8771   -0.4619   41.0658 C   0  0  0  0  0  0  0  0  0  0  0  0
    5.9044   -0.5711   43.5783 C   0  0  0  0  0  0  0  0  0  0  0  0
    5.7690   -1.6779   44.4439 C   0  0  0  0  0  0  0  0  0  0  0  0
    4.6418   -2.5113   44.2074 C   0  0  0  0  0  0  0  0  0  0  0  0
    3.5902   -2.0422   43.3818 C   0  0  0  0  0  0  0  0  0  0  0  0
    4.5452   -3.8203   44.8473 C   0  0  2  0  0  0  0  0  0  0  0  0
    3.8189   -4.7948   44.1105 C   0  0  0  0  0  0  0  0  0  0  0  0
    5.0918   -4.0398   46.1164 C   0  0  0  0  0  0  0  0  0  0  0  0
    5.8375   -3.0703   46.8387 C   0  0  0  0  0  0  0  0  0  0  0  0
    6.4969   -3.6010   47.9953 C   0  0  0  0  0  0  0  0  0  0  0  0
    6.1075   -4.8878   48.5419 C   0  0  0  0  0  0  0  0  0  0  0  0
    5.3336   -5.7177   47.7841 C   0  0  0  0  0  0  0  0  0  0  0  0
  1  2  1  0
  2  3  1  0
  3  4  1  0
  4  5  1  0
  1  7  1  0
  7  8  1  0
  8  9  1  0
 12 14  1  0
 14 15  1  1
 14 16  1  0
 16 17  2  3
 17 18  1  0
 18 19  2  3
 19 20  1  0
  5  6  2  0
  6 10  1  0
 10 11  2  0
 11 12  1  0
 12 13  2  0
 13  5  1  0
M  END
$$$$
O14757_PocketFlow_idx-in-all-generaetd-717
     RDKit          3D

 23 26  0  0  0  0  0  0  0  0999 V2000
   -0.6395   -2.0713   41.4947 C   0  0  0  0  0  0  0  0  0  0  0  0
    0.6719   -2.2449   41.7518 C   0  0  0  0  0  0  0  0  0  0  0  0
    1.5951   -1.1948   41.6106 C   0  0  0  0  0  0  0  0  0  0  0  0
    2.9587   -1.3961   42.0240 C   0  0  0  0  0  0  0  0  0  0  0  0
    3.1652   -2.3460   43.1085 C   0  0  0  0  0  0  0  0  0  0  0  0
    4.5010   -2.4269   43.6771 C   0  0  0  0  0  0  0  0  0  0  0  0
    4.6828   -3.3864   44.7249 C   0  0  0  0  0  0  0  0  0  0  0  0
    3.6177   -4.3183   44.9719 C   0  0  0  0  0  0  0  0  0  0  0  0
    2.4149   -4.2162   44.3461 C   0  0  0  0  0  0  0  0  0  0  0  0
    2.1572   -3.2260   43.4208 C   0  0  0  0  0  0  0  0  0  0  0  0
    0.8810   -3.1540   42.8526 C   0  0  0  0  0  0  0  0  0  0  0  0
   -1.3042   -1.0169   41.4764 O   0  0  0  0  0  0  0  0  0  0  0  0
   -1.4192   -3.1505   41.0534 O   0  0  0  0  0  0  0  0  0  0  0  0
    5.9553   -3.4183   45.4305 C   0  0  0  0  0  0  0  0  0  0  0  0
    6.9112   -2.3788   45.3326 C   0  0  0  0  0  0  0  0  0  0  0  0
    6.6672   -1.2044   44.6504 C   0  0  0  0  0  0  0  0  0  0  0  0
    5.4348   -1.2904   43.7589 C   0  0  0  0  0  0  0  0  0  0  0  0
    8.1508   -2.4256   46.1596 C   0  0  0  0  0  0  0  0  0  0  0  0
    9.0065   -1.3795   46.2984 C   0  0  0  0  0  0  0  0  0  0  0  0
   10.1707   -1.3895   47.0446 C   0  0  0  0  0  0  0  0  0  0  0  0
   10.4591   -2.5212   47.8018 C   0  0  0  0  0  0  0  0  0  0  0  0
    9.5451   -3.5971   47.7552 C   0  0  0  0  0  0  0  0  0  0  0  0
    8.3913   -3.5853   46.9505 C   0  0  0  0  0  0  0  0  0  0  0  0
  1  2  1  0
  1 12  2  0
  1 13  1  0
 15 18  1  0
 18 19  2  0
 19 20  1  0
 20 21  2  0
 21 22  1  0
 22 23  2  0
 23 18  1  0
  7 14  2  0
 14 15  1  0
 15 16  2  0
 16 17  1  0
 17  6  2  0
  2  3  2  0
  3  4  1  0
  4  5  2  0
 10 11  2  0
 11  2  1  0
  5  6  1  0
  6  7  1  0
  7  8  1  0
  8  9  2  0
  9 10  1  0
 10  5  1  0
M  END
$$$$
O14757_PocketFlow_idx-in-all-generaetd-718
     RDKit          3D

 35 39  0  0  0  0  0  0  0  0999 V2000
   -0.6395   -2.0713   41.4947 C   0  0  0  0  0  0  0  0  0  0  0  0
    0.1859   -1.1027   41.5970 C   0  0  0  0  0  0  0  0  0  0  0  0
    1.5858   -1.4430   41.9548 C   0  0  0  0  0  0  0  0  0  0  0  0
   -0.3290   -3.4217   41.4987 C   0  0  0  0  0  0  0  0  0  0  0  0
    1.8734   -2.7956   42.1741 C   0  0  0  0  0  0  0  0  0  0  0  0
    0.8724   -3.7449   42.0341 C   0  0  0  0  0  0  0  0  0  0  0  0
    2.6003   -0.4578   42.2422 C   0  0  0  0  0  0  0  0  0  0  0  0
    3.8739   -0.7830   42.7289 C   0  0  0  0  0  0  0  0  0  0  0  0
    4.8238    0.2207   42.9930 C   0  0  0  0  0  0  0  0  0  0  0  0
   -2.0894   -1.7442   41.0426 C   0  0  0  0  0  0  0  0  0  0  0  0
   -2.6386   -0.5785   41.3590 N   0  0  0  0  0  0  0  0  0  0  0  0
   -2.8195   -2.5590   40.2628 N   0  0  0  0  0  0  0  0  0  0  0  0
   -3.8585   -0.5062   40.7614 C   0  0  0  0  0  0  0  0  0  0  0  0
   -3.9700   -1.7371   40.1394 N   0  0  0  0  0  0  0  0  0  0  0  0
    4.2660   -2.0980   42.9710 C   0  0  0  0  0  0  0  0  0  0  0  0
    5.2358   -2.3625   44.0415 C   0  0  0  0  0  0  0  0  0  0  0  0
    5.9347   -0.0652   43.8366 C   0  0  0  0  0  0  0  0  0  0  0  0
    6.1654   -1.3061   44.3359 C   0  0  0  0  0  0  0  0  0  0  0  0
    7.3070   -1.5998   45.2095 C   0  0  0  0  0  0  0  0  0  0  0  0
    7.3119   -2.7859   46.0219 C   0  0  0  0  0  0  0  0  0  0  0  0
    6.2666   -3.6587   46.2072 C   0  0  0  0  0  0  0  0  0  0  0  0
    5.1011   -3.7382   45.4828 C   0  0  0  0  0  0  0  0  0  0  0  0
    5.0015   -3.6927   44.3327 O   0  0  0  0  0  0  0  0  0  0  0  0
    4.0246   -4.3494   46.2104 N   0  0  0  0  0  0  0  0  0  0  0  0
    2.7045   -4.1624   45.9248 C   0  0  0  0  0  0  0  0  0  0  0  0
    1.7088   -5.1157   46.1725 C   0  0  0  0  0  0  0  0  0  0  0  0
    1.0125   -5.2615   45.1506 C   0  0  0  0  0  0  0  0  0  0  0  0
    0.4573   -6.5587   44.9006 C   0  0  0  0  0  0  0  0  0  0  0  0
   -0.7758   -6.7438   44.0703 C   0  0  0  0  0  0  0  0  0  0  0  0
   -1.5227   -7.8829   44.4515 C   0  0  0  0  0  0  0  0  0  0  0  0
   -2.8478   -8.0139   43.8277 C   0  0  0  0  0  0  0  0  0  0  0  0
   -1.3064   -8.5235   45.7005 C   0  0  0  0  0  0  0  0  0  0  0  0
   -0.1495   -8.3764   46.4560 C   0  0  0  0  0  0  0  0  0  0  0  0
    0.7029   -7.4192   46.0381 C   0  0  0  0  0  0  0  0  0  0  0  0
   -3.7789   -8.8400   44.3322 N   0  0  0  0  0  0  0  0  0  0  0  0
  3  7  1  0
  1 10  1  0
 10 11  1  0
 10 12  2  0
 11 13  2  0
 12 14  1  0
 13 14  1  0
 18 19  1  0
 19 20  2  0
 20 21  1  0
 21 22  2  0
 16 23  1  0
 22 23  1  0
 22 24  1  0
 24 25  1  0
 25 26  2  3
 26 27  1  0
 27 28  1  0
 30 31  1  0
 31 35  2  3
  7  8  1  0
 28 29  2  0
 29 30  1  0
 30 32  2  0
 32 33  1  0
 33 34  2  0
 34 28  1  0
  8  9  2  0
  9 17  1  0
 17 18  2  0
 18 16  1  0
 16 15  2  0
 15  8  1  0
  1  2  2  0
  2  3  1  0
  3  5  2  0
  5  6  1  0
  6  4  2  0
  4  1  1  0
M  END
$$$$
O14757_PocketFlow_idx-in-all-generaetd-719
     RDKit          3D

 30 35  0  0  0  0  0  0  0  0999 V2000
    0.2881   -2.9111   42.4378 C   0  0  0  0  0  0  0  0  0  0  0  0
   -0.0650   -2.5021   41.5798 C   0  0  0  0  0  0  0  0  0  0  0  0
    1.5584   -2.5265   43.0885 C   0  0  0  0  0  0  0  0  0  0  0  0
    2.2571   -1.5118   42.4661 C   0  0  0  0  0  0  0  0  0  0  0  0
    3.4613   -0.9848   43.0009 C   0  0  0  0  0  0  0  0  0  0  0  0
    4.0987   -1.7401   44.0258 C   0  0  0  0  0  0  0  0  0  0  0  0
    5.3127   -1.2857   44.6158 C   0  0  0  0  0  0  0  0  0  0  0  0
    0.4726   -1.3067   40.9586 C   0  0  0  0  0  0  0  0  0  0  0  0
    1.6765   -0.8142   41.4309 C   0  0  0  0  0  0  0  0  0  0  0  0
    5.9903   -0.2833   43.9761 C   0  0  0  0  0  0  0  0  0  0  0  0
    4.1669    0.1375   42.5493 C   0  0  0  0  0  0  0  0  0  0  0  0
    5.3722    0.4891   43.0796 N   0  0  0  0  0  0  0  0  0  0  0  0
    5.9416   -2.1592   45.6321 C   0  0  0  0  0  0  0  0  0  0  0  0
    5.2241   -3.1957   46.2819 C   0  0  0  0  0  0  0  0  0  0  0  0
    5.8609   -3.9427   47.2485 C   0  0  0  0  0  0  0  0  0  0  0  0
    7.1574   -3.8033   47.6201 C   0  0  0  0  0  0  0  0  0  0  0  0
    7.8036   -4.5829   48.6437 C   0  0  0  0  0  0  0  0  0  0  0  0
    6.9151   -5.5234   49.2395 C   0  0  0  0  0  0  0  0  0  0  0  0
    7.4719   -6.3342   50.2730 C   0  0  0  0  0  0  0  0  0  0  0  0
    7.3559   -1.9953   45.8783 C   0  0  0  0  0  0  0  0  0  0  0  0
    7.8943   -2.8019   46.8403 C   0  0  0  0  0  0  0  0  0  0  0  0
    8.7533   -6.1256   50.7224 C   0  0  0  0  0  0  0  0  0  0  0  0
    9.0822   -4.3819   49.0781 C   0  0  0  0  0  0  0  0  0  0  0  0
    9.5541   -5.1486   50.1387 C   0  0  0  0  0  0  0  0  0  0  0  0
   -1.2959   -2.8581   40.9670 N   0  0  0  0  0  0  0  0  0  0  0  0
   10.9436   -4.9347   50.6110 C   0  0  0  0  0  0  0  0  0  0  0  0
   11.7145   -4.5263   49.9062 C   0  0  0  0  0  0  0  0  0  0  0  0
   11.2901   -3.7507   48.6975 C   0  0  0  0  0  0  0  0  0  0  0  0
    9.9918   -3.6932   48.2916 C   0  0  0  0  0  0  0  0  0  0  0  0
    9.4412   -2.8331   47.1878 C   0  0  0  0  0  0  0  0  0  0  0  0
  4  5  1  0
  7 13  1  0
 16 17  1  0
  2 25  1  0
 21 30  1  0
 29 30  1  0
 13 14  2  0
 14 15  1  0
 15 16  2  0
 16 21  1  0
 21 20  2  0
 20 13  1  0
 17 18  2  0
 18 19  1  0
 19 22  2  0
 22 24  1  0
 23 17  1  0
  1  2  2  0
  2  8  1  0
  8  9  2  0
  9  4  1  0
  4  3  2  0
  3  1  1  0
 23 24  2  0
 24 26  1  0
 26 27  2  0
 27 28  1  0
 28 29  2  0
 29 23  1  0
  5  6  2  0
  6  7  1  0
  7 10  2  0
 10 12  1  0
 12 11  2  0
 11  5  1  0
M  END
$$$$
O14757_PocketFlow_idx-in-all-generaetd-720
     RDKit          3D

 35 37  0  0  0  0  0  0  0  0999 V2000
   -0.6395   -2.0713   41.4947 C   0  0  0  0  0  0  0  0  0  0  0  0
   -0.2671   -3.2464   41.6546 C   0  0  0  0  0  0  0  0  0  0  0  0
    0.2277   -0.9875   41.6495 C   0  0  0  0  0  0  0  0  0  0  0  0
    1.6284   -1.2752   41.8841 C   0  0  0  0  0  0  0  0  0  0  0  0
    1.9209   -2.6657   42.2361 C   0  0  0  0  0  0  0  0  0  0  0  0
    3.1938   -2.8774   42.9001 C   0  0  2  0  0  0  0  0  0  0  0  0
    0.9832   -3.6161   42.1007 C   0  0  0  0  0  0  0  0  0  0  0  0
    3.4704   -3.7656   43.9409 C   0  0  2  0  0  0  0  0  0  0  0  0
    2.7288   -4.7231   44.4638 C   0  0  0  0  0  0  0  0  0  0  0  0
    1.4374   -4.7680   44.7894 C   0  0  0  0  0  0  0  0  0  0  0  0
    0.7273   -5.8056   45.3612 C   0  0  0  0  0  0  0  0  0  0  0  0
   -0.6064   -5.7693   45.7488 C   0  0  0  0  0  0  0  0  0  0  0  0
   -2.0581   -1.7232   41.0895 C   0  0  0  0  0  0  0  0  0  0  0  0
    4.1693   -1.7452   42.7605 C   0  0  0  0  0  0  0  0  0  0  0  0
    4.6097   -0.9678   43.8131 C   0  0  2  0  0  0  0  0  0  0  0  0
    5.2207   -1.6675   44.9311 C   0  0  0  0  0  0  0  0  0  0  0  0
    4.4315   -2.9368   45.2864 C   0  0  2  0  0  0  0  0  0  0  0  0
   -3.0733   -1.6653   40.7786 N   0  0  0  0  0  0  0  0  0  0  0  0
   -1.3396   -6.9374   45.8274 C   0  0  0  0  0  0  0  0  0  0  0  0
   -1.5834   -7.6955   45.0519 C   0  0  0  0  0  0  0  0  0  0  0  0
   -2.4141   -8.9123   45.2559 C   0  0  0  0  0  0  0  0  0  0  0  0
   -2.8702   -9.1072   46.5470 C   0  0  0  0  0  0  0  0  0  0  0  0
   -2.6038   -8.2199   47.5736 C   0  0  0  0  0  0  0  0  0  0  0  0
   -1.7997   -7.1216   47.3429 C   0  0  0  0  0  0  0  0  0  0  0  0
    4.6583   -3.7117   46.4033 C   0  0  0  0  0  0  0  0  0  0  0  0
    5.0624   -4.4355   46.9746 C   0  0  0  0  0  0  0  0  0  0  0  0
    5.6662   -5.2497   47.9913 C   0  0  0  0  0  0  0  0  0  0  0  0
    6.1732   -4.8000   49.0182 O   0  0  0  0  0  0  0  0  0  0  0  0
    5.5360   -6.5609   47.8297 O   0  0  0  0  0  0  0  0  0  0  0  0
    3.6548    0.4560   44.3337 Br  0  0  0  0  0  0  0  0  0  0  0  0
   -3.8159  -10.1145   47.0068 C   0  0  0  0  0  0  0  0  0  0  0  0
   -4.9933  -10.0268   46.7158 N   0  0  0  0  0  0  0  0  0  0  0  0
   -5.5137   -8.8173   46.4121 C   0  0  0  0  0  0  0  0  0  0  0  0
   -5.9590  -11.1036   46.5806 C   0  0  0  0  0  0  0  0  0  0  0  0
   -3.2662  -11.1814   47.4086 O   0  0  0  0  0  0  0  0  0  0  0  0
  6  5  1  1
  6  8  1  0
  8  9  1  1
  9 10  2  3
 10 11  1  0
 11 12  2  3
  1 13  1  0
  6 14  1  0
 14 15  1  0
 15 16  1  0
  8 17  1  0
 16 17  1  0
 13 18  3  0
 12 19  1  0
 17 25  1  6
 25 26  3  0
 26 27  1  0
 27 28  2  0
 27 29  1  0
 15 30  1  1
 22 31  1  0
 31 32  1  0
 32 33  1  0
 32 34  1  0
 31 35  2  0
  1  2  2  0
  2  7  1  0
  7  5  2  0
  5  4  1  0
  4  3  2  0
  3  1  1  0
 19 20  2  0
 20 21  1  0
 21 22  2  0
 22 23  1  0
 23 24  2  0
 24 19  1  0
M  END
$$$$
O14757_PocketFlow_idx-in-all-generaetd-721
     RDKit          3D

  9  9  0  0  0  0  0  0  0  0999 V2000
    0.2881   -2.9111   42.4378 C   0  0  0  0  0  0  0  0  0  0  0  0
    1.3023   -2.0648   42.1981 C   0  0  0  0  0  0  0  0  0  0  0  0
    0.9971   -0.8647   41.5341 C   0  0  0  0  0  0  0  0  0  0  0  0
   -0.8757   -2.7270   42.0624 O   0  0  0  0  0  0  0  0  0  0  0  0
    0.7126   -4.2122   42.8991 N   0  0  0  0  0  0  0  0  0  0  0  0
    2.0644    0.1282   41.4626 C   0  0  0  0  0  0  0  0  0  0  0  0
    3.2535   -0.0611   42.1034 C   0  0  0  0  0  0  0  0  0  0  0  0
    3.5789   -1.2249   42.7736 C   0  0  0  0  0  0  0  0  0  0  0  0
    2.5703   -2.2154   42.9135 C   0  0  0  0  0  0  0  0  0  0  0  0
  1  2  1  0
  1  4  2  0
  1  5  1  0
  2  3  2  0
  3  6  1  0
  6  7  2  0
  7  8  1  0
  8  9  2  0
  9  2  1  0
M  END
$$$$
O14757_PocketFlow_idx-in-all-generaetd-722
     RDKit          3D

 35 36  0  0  0  0  0  0  0  0999 V2000
   -0.8794   -1.9236   41.9357 O   0  0  0  0  0  0  0  0  0  0  0  0
    0.3182   -2.2442   41.7073 C   0  0  0  0  0  0  0  0  0  0  0  0
    1.3766   -1.3498   41.6019 C   0  0  0  0  0  0  0  0  0  0  0  0
    2.6423   -1.6963   42.1387 C   0  0  0  0  0  0  0  0  0  0  0  0
    3.6323   -0.7168   42.3533 C   0  0  0  0  0  0  0  0  0  0  0  0
    4.8502   -1.0065   43.0448 C   0  0  0  0  0  0  0  0  0  0  0  0
    4.8776   -2.2728   43.7408 C   0  0  0  0  0  0  0  0  0  0  0  0
    3.7512   -3.1062   43.6740 C   0  0  0  0  0  0  0  0  0  0  0  0
    2.6097   -2.7404   43.0111 C   0  0  0  0  0  0  0  0  0  0  0  0
    3.7955   -4.3454   44.5300 C   0  0  0  0  0  0  0  0  0  0  0  0
    2.8211   -5.2782   44.4045 C   0  0  0  0  0  0  0  0  0  0  0  0
    4.8679   -4.4990   45.4791 C   0  0  0  0  0  0  0  0  0  0  0  0
    5.4316   -3.3302   46.1522 C   0  0  0  0  0  0  0  0  0  0  0  0
    6.3046   -3.5869   47.2989 C   0  0  0  0  0  0  0  0  0  0  0  0
    7.6840   -3.3628   47.3196 C   0  0  0  0  0  0  0  0  0  0  0  0
    8.4928   -4.0059   47.4318 C   0  0  0  0  0  0  0  0  0  0  0  0
    8.3662   -5.1979   48.2853 C   0  0  0  0  0  0  0  0  0  0  0  0
    7.0297   -5.4557   48.6183 C   0  0  0  0  0  0  0  0  0  0  0  0
    5.9773   -4.7262   48.0460 C   0  0  0  0  0  0  0  0  0  0  0  0
    2.0117   -5.5513   45.6454 C   0  0  0  0  0  0  0  0  0  0  0  0
    0.9827   -6.5435   45.5048 C   0  0  0  0  0  0  0  0  0  0  0  0
    0.4712   -7.0793   46.5480 C   0  0  0  0  0  0  0  0  0  0  0  0
   -0.1015   -8.3313   46.5500 C   0  0  0  0  0  0  0  0  0  0  0  0
   -1.2883   -8.5227   47.3958 C   0  0  0  0  0  0  0  0  0  0  0  0
   -2.5520   -8.6086   46.7545 C   0  0  1  0  0  0  0  0  0  0  0  0
   -3.6039   -9.1318   47.4455 C   0  0  0  0  0  0  0  0  0  0  0  0
   -3.1304   -9.8582   48.4886 C   0  0  0  0  0  0  0  0  0  0  0  0
   -2.2026   -9.6079   49.2286 F   0  0  0  0  0  0  0  0  0  0  0  0
   -3.8704  -11.0469   48.8258 O   0  0  0  0  0  0  0  0  0  0  0  0
   -2.7490   -7.9682   45.4709 C   0  0  0  0  0  0  0  0  0  0  0  0
   -3.9777   -8.1495   44.7568 C   0  0  0  0  0  0  0  0  0  0  0  0
   -3.8793   -8.2322   43.2929 C   0  0  0  0  0  0  0  0  0  0  0  0
   -5.0075   -8.3937   42.5198 C   0  0  0  0  0  0  0  0  0  0  0  0
   -6.2387   -8.4542   43.2115 C   0  0  0  0  0  0  0  0  0  0  0  0
   -6.3615   -8.3011   44.5625 C   0  0  0  0  0  0  0  0  0  0  0  0
  1  2  1  0
  2  3  1  0
  3  4  1  0
  8 10  1  0
 10 11  1  0
 10 12  1  0
 12 13  2  3
 13 14  1  0
 11 20  1  0
 20 21  1  0
 21 22  1  0
 22 23  1  0
 23 24  1  0
 25 24  1  1
 25 26  1  0
 26 27  1  0
 27 28  1  0
 27 29  2  0
 25 30  1  0
 30 31  2  3
 31 32  1  0
 32 33  2  3
 33 34  1  0
 34 35  2  0
 14 15  2  0
 15 16  1  0
 16 17  2  0
 17 18  1  0
 18 19  2  0
 19 14  1  0
  4  5  2  0
  5  6  1  0
  6  7  2  0
  7  8  1  0
  8  9  2  0
  9  4  1  0
M  END
$$$$
O14757_PocketFlow_idx-in-all-generaetd-723
     RDKit          3D

 35 39  0  0  0  0  0  0  0  0999 V2000
   -0.6395   -2.0713   41.4947 C   0  0  0  0  0  0  0  0  0  0  0  0
    0.1859   -1.1027   41.5970 C   0  0  0  0  0  0  0  0  0  0  0  0
    1.5858   -1.4430   41.9548 C   0  0  0  0  0  0  0  0  0  0  0  0
    2.6622   -0.5501   42.0082 C   0  0  0  0  0  0  0  0  0  0  0  0
    3.8608   -0.8421   42.6622 C   0  0  0  0  0  0  0  0  0  0  0  0
    4.8744    0.0633   42.9841 C   0  0  0  0  0  0  0  0  0  0  0  0
   -0.2676   -3.4159   41.4925 C   0  0  0  0  0  0  0  0  0  0  0  0
    1.0166   -3.7682   41.8672 C   0  0  0  0  0  0  0  0  0  0  0  0
    1.9398   -2.7681   42.0430 C   0  0  0  0  0  0  0  0  0  0  0  0
   -2.0200   -2.0151   41.2155 N   0  0  0  0  0  0  0  0  0  0  0  0
    5.9690   -0.4480   43.6691 C   0  0  0  0  0  0  0  0  0  0  0  0
    5.9510   -1.6417   44.4357 C   0  0  0  0  0  0  0  0  0  0  0  0
    4.8601   -2.5044   44.1347 C   0  0  0  0  0  0  0  0  0  0  0  0
    3.8623   -2.0708   43.3838 C   0  0  0  0  0  0  0  0  0  0  0  0
    2.8625   -2.9461   42.9618 N   0  0  0  0  0  0  0  0  0  0  0  0
    4.9177   -3.8076   44.7982 C   0  0  0  0  0  0  0  0  0  0  0  0
    4.9840   -3.8110   46.2170 C   0  0  0  0  0  0  0  0  0  0  0  0
    4.8272   -5.0281   46.9316 C   0  0  0  0  0  0  0  0  0  0  0  0
    5.6831   -5.2451   48.0392 C   0  0  0  0  0  0  0  0  0  0  0  0
    6.3980   -4.1259   48.6249 C   0  0  0  0  0  0  0  0  0  0  0  0
    6.6287   -3.0058   47.7624 C   0  0  0  0  0  0  0  0  0  0  0  0
    6.0192   -2.8708   46.6527 C   0  0  0  0  0  0  0  0  0  0  0  0
    6.3645   -1.6990   45.7746 C   0  0  0  0  0  0  0  0  0  0  0  0
   -2.6296   -0.7418   41.2288 C   0  0  0  0  0  0  0  0  0  0  0  0
   -3.9229   -0.5793   40.7571 C   0  0  0  0  0  0  0  0  0  0  0  0
    7.0272   -4.3087   49.8014 O   0  0  0  0  0  0  0  0  0  0  0  0
   -4.4810   -1.5808   40.2857 O   0  0  0  0  0  0  0  0  0  0  0  0
   -4.3259    0.7209   40.6157 O   0  0  0  0  0  0  0  0  0  0  0  0
    2.3498    0.7120   41.6417 O   0  0  0  0  0  0  0  0  0  0  0  0
    7.8602   -3.2796   50.2968 C   0  0  0  0  0  0  0  0  0  0  0  0
    9.1303   -3.1474   49.7662 C   0  0  0  0  0  0  0  0  0  0  0  0
    9.7484   -1.9520   50.0587 C   0  0  0  0  0  0  0  0  0  0  0  0
   10.7584   -1.4328   49.1963 C   0  0  0  0  0  0  0  0  0  0  0  0
   11.2212   -2.2035   48.1367 C   0  0  0  0  0  0  0  0  0  0  0  0
   10.5161   -3.4158   47.8824 C   0  0  0  0  0  0  0  0  0  0  0  0
  3  4  1  0
  4  5  1  0
  1 10  1  0
  9 15  1  0
 14 15  1  0
 10 24  1  0
 24 25  1  0
 20 26  1  0
 25 27  2  0
 25 28  1  0
  4 29  2  0
 26 30  1  0
 30 31  1  0
 31 32  2  3
 32 33  1  0
 33 34  2  3
 34 35  1  0
  1  2  2  0
  2  3  1  0
  3  9  2  0
  9  8  1  0
  8  7  2  0
  7  1  1  0
  5  6  2  0
  6 11  1  0
 11 12  2  0
 13 14  2  0
 14  5  1  0
 12 13  1  0
 13 16  1  0
 16 17  2  0
 22 23  2  0
 23 12  1  0
 17 18  1  0
 18 19  2  0
 19 20  1  0
 20 21  2  0
 21 22  1  0
 22 17  1  0
M  END
$$$$
O14757_PocketFlow_idx-in-all-generaetd-724
     RDKit          3D

 21 23  0  0  0  0  0  0  0  0999 V2000
   -0.6395   -2.0713   41.4947 C   0  0  0  0  0  0  0  0  0  0  0  0
    0.1859   -1.1027   41.5970 C   0  0  0  0  0  0  0  0  0  0  0  0
    1.5858   -1.4431   41.9548 C   0  0  0  0  0  0  0  0  0  0  0  0
    1.6955   -2.6772   42.6484 C   0  0  0  0  0  0  0  0  0  0  0  0
    0.6232   -3.6308   42.6496 C   0  0  0  0  0  0  0  0  0  0  0  0
   -0.5946   -3.1864   42.1233 C   0  0  0  0  0  0  0  0  0  0  0  0
    2.8117   -2.9280   43.4995 C   0  0  0  0  0  0  0  0  0  0  0  0
    3.1311   -4.0113   44.2456 C   0  0  0  0  0  0  0  0  0  0  0  0
    4.2873   -4.0609   44.9796 C   0  0  0  0  0  0  0  0  0  0  0  0
    3.9309   -1.9048   43.5384 C   0  0  0  0  0  0  0  0  0  0  0  0
    3.8382   -0.6270   42.8756 C   0  0  0  0  0  0  0  0  0  0  0  0
    2.5972   -0.4370   42.1036 C   0  0  0  0  0  0  0  0  0  0  0  0
    5.2806   -3.1508   45.0070 C   0  0  0  0  0  0  0  0  0  0  0  0
    5.1282   -2.0223   44.2920 C   0  0  0  0  0  0  0  0  0  0  0  0
    4.5719    0.4236   43.0191 N   0  0  0  0  0  0  0  0  0  0  0  0
    6.5116   -3.3480   45.8148 C   0  0  0  0  0  0  0  0  0  0  0  0
    6.7280   -4.3029   46.7679 C   0  0  0  0  0  0  0  0  0  0  0  0
    7.8755   -4.2746   47.5612 C   0  0  0  0  0  0  0  0  0  0  0  0
    8.8913   -3.3271   47.3009 C   0  0  0  0  0  0  0  0  0  0  0  0
    7.4895   -2.3846   45.7130 F   0  0  0  0  0  0  0  0  0  0  0  0
   10.1409   -3.2809   48.0059 C   0  0  0  0  0  0  0  0  0  0  0  0
  1  2  1  0
  2  3  1  0
  4  5  1  0
  1  6  1  0
  5  6  1  0
 11 15  1  0
 13 16  1  0
 16 17  2  3
 17 18  1  0
 18 19  2  3
 16 20  1  0
 19 21  1  0
  3  4  2  0
  4  7  1  0
 10 11  1  0
 11 12  2  0
 12  3  1  0
  7  8  2  0
  8  9  1  0
  9 13  2  0
 13 14  1  0
 14 10  2  0
 10  7  1  0
M  END
$$$$
O14757_PocketFlow_idx-in-all-generaetd-725
     RDKit          3D

 13 12  0  0  0  0  0  0  0  0999 V2000
   -0.6395   -2.0713   41.4947 C   0  0  0  0  0  0  0  0  0  0  0  0
    0.1859   -1.1027   41.5970 C   0  0  0  0  0  0  0  0  0  0  0  0
    1.5836   -1.3270   41.4669 C   0  0  0  0  0  0  0  0  0  0  0  0
   -0.2462   -3.3905   41.2409 C   0  0  0  0  0  0  0  0  0  0  0  0
    2.5675   -0.3472   41.7943 C   0  0  0  0  0  0  0  0  0  0  0  0
    3.8546   -0.6776   42.2362 C   0  0  0  0  0  0  0  0  0  0  0  0
    3.9971   -0.8191   43.6382 C   0  0  0  0  0  0  0  0  0  0  0  0
    4.7527   -1.9268   44.1119 C   0  0  0  0  0  0  0  0  0  0  0  0
    5.4488   -2.4084   44.8883 C   0  0  0  0  0  0  0  0  0  0  0  0
    5.2465   -3.7794   45.4193 C   0  0  0  0  0  0  0  0  0  0  0  0
    5.8143   -4.1403   46.6959 C   0  0  0  0  0  0  0  0  0  0  0  0
    7.0064   -3.7607   47.1931 C   0  0  0  0  0  0  0  0  0  0  0  0
    7.5388   -2.5407   46.4693 C   0  0  0  0  0  0  0  0  0  0  0  0
  1  2  1  0
  2  3  2  3
  1  4  1  0
  3  5  1  0
  5  6  1  0
  6  7  1  0
  7  8  1  0
  8  9  3  0
  9 10  1  0
 10 11  2  3
 11 12  1  0
 12 13  2  0
M  END
$$$$
O14757_PocketFlow_idx-in-all-generaetd-726
     RDKit          3D

 35 38  0  0  0  0  0  0  0  0999 V2000
   -0.6395   -2.0713   41.4947 C   0  0  0  0  0  0  0  0  0  0  0  0
   -0.2671   -3.2464   41.6546 C   0  0  0  0  0  0  0  0  0  0  0  0
    0.2277   -0.9875   41.6495 C   0  0  0  0  0  0  0  0  0  0  0  0
    1.6284   -1.2752   41.8841 C   0  0  0  0  0  0  0  0  0  0  0  0
    1.9209   -2.6657   42.2361 C   0  0  0  0  0  0  0  0  0  0  0  0
    0.9459   -3.6290   42.1337 C   0  0  0  0  0  0  0  0  0  0  0  0
    2.4038   -0.1779   42.2502 C   0  0  0  0  0  0  0  0  0  0  0  0
    3.8243   -0.4220   42.3774 C   0  0  0  0  0  0  0  0  0  0  0  0
    4.7653    0.4411   42.9817 C   0  0  0  0  0  0  0  0  0  0  0  0
   -2.0740   -1.7790   41.0612 C   0  0  0  0  0  0  0  0  0  0  0  0
   -2.5884   -0.6609   41.3555 O   0  0  0  0  0  0  0  0  0  0  0  0
   -2.7455   -2.6568   40.5462 F   0  0  0  0  0  0  0  0  0  0  0  0
    6.0061   -0.1989   43.2867 C   0  0  0  0  0  0  0  0  0  0  0  0
    6.0529   -1.3050   44.2447 C   0  0  0  0  0  0  0  0  0  0  0  0
    7.0682   -1.4506   45.2082 C   0  0  0  0  0  0  0  0  0  0  0  0
    7.1675   -2.6427   45.9201 C   0  0  0  0  0  0  0  0  0  0  0  0
    6.1037   -3.5741   45.8561 C   0  0  0  0  0  0  0  0  0  0  0  0
    5.0188   -3.3080   45.0289 C   0  0  0  0  0  0  0  0  0  0  0  0
    5.0206   -2.2169   44.1570 C   0  0  0  0  0  0  0  0  0  0  0  0
    3.9691   -4.3334   44.9448 C   0  0  0  0  0  0  0  0  0  0  0  0
    3.5197   -4.9158   46.0733 C   0  0  0  0  0  0  0  0  0  0  0  0
    2.4222   -5.8446   45.9826 C   0  0  0  0  0  0  0  0  0  0  0  0
    1.2877   -5.3185   45.2740 C   0  0  0  0  0  0  0  0  0  0  0  0
    0.1003   -5.2484   45.9469 C   0  0  0  0  0  0  0  0  0  0  0  0
   -0.5282   -6.4816   46.3603 C   0  0  0  0  0  0  0  0  0  0  0  0
   -1.7356   -6.4400   46.5300 O   0  0  0  0  0  0  0  0  0  0  0  0
    0.1615   -7.3213   47.0584 O   0  0  0  0  0  0  0  0  0  0  0  0
    8.3378   -2.8517   46.8138 C   0  0  0  0  0  0  0  0  0  0  0  0
    8.5184   -4.0712   47.4202 C   0  0  0  0  0  0  0  0  0  0  0  0
    9.6929   -4.3821   47.9263 C   0  0  0  0  0  0  0  0  0  0  0  0
    9.3583   -1.9972   46.8763 C   0  0  0  0  0  0  0  0  0  0  0  0
   10.5460   -2.1537   47.5254 C   0  0  0  0  0  0  0  0  0  0  0  0
   10.7132   -3.3991   48.1560 C   0  0  0  0  0  0  0  0  0  0  0  0
    3.8794   -1.6588   43.4001 N   0  0  0  0  0  0  0  0  0  0  0  0
   11.5534   -1.1003   47.7261 C   0  0  0  0  0  0  0  0  0  0  0  0
  4  7  1  0
  7  8  1  0
  1 10  1  0
 10 11  2  0
 10 12  1  0
 18 20  1  0
 20 21  2  3
 21 22  1  0
 22 23  2  3
 23 24  1  0
 24 25  1  0
 25 26  2  0
 25 27  1  0
 16 28  1  0
 32 35  1  0
  8  9  2  0
  9 13  1  0
 13 14  2  0
 19 34  2  0
 34  8  1  0
 14 15  1  0
 15 16  2  0
 16 17  1  0
 17 18  2  0
 18 19  1  0
 19 14  1  0
  1  2  2  0
  2  6  1  0
  6  5  2  0
  5  4  1  0
  4  3  2  0
  3  1  1  0
 28 29  2  0
 29 30  1  0
 30 33  2  0
 33 32  1  0
 32 31  2  0
 31 28  1  0
M  END
$$$$
O14757_PocketFlow_idx-in-all-generaetd-727
     RDKit          3D

 10 10  0  0  0  0  0  0  0  0999 V2000
   -0.6395   -2.0713   41.4947 C   0  0  0  0  0  0  0  0  0  0  0  0
    0.6719   -2.2449   41.7518 C   0  0  0  0  0  0  0  0  0  0  0  0
    1.5951   -1.1948   41.6106 C   0  0  0  0  0  0  0  0  0  0  0  0
    2.8936   -1.2860   42.2441 C   0  0  0  0  0  0  0  0  0  0  0  0
    3.7940   -0.2219   42.2897 C   0  0  0  0  0  0  0  0  0  0  0  0
   -1.1077   -0.7206   41.5594 C   0  0  0  0  0  0  0  0  0  0  0  0
    5.0030   -0.3790   43.0367 C   0  0  0  0  0  0  0  0  0  0  0  0
    5.2868   -1.5125   43.7620 C   0  0  0  0  0  0  0  0  0  0  0  0
    4.3264   -2.5803   43.7228 C   0  0  0  0  0  0  0  0  0  0  0  0
    3.1312   -2.4030   43.0143 C   0  0  0  0  0  0  0  0  0  0  0  0
  1  2  1  0
  2  3  1  0
  3  4  1  0
  1  6  2  0
  4  5  2  0
  5  7  1  0
  7  8  2  0
  8  9  1  0
  9 10  2  0
 10  4  1  0
M  END
$$$$
O14757_PocketFlow_idx-in-all-generaetd-728
     RDKit          3D

 14 16  0  0  0  0  0  0  0  0999 V2000
   -0.6395   -2.0713   41.4947 C   0  0  0  0  0  0  0  0  0  0  0  0
    0.1859   -1.1027   41.5970 C   0  0  0  0  0  0  0  0  0  0  0  0
    1.5836   -1.3270   41.4670 C   0  0  0  0  0  0  0  0  0  0  0  0
   -0.2462   -3.3905   41.2409 C   0  0  0  0  0  0  0  0  0  0  0  0
    2.5788   -0.3160   41.7511 C   0  0  0  0  0  0  0  0  0  0  0  0
    3.8805   -0.6481   42.0316 C   0  0  0  0  0  0  0  0  0  0  0  0
    4.7506    0.3661   42.5638 C   0  0  0  0  0  0  0  0  0  0  0  0
    1.1518   -3.6265   41.1493 C   0  0  0  0  0  0  0  0  0  0  0  0
    2.0380   -2.5893   41.2442 C   0  0  0  0  0  0  0  0  0  0  0  0
    5.4491   -0.2936   43.7231 C   0  0  0  0  0  0  0  0  0  0  0  0
    5.2506   -1.6674   44.0292 C   0  0  0  0  0  0  0  0  0  0  0  0
    4.3424   -2.4589   43.3927 C   0  0  0  0  0  0  0  0  0  0  0  0
    3.9643   -1.9596   42.3329 C   0  0  0  0  0  0  0  0  0  0  0  0
    2.9409   -2.6437   41.6494 N   0  0  0  0  0  0  0  0  0  0  0  0
  3  5  1  0
  5  6  1  0
  9 14  1  0
 13 14  1  0
  6  7  2  0
  7 10  1  0
 10 11  2  0
 11 12  1  0
 12 13  2  0
 13  6  1  0
  1  2  2  0
  2  3  1  0
  3  9  2  0
  9  8  1  0
  8  4  2  0
  4  1  1  0
M  END
$$$$
O14757_PocketFlow_idx-in-all-generaetd-729
     RDKit          3D

  7  6  0  0  0  0  0  0  0  0999 V2000
   -0.8413   -1.9048   41.7918 F   0  0  0  0  0  0  0  0  0  0  0  0
    0.2972   -1.3787   41.5137 C   0  0  0  0  0  0  0  0  0  0  0  0
    1.3859   -2.2666   41.4597 C   0  0  0  0  0  0  0  0  0  0  0  0
    0.9454   -3.6475   41.6605 C   0  0  0  0  0  0  0  0  0  0  0  0
   -0.4446   -3.9873   41.7709 C   0  0  0  0  0  0  0  0  0  0  0  0
   -1.2888   -2.9479   41.8015 C   0  0  0  0  0  0  0  0  0  0  0  0
   -2.5743   -3.0946   41.7578 F   0  0  0  0  0  0  0  0  0  0  0  0
  1  2  1  0
  2  3  2  3
  3  4  1  0
  4  5  2  3
  5  6  1  0
  6  7  1  0
M  END
$$$$
O14757_PocketFlow_idx-in-all-generaetd-730
     RDKit          3D

 30 31  0  0  0  0  0  0  0  0999 V2000
   -0.6395   -2.0713   41.4947 C   0  0  0  0  0  0  0  0  0  0  0  0
    0.6719   -2.2449   41.7518 C   0  0  0  0  0  0  0  0  0  0  0  0
    1.5951   -1.1948   41.6106 C   0  0  0  0  0  0  0  0  0  0  0  0
    2.9587   -1.3961   42.0240 C   0  0  0  0  0  0  0  0  0  0  0  0
    3.1652   -2.3460   43.1085 C   0  0  0  0  0  0  0  0  0  0  0  0
    4.5010   -2.4269   43.6771 C   0  0  0  0  0  0  0  0  0  0  0  0
    4.6828   -3.3864   44.7249 C   0  0  0  0  0  0  0  0  0  0  0  0
    3.6177   -4.3183   44.9719 C   0  0  0  0  0  0  0  0  0  0  0  0
    2.4149   -4.2162   44.3461 C   0  0  0  0  0  0  0  0  0  0  0  0
    2.1572   -3.2260   43.4208 C   0  0  0  0  0  0  0  0  0  0  0  0
    0.8810   -3.1540   42.8526 C   0  0  0  0  0  0  0  0  0  0  0  0
   -1.3913   -3.0603   41.0968 O   0  0  0  0  0  0  0  0  0  0  0  0
   -1.2293   -0.8604   41.3706 O   0  0  0  0  0  0  0  0  0  0  0  0
    5.9587   -3.4193   45.4239 C   0  0  0  0  0  0  0  0  0  0  0  0
    7.0019   -2.9053   44.8820 F   0  0  0  0  0  0  0  0  0  0  0  0
    5.7233   -2.8033   46.7401 F   0  0  0  0  0  0  0  0  0  0  0  0
    1.5644   -5.3420   44.6792 C   0  0  2  0  0  0  0  0  0  0  0  0
    0.4894   -5.1269   45.5579 C   0  0  0  0  0  0  0  0  0  0  0  0
   -0.4169   -6.1629   45.9814 C   0  0  0  0  0  0  0  0  0  0  0  0
   -0.6855   -7.2014   45.0722 C   0  0  0  0  0  0  0  0  0  0  0  0
   -0.7826   -6.9252   44.0229 C   0  0  0  0  0  0  0  0  0  0  0  0
    0.4489   -6.2658   43.3153 C   0  0  2  0  0  0  0  0  0  0  0  0
    0.7731   -5.9654   42.3461 O   0  0  0  0  0  0  0  0  0  0  0  0
    2.4630   -6.6170   45.0429 C   0  0  0  0  0  0  0  0  0  0  0  0
    1.1532   -7.0401   43.5455 F   0  0  0  0  0  0  0  0  0  0  0  0
    2.2192   -7.7064   44.4515 C   0  0  0  0  0  0  0  0  0  0  0  0
    1.6158   -8.6020   45.1507 O   0  0  0  0  0  0  0  0  0  0  0  0
    3.2319   -8.0772   43.7576 O   0  0  0  0  0  0  0  0  0  0  0  0
    1.2768   -4.2409   44.4375 Cl  0  0  0  0  0  0  0  0  0  0  0  0
    0.3646   -3.9969   46.7548 C   0  0  0  0  0  0  0  0  0  0  0  0
  1  2  1  0
  1 12  2  0
  1 13  1  0
  7 14  1  0
 14 15  1  0
 14 16  1  0
  9 17  1  0
 17 18  1  0
 18 19  2  3
 19 20  1  0
 20 21  2  3
 21 22  1  0
 22 23  1  6
 17 24  1  0
 22 25  1  0
 24 26  1  0
 26 27  1  0
 26 28  2  0
 17 29  1  6
 18 30  1  0
  2  3  2  0
  3  4  1  0
  4  5  2  0
 10 11  2  0
 11  2  1  0
  5  6  1  0
  6  7  2  0
  7  8  1  0
  8  9  2  0
  9 10  1  0
 10  5  1  0
M  END
$$$$
O14757_PocketFlow_idx-in-all-generaetd-731
     RDKit          3D

 20 22  0  0  0  0  0  0  0  0999 V2000
   -0.6395   -2.0713   41.4947 C   0  0  0  0  0  0  0  0  0  0  0  0
    0.6719   -2.2449   41.7518 C   0  0  0  0  0  0  0  0  0  0  0  0
    1.1287   -3.3339   42.4778 C   0  0  0  0  0  0  0  0  0  0  0  0
    2.2706   -3.1945   43.3374 C   0  0  0  0  0  0  0  0  0  0  0  0
    3.1816   -2.2032   43.1295 C   0  0  0  0  0  0  0  0  0  0  0  0
    2.7964   -1.0772   42.3131 C   0  0  0  0  0  0  0  0  0  0  0  0
    1.5566   -1.1280   41.6857 C   0  0  0  0  0  0  0  0  0  0  0  0
    4.3048   -2.2629   44.0050 C   0  0  0  0  0  0  0  0  0  0  0  0
    5.3090   -1.2258   43.8998 C   0  0  0  0  0  0  0  0  0  0  0  0
    4.6825   -3.3673   44.7667 C   0  0  0  0  0  0  0  0  0  0  0  0
    6.4578   -1.3318   44.6550 N   0  0  0  0  0  0  0  0  0  0  0  0
    5.8850   -3.3967   45.5431 C   0  0  0  0  0  0  0  0  0  0  0  0
    6.7588   -2.2905   45.4155 C   0  0  0  0  0  0  0  0  0  0  0  0
    7.9682   -2.3143   46.0927 N   0  0  0  0  0  0  0  0  0  0  0  0
   -1.2777   -0.9108   41.3617 N   0  0  0  0  0  0  0  0  0  0  0  0
   -1.3650   -3.0844   40.9453 O   0  0  0  0  0  0  0  0  0  0  0  0
    8.4172   -3.3828   46.8708 C   0  0  0  0  0  0  0  0  0  0  0  0
    9.7079   -3.3148   47.3391 C   0  0  0  0  0  0  0  0  0  0  0  0
    8.9754   -1.3978   46.0742 C   0  0  0  0  0  0  0  0  0  0  0  0
   10.0215   -1.9011   46.8802 N   0  0  0  0  0  0  0  0  0  0  0  0
  1  2  1  0
  5  8  1  0
 13 14  1  0
  1 15  1  0
  1 16  2  0
 14 17  1  0
 17 18  2  0
 14 19  1  0
 18 20  2  0
 19 20  1  0
  8  9  2  0
  9 11  1  0
 11 13  2  0
 13 12  1  0
 12 10  2  0
 10  8  1  0
  2  3  2  0
  3  4  1  0
  4  5  2  0
  5  6  1  0
  6  7  2  0
  7  2  1  0
M  END
$$$$
O14757_PocketFlow_idx-in-all-generaetd-732
     RDKit          3D

 35 37  0  0  0  0  0  0  0  0999 V2000
   -0.6395   -2.0713   41.4947 C   0  0  0  0  0  0  0  0  0  0  0  0
    0.1859   -1.1027   41.5970 C   0  0  0  0  0  0  0  0  0  0  0  0
    1.5836   -1.3270   41.4670 C   0  0  0  0  0  0  0  0  0  0  0  0
    2.3803   -1.4174   42.6857 C   0  0  0  0  0  0  0  0  0  0  0  0
    3.6730   -0.8928   42.6924 C   0  0  0  0  0  0  0  0  0  0  0  0
    4.2945   -0.2972   43.7477 C   0  0  0  0  0  0  0  0  0  0  0  0
   -0.1891   -3.4137   41.4703 C   0  0  0  0  0  0  0  0  0  0  0  0
    5.7961   -0.4150   43.6492 C   0  0  0  0  0  0  0  0  0  0  0  0
   -2.0837   -1.8532   41.3417 C   0  0  0  0  0  0  0  0  0  0  0  0
   -2.5457   -0.7292   41.6420 O   0  0  0  0  0  0  0  0  0  0  0  0
   -2.8704   -2.7920   40.9985 O   0  0  0  0  0  0  0  0  0  0  0  0
    6.2230   -1.0075   44.9111 C   0  0  0  0  0  0  0  0  0  0  0  0
    6.2413   -2.4879   44.9405 C   0  0  0  0  0  0  0  0  0  0  0  0
    6.8678   -3.0546   46.0928 C   0  0  0  0  0  0  0  0  0  0  0  0
    6.1470   -3.9400   46.9432 C   0  0  2  0  0  0  0  0  0  0  0  0
    4.7723   -3.9767   46.9020 C   0  0  0  0  0  0  0  0  0  0  0  0
    4.1200   -5.1493   46.3306 C   0  0  0  0  0  0  0  0  0  0  0  0
    2.9013   -4.8986   45.6271 C   0  0  0  0  0  0  0  0  0  0  0  0
    2.8457   -3.9238   44.6695 C   0  0  0  0  0  0  0  0  0  0  0  0
    1.6444   -3.6407   43.8963 C   0  0  0  0  0  0  0  0  0  0  0  0
    0.5127   -4.3953   44.2642 C   0  0  0  0  0  0  0  0  0  0  0  0
    1.6545   -5.6005   45.7939 C   0  0  0  0  0  0  0  0  0  0  0  0
    1.6202   -6.7649   46.2971 N   0  0  0  0  0  0  0  0  0  0  0  0
    0.6983   -5.4552   44.6708 C   0  0  0  0  0  0  0  0  0  0  0  0
    0.5979   -7.6316   46.5269 C   0  0  0  0  0  0  0  0  0  0  0  0
   -0.6451   -7.1503   46.2928 C   0  0  0  0  0  0  0  0  0  0  0  0
   -0.6848   -6.2865   45.0210 C   0  0  0  0  0  0  0  0  0  0  0  0
   -1.7958   -8.1495   46.2041 C   0  0  0  0  0  0  0  0  0  0  0  0
   -2.1356   -8.5988   47.4113 C   0  0  0  0  0  0  0  0  0  0  0  0
   -1.5986   -8.4240   48.3138 C   0  0  0  0  0  0  0  0  0  0  0  0
   -2.0119   -9.0360   49.6229 C   0  0  0  0  0  0  0  0  0  0  0  0
   -3.4671   -9.3561   47.3969 C   0  0  0  0  0  0  0  0  0  0  0  0
   -3.8382  -10.0799   48.4777 C   0  0  0  0  0  0  0  0  0  0  0  0
   -3.0681   -9.9034   49.6380 C   0  0  0  0  0  0  0  0  0  0  0  0
    6.8873   -4.6208   47.9890 C   0  0  0  0  0  0  0  0  0  0  0  0
  1  2  1  0
  2  3  1  0
  3  4  1  0
  4  5  1  0
  5  6  1  0
  1  7  1  0
  6  8  1  0
  1  9  1  0
  9 10  2  0
  9 11  1  0
  8 12  1  0
 12 13  1  0
 13 14  1  0
 14 15  1  0
 15 16  1  0
 16 17  1  0
 17 18  1  0
 26 28  1  0
 28 29  1  0
 15 35  1  1
 18 19  2  0
 19 20  1  0
 20 21  2  0
 21 24  1  0
 22 18  1  0
 29 30  2  0
 30 31  1  0
 31 34  2  0
 34 33  1  0
 33 32  2  0
 32 29  1  0
 22 23  2  0
 23 25  1  0
 25 26  2  0
 26 27  1  0
 27 24  2  0
 24 22  1  0
M  END
$$$$
O14757_PocketFlow_idx-in-all-generaetd-733
     RDKit          3D

 35 38  0  0  0  0  0  0  0  0999 V2000
   -0.6395   -2.0713   41.4947 C   0  0  0  0  0  0  0  0  0  0  0  0
   -0.2671   -3.2464   41.6546 C   0  0  0  0  0  0  0  0  0  0  0  0
    0.2277   -0.9875   41.6495 C   0  0  0  0  0  0  0  0  0  0  0  0
    1.6284   -1.2752   41.8841 C   0  0  0  0  0  0  0  0  0  0  0  0
    1.8971   -2.6873   42.1685 C   0  0  0  0  0  0  0  0  0  0  0  0
    3.2056   -2.9302   42.7434 C   0  0  0  0  0  0  0  0  0  0  0  0
    0.9813   -3.6325   42.0216 C   0  0  0  0  0  0  0  0  0  0  0  0
    3.3996   -3.8528   43.8132 C   0  0  0  0  0  0  0  0  0  0  0  0
    4.6472   -3.8129   44.5212 C   0  0  0  0  0  0  0  0  0  0  0  0
    5.4572   -2.6664   44.4855 C   0  0  0  0  0  0  0  0  0  0  0  0
    6.7175   -2.6210   45.2441 C   0  0  0  0  0  0  0  0  0  0  0  0
    7.4477   -1.4223   45.2342 C   0  0  0  0  0  0  0  0  0  0  0  0
    4.2368   -1.8528   42.7085 C   0  0  0  0  0  0  0  0  0  0  0  0
    5.3381   -1.8028   43.5014 C   0  0  0  0  0  0  0  0  0  0  0  0
   -1.9326   -1.5359   41.0924 N   0  0  0  0  0  0  0  0  0  0  0  0
    8.5667   -1.3500   46.1188 C   0  0  0  0  0  0  0  0  0  0  0  0
    8.9583   -2.2786   47.0106 C   0  0  0  0  0  0  0  0  0  0  0  0
    8.1045   -3.4636   47.0365 C   0  0  0  0  0  0  0  0  0  0  0  0
    7.0197   -3.6055   46.2440 C   0  0  0  0  0  0  0  0  0  0  0  0
   10.0971   -2.0807   47.8910 C   0  0  0  0  0  0  0  0  0  0  0  0
   11.0981   -1.6395   47.7100 O   0  0  0  0  0  0  0  0  0  0  0  0
    9.7189   -2.4452   49.2206 O   0  0  0  0  0  0  0  0  0  0  0  0
   10.0364   -1.6870   50.2825 C   0  0  0  0  0  0  0  0  0  0  0  0
   10.4345   -2.3691   51.4548 C   0  0  0  0  0  0  0  0  0  0  0  0
    9.5390   -3.3162   51.8510 C   0  0  0  0  0  0  0  0  0  0  0  0
    9.2124   -4.2035   50.8124 C   0  0  1  0  0  0  0  0  0  0  0  0
    9.7478   -4.9964   50.5143 C   0  0  0  0  0  0  0  0  0  0  0  0
    9.5082   -6.2077   50.5749 C   0  0  0  0  0  0  0  0  0  0  0  0
   10.2892   -7.3111   49.9935 C   0  0  0  0  0  0  0  0  0  0  0  0
   11.4114   -6.9215   49.3140 C   0  0  0  0  0  0  0  0  0  0  0  0
   11.7254   -5.6196   49.0822 C   0  0  0  0  0  0  0  0  0  0  0  0
   11.0134   -4.6951   49.6354 C   0  0  0  0  0  0  0  0  0  0  0  0
    7.8955   -3.8774   50.2960 C   0  0  0  0  0  0  0  0  0  0  0  0
    6.9039   -4.2991   51.0931 O   0  0  0  0  0  0  0  0  0  0  0  0
   -2.8944   -2.3864   40.6541 C   0  0  0  0  0  0  0  0  0  0  0  0
  5  6  1  0
 10 11  1  0
  1 15  1  0
 17 20  1  0
 20 21  2  0
 20 22  1  0
 22 23  1  0
 23 24  1  0
 24 25  1  0
 26 25  1  1
 26 27  1  0
 26 33  1  0
 33 34  1  0
 15 35  1  0
  1  2  2  0
  2  7  1  0
  7  5  2  0
  5  4  1  0
  4  3  2  0
  3  1  1  0
 27 28  2  0
 28 29  1  0
 29 30  2  0
 30 31  1  0
 31 32  2  0
 32 27  1  0
 11 12  2  0
 12 16  1  0
 16 17  2  0
 17 18  1  0
 18 19  2  0
 19 11  1  0
  6  8  2  0
  8  9  1  0
  9 10  2  0
 10 14  1  0
 14 13  2  0
 13  6  1  0
M  END
$$$$
O14757_PocketFlow_idx-in-all-generaetd-734
     RDKit          3D

 35 39  0  0  0  0  0  0  0  0999 V2000
   -0.6395   -2.0713   41.4947 C   0  0  0  0  0  0  0  0  0  0  0  0
    0.1859   -1.1027   41.5970 C   0  0  0  0  0  0  0  0  0  0  0  0
    1.5836   -1.3270   41.4670 C   0  0  2  0  0  0  0  0  0  0  0  0
    2.0058   -2.5866   41.9471 C   0  0  0  0  0  0  0  0  0  0  0  0
   -0.2986   -3.3057   41.9141 N   0  0  0  0  0  0  0  0  0  0  0  0
    0.9173   -3.2778   42.6555 C   0  0  1  0  0  0  0  0  0  0  0  0
   -2.0253   -1.9746   41.4899 N   0  0  0  0  0  0  0  0  0  0  0  0
    1.1007   -3.9049   43.9417 C   0  0  0  0  0  0  0  0  0  0  0  0
    2.2519   -3.7756   44.7123 C   0  0  0  0  0  0  0  0  0  0  0  0
    2.5785   -4.6605   45.6662 C   0  0  0  0  0  0  0  0  0  0  0  0
    1.5164   -5.5166   46.0841 C   0  0  0  0  0  0  0  0  0  0  0  0
    0.3206   -5.6125   45.4195 C   0  0  0  0  0  0  0  0  0  0  0  0
    0.1923   -4.8990   44.2857 C   0  0  0  0  0  0  0  0  0  0  0  0
   -0.6409   -6.6313   45.8001 C   0  0  0  0  0  0  0  0  0  0  0  0
   -1.6396   -6.7148   45.3207 O   0  0  0  0  0  0  0  0  0  0  0  0
   -0.3477   -7.3086   46.9795 N   0  0  0  0  0  0  0  0  0  0  0  0
   -1.2472   -8.2547   47.6282 C   0  0  0  0  0  0  0  0  0  0  0  0
   -2.4662   -8.1012   47.4485 C   0  0  0  0  0  0  0  0  0  0  0  0
    2.6696   -0.0143   41.2359 Cl  0  0  0  0  0  0  0  0  0  0  0  0
   -0.5520   -9.1990   48.3756 C   0  0  0  0  0  0  0  0  0  0  0  0
   -3.2982   -9.0037   48.2718 C   0  0  0  0  0  0  0  0  0  0  0  0
   -1.3605  -10.0461   49.1833 C   0  0  0  0  0  0  0  0  0  0  0  0
   -2.7136   -9.9114   49.1153 C   0  0  0  0  0  0  0  0  0  0  0  0
    3.7838   -4.4589   46.4374 C   0  0  0  0  0  0  0  0  0  0  0  0
    4.6179   -3.3648   46.2840 C   0  0  0  0  0  0  0  0  0  0  0  0
    5.9298   -3.3325   46.9337 C   0  0  0  0  0  0  0  0  0  0  0  0
    6.3212   -4.3745   47.7917 C   0  0  0  0  0  0  0  0  0  0  0  0
    5.3963   -5.4549   47.9583 C   0  0  0  0  0  0  0  0  0  0  0  0
    4.3017   -5.5369   47.2478 C   0  0  0  0  0  0  0  0  0  0  0  0
    7.5764   -4.2467   48.5400 C   0  0  0  0  0  0  0  0  0  0  0  0
    8.3560   -5.1649   48.4803 N   0  0  0  0  0  0  0  0  0  0  0  0
    9.2747   -5.3513   48.0766 C   0  0  0  0  0  0  0  0  0  0  0  0
    9.8766   -4.3581   47.2931 C   0  0  0  0  0  0  0  0  0  0  0  0
    9.5786   -3.0690   47.6569 C   0  0  0  0  0  0  0  0  0  0  0  0
    8.2025   -3.0144   48.1431 C   0  0  0  0  0  0  0  0  0  0  0  0
  1  2  1  0
  2  3  1  0
  3  4  1  0
  1  5  1  0
  4  6  1  0
  5  6  1  0
  1  7  2  3
  6  8  1  6
 12 14  1  0
 14 15  2  0
 14 16  1  0
 16 17  1  0
  3 19  1  1
 10 24  1  0
 27 30  1  0
 24 25  2  0
 25 26  1  0
 26 27  2  0
 27 28  1  0
 28 29  2  0
 29 24  1  0
 30 31  2  0
 31 32  1  0
 32 33  2  0
 33 34  1  0
 34 35  2  0
 35 30  1  0
 17 18  2  0
 18 21  1  0
 21 23  2  0
 23 22  1  0
 22 20  2  0
 20 17  1  0
  8  9  2  0
  9 10  1  0
 10 11  2  0
 11 12  1  0
 12 13  2  0
 13  8  1  0
M  END
$$$$
O14757_PocketFlow_idx-in-all-generaetd-735
     RDKit          3D

 27 30  0  0  0  0  0  0  0  0999 V2000
   -0.6395   -2.0713   41.4947 C   0  0  0  0  0  0  0  0  0  0  0  0
    0.6719   -2.2449   41.7518 C   0  0  0  0  0  0  0  0  0  0  0  0
    1.5951   -1.1948   41.6106 C   0  0  0  0  0  0  0  0  0  0  0  0
    2.8936   -1.2860   42.2441 C   0  0  0  0  0  0  0  0  0  0  0  0
    3.2021   -2.2591   43.1862 C   0  0  0  0  0  0  0  0  0  0  0  0
    4.4778   -2.3024   43.8362 C   0  0  0  0  0  0  0  0  0  0  0  0
    4.7426   -3.3366   44.7696 C   0  0  0  0  0  0  0  0  0  0  0  0
    3.7781   -4.3783   44.8929 C   0  0  0  0  0  0  0  0  0  0  0  0
    2.4629   -3.4328   43.5383 C   0  0  0  0  0  0  0  0  0  0  0  0
    2.6117   -4.3408   44.3879 C   0  0  0  0  0  0  0  0  0  0  0  0
    1.0549   -3.3556   42.8846 N   0  0  0  0  0  0  0  0  0  0  0  0
    6.0797   -3.3334   45.4565 C   0  0  0  0  0  0  0  0  0  0  0  0
    6.8080   -2.2008   45.5511 C   0  0  0  0  0  0  0  0  0  0  0  0
    8.0895   -2.2546   46.2220 C   0  0  0  0  0  0  0  0  0  0  0  0
    8.9768   -1.1253   46.1995 C   0  0  0  0  0  0  0  0  0  0  0  0
   10.0992   -1.1379   46.9112 N   0  0  0  0  0  0  0  0  0  0  0  0
   10.4889   -2.2330   47.5855 C   0  0  0  0  0  0  0  0  0  0  0  0
    9.6948   -3.3359   47.5713 N   0  0  0  0  0  0  0  0  0  0  0  0
    8.5193   -3.3932   46.9179 C   0  0  0  0  0  0  0  0  0  0  0  0
   -1.2586   -1.0284   41.4431 O   0  0  0  0  0  0  0  0  0  0  0  0
   -1.2885   -3.1705   40.8908 O   0  0  0  0  0  0  0  0  0  0  0  0
    1.4901   -5.1479   44.7076 C   0  0  0  0  0  0  0  0  0  0  0  0
    0.7149   -4.9675   45.7900 C   0  0  0  0  0  0  0  0  0  0  0  0
   -0.3304   -5.8728   46.0693 C   0  0  0  0  0  0  0  0  0  0  0  0
   -0.6131   -6.9318   45.2974 C   0  0  0  0  0  0  0  0  0  0  0  0
    0.1231   -7.0650   44.0771 C   0  0  0  0  0  0  0  0  0  0  0  0
    1.1300   -6.2604   43.8767 C   0  0  0  0  0  0  0  0  0  0  0  0
  1  2  1  0
  7 12  1  0
 12 13  2  3
 13 14  1  0
  1 20  2  0
  1 21  1  0
 10 22  1  0
 14 15  2  0
 15 16  1  0
 16 17  2  0
 17 18  1  0
 18 19  2  0
 19 14  1  0
 22 23  2  0
 23 24  1  0
 24 25  2  0
 25 26  1  0
 26 27  2  0
 27 22  1  0
  5  6  1  0
  6  7  2  0
  7  8  1  0
  8 10  2  0
 10  9  1  0
  2  3  2  0
  3  4  1  0
  4  5  2  0
  5  9  1  0
  9 11  2  0
 11  2  1  0
M  END
$$$$
O14757_PocketFlow_idx-in-all-generaetd-736
     RDKit          3D

 17 18  0  0  0  0  0  0  0  0999 V2000
   -0.6395   -2.0713   41.4947 C   0  0  0  0  0  0  0  0  0  0  0  0
    0.6719   -2.2449   41.7518 C   0  0  0  0  0  0  0  0  0  0  0  0
    1.5951   -1.1948   41.6106 C   0  0  0  0  0  0  0  0  0  0  0  0
    2.8936   -1.2860   42.2441 C   0  0  0  0  0  0  0  0  0  0  0  0
    3.2021   -2.2591   43.1862 C   0  0  0  0  0  0  0  0  0  0  0  0
    2.2602   -3.3290   43.4161 C   0  0  0  0  0  0  0  0  0  0  0  0
    0.9345   -3.1830   42.7957 C   0  0  0  0  0  0  0  0  0  0  0  0
    4.4481   -2.4543   43.8624 C   0  0  0  0  0  0  0  0  0  0  0  0
    4.7617   -3.3786   44.8197 C   0  0  0  0  0  0  0  0  0  0  0  0
    3.8606   -4.4792   44.8068 C   0  0  0  0  0  0  0  0  0  0  0  0
    2.5183   -4.3877   44.3122 C   0  0  0  0  0  0  0  0  0  0  0  0
    6.0131   -3.3917   45.5089 C   0  0  0  0  0  0  0  0  0  0  0  0
    6.1904   -2.4718   46.5476 C   0  0  0  0  0  0  0  0  0  0  0  0
   -1.3747   -3.0639   41.1005 O   0  0  0  0  0  0  0  0  0  0  0  0
   -1.2191   -0.8609   41.4089 O   0  0  0  0  0  0  0  0  0  0  0  0
    1.5366   -5.3201   44.7217 C   0  0  0  0  0  0  0  0  0  0  0  0
    1.5997   -6.6210   44.5506 C   0  0  0  0  0  0  0  0  0  0  0  0
  1  2  1  0
  9 12  1  0
 12 13  1  0
  1 14  2  0
  1 15  1  0
 11 16  1  0
 16 17  1  0
  6 11  1  0
 11 10  2  0
 10  9  1  0
  9  8  2  0
  8  5  1  0
  2  3  2  0
  3  4  1  0
  4  5  2  0
  5  6  1  0
  6  7  2  0
  7  2  1  0
M  END
$$$$
O14757_PocketFlow_idx-in-all-generaetd-737
     RDKit          3D

  9  9  0  0  0  0  0  0  0  0999 V2000
   -0.6395   -2.0713   41.4947 C   0  0  0  0  0  0  0  0  0  0  0  0
   -0.2671   -3.2464   41.6546 C   0  0  0  0  0  0  0  0  0  0  0  0
    0.2407   -0.9706   41.5952 C   0  0  0  0  0  0  0  0  0  0  0  0
    1.6195   -1.2958   41.8767 C   0  0  0  0  0  0  0  0  0  0  0  0
    1.9162   -2.6816   42.2016 C   0  0  0  0  0  0  0  0  0  0  0  0
    0.9422   -3.6324   42.1156 C   0  0  0  0  0  0  0  0  0  0  0  0
    2.6136   -0.2815   42.1191 C   0  0  0  0  0  0  0  0  0  0  0  0
    3.9096   -0.5773   42.5950 C   0  0  0  0  0  0  0  0  0  0  0  0
    4.1759   -1.7281   43.3706 C   0  0  0  0  0  0  0  0  0  0  0  0
  4  7  1  0
  7  8  1  0
  8  9  2  0
  1  2  2  0
  2  6  1  0
  6  5  2  0
  5  4  1  0
  4  3  2  0
  3  1  1  0
M  END
$$$$
O14757_PocketFlow_idx-in-all-generaetd-738
     RDKit          3D

 10  9  0  0  0  0  0  0  0  0999 V2000
    0.2881   -2.9111   42.4378 C   0  0  0  0  0  0  0  0  0  0  0  0
    1.1784   -3.4293   42.9321 C   0  0  0  0  0  0  0  0  0  0  0  0
    1.6466   -3.2662   44.1990 C   0  0  0  0  0  0  0  0  0  0  0  0
    0.3564   -2.2463   41.1541 C   0  0  0  0  0  0  0  0  0  0  0  0
    2.8137   -4.0354   44.7243 C   0  0  0  0  0  0  0  0  0  0  0  0
    4.1299   -3.3780   44.6563 C   0  0  0  0  0  0  0  0  0  0  0  0
    5.1601   -3.7899   45.4729 C   0  0  0  0  0  0  0  0  0  0  0  0
    6.3357   -2.9688   45.6186 C   0  0  0  0  0  0  0  0  0  0  0  0
    6.2748   -1.6931   45.5263 C   0  0  0  0  0  0  0  0  0  0  0  0
    5.2514   -1.2113   44.5316 C   0  0  0  0  0  0  0  0  0  0  0  0
  1  2  1  0
  2  3  1  0
  1  4  1  0
  3  5  1  0
  5  6  2  3
  6  7  1  0
  7  8  1  0
  8  9  2  3
  9 10  1  0
M  END
$$$$
O14757_PocketFlow_idx-in-all-generaetd-739
     RDKit          3D

 30 33  0  0  0  0  0  0  0  0999 V2000
   -0.6395   -2.0713   41.4947 C   0  0  0  0  0  0  0  0  0  0  0  0
    0.6719   -2.2449   41.7518 C   0  0  0  0  0  0  0  0  0  0  0  0
    1.5951   -1.1948   41.6106 C   0  0  0  0  0  0  0  0  0  0  0  0
    2.9587   -1.3961   42.0241 C   0  0  0  0  0  0  0  0  0  0  0  0
    3.8815   -0.3441   42.0598 C   0  0  0  0  0  0  0  0  0  0  0  0
    4.4886   -0.0976   43.3461 C   0  0  0  0  0  0  0  0  0  0  0  0
   -1.1126   -0.7332   41.3749 C   0  0  0  0  0  0  0  0  0  0  0  0
    4.8030   -1.1766   44.2353 C   0  0  0  0  0  0  0  0  0  0  0  0
    5.6100   -1.1265   45.3327 C   0  0  0  0  0  0  0  0  0  0  0  0
    4.2037   -2.4060   43.9029 C   0  0  0  0  0  0  0  0  0  0  0  0
    3.1094   -2.4605   42.9846 C   0  0  0  0  0  0  0  0  0  0  0  0
   -2.4400   -0.6006   41.1425 N   0  0  0  0  0  0  0  0  0  0  0  0
    4.3963   -3.5563   44.7463 C   0  0  0  0  0  0  0  0  0  0  0  0
    3.8281   -4.7607   44.6653 C   0  0  0  0  0  0  0  0  0  0  0  0
    5.4204   -3.4124   45.8506 C   0  0  0  0  0  0  0  0  0  0  0  0
    6.0289   -2.1820   46.1189 C   0  0  0  0  0  0  0  0  0  0  0  0
    3.1602   -5.4170   45.7551 C   0  0  0  0  0  0  0  0  0  0  0  0
    1.8194   -5.7906   45.4803 C   0  0  0  0  0  0  0  0  0  0  0  0
    0.8385   -4.8506   45.5195 C   0  0  0  0  0  0  0  0  0  0  0  0
   -0.3893   -5.1868   45.9175 O   0  0  0  0  0  0  0  0  0  0  0  0
    1.4267   -7.1023   45.2013 C   0  0  2  0  0  0  0  0  0  0  0  0
    0.0838   -7.4621   45.1912 C   0  0  0  0  0  0  0  0  0  0  0  0
   -0.8928   -6.3739   45.4803 C   0  0  0  0  0  0  0  0  0  0  0  0
   -1.9197   -6.2339   44.7790 F   0  0  0  0  0  0  0  0  0  0  0  0
   -3.1059   -1.6098   40.7778 C   0  0  0  0  0  0  0  0  0  0  0  0
   -2.6924   -2.8678   40.7258 N   0  0  0  0  0  0  0  0  0  0  0  0
   -1.4269   -3.0962   41.0986 C   0  0  0  0  0  0  0  0  0  0  0  0
   -4.4324   -1.1863   40.4243 N   0  0  0  0  0  0  0  0  0  0  0  0
    2.2124   -8.0526   45.9551 O   0  0  0  0  0  0  0  0  0  0  0  0
   -1.5146   -6.8684   46.7414 F   0  0  0  0  0  0  0  0  0  0  0  0
  1  2  1  0
  2  3  2  3
  3  4  1  0
 13 14  1  0
 14 17  1  0
 17 18  1  0
 18 19  1  0
 19 20  1  0
 18 21  1  0
 21 22  1  0
 20 23  1  0
 22 23  1  0
 23 24  1  0
 25 28  1  0
 21 29  1  1
 23 30  1  0
  8  9  1  0
  9 16  2  0
 16 15  1  0
 15 13  2  0
 13 10  1  0
  4  5  2  0
  5  6  1  0
  6  8  2  0
  8 10  1  0
 10 11  2  0
 11  4  1  0
  1  7  2  0
  7 12  1  0
 12 25  2  0
 25 26  1  0
 26 27  2  0
 27  1  1  0
M  END
$$$$
O14757_PocketFlow_idx-in-all-generaetd-740
     RDKit          3D

 33 36  0  0  0  0  0  0  0  0999 V2000
   -0.6395   -2.0713   41.4947 C   0  0  0  0  0  0  0  0  0  0  0  0
    0.1859   -1.1027   41.5970 C   0  0  0  0  0  0  0  0  0  0  0  0
    1.5836   -1.3270   41.4670 C   0  0  0  0  0  0  0  0  0  0  0  0
    2.5750   -0.4224   42.0442 C   0  0  0  0  0  0  0  0  0  0  0  0
    3.8156   -0.8009   42.5363 C   0  0  0  0  0  0  0  0  0  0  0  0
    3.8954   -2.0001   43.3166 C   0  0  0  0  0  0  0  0  0  0  0  0
    4.9435   -2.1857   44.2680 C   0  0  0  0  0  0  0  0  0  0  0  0
    5.0264   -3.2686   45.1193 C   0  0  0  0  0  0  0  0  0  0  0  0
    6.1182   -3.3111   45.9925 C   0  0  0  0  0  0  0  0  0  0  0  0
    7.0997   -2.2532   45.8782 C   0  0  0  0  0  0  0  0  0  0  0  0
    6.0920   -1.3059   44.3954 C   0  0  0  0  0  0  0  0  0  0  0  0
    7.1133   -1.2581   45.0956 C   0  0  0  0  0  0  0  0  0  0  0  0
   -1.9235   -1.9831   41.5291 O   0  0  0  0  0  0  0  0  0  0  0  0
   -0.0687   -3.3155   41.3221 N   0  0  0  0  0  0  0  0  0  0  0  0
   -0.8047   -4.5156   41.3752 C   0  0  0  0  0  0  0  0  0  0  0  0
    3.8543   -4.0321   45.1637 C   0  0  0  0  0  0  0  0  0  0  0  0
    3.4365   -4.4869   46.3727 C   0  0  0  0  0  0  0  0  0  0  0  0
    3.3311   -4.6393   44.0404 C   0  0  0  0  0  0  0  0  0  0  0  0
    2.1809   -5.1762   46.4630 C   0  0  0  0  0  0  0  0  0  0  0  0
    2.2405   -5.4277   44.0996 C   0  0  0  0  0  0  0  0  0  0  0  0
    1.6381   -5.6861   45.3258 C   0  0  0  0  0  0  0  0  0  0  0  0
    0.3922   -6.4564   45.4482 C   0  0  0  0  0  0  0  0  0  0  0  0
   -0.5392   -6.2707   46.2847 C   0  0  0  0  0  0  0  0  0  0  0  0
   -1.7597   -7.0370   46.3813 C   0  0  0  0  0  0  0  0  0  0  0  0
   -2.0525   -7.9184   45.3190 C   0  0  0  0  0  0  0  0  0  0  0  0
   -1.1613   -7.9227   44.2058 C   0  0  0  0  0  0  0  0  0  0  0  0
    0.0257   -7.2422   44.2680 C   0  0  0  0  0  0  0  0  0  0  0  0
   -3.2840   -8.6199   45.2378 C   0  0  0  0  0  0  0  0  0  0  0  0
   -3.6784   -9.5056   46.2050 C   0  0  0  0  0  0  0  0  0  0  0  0
   -4.1274   -8.4977   44.0766 C   0  0  0  0  0  0  0  0  0  0  0  0
   -5.2949   -9.1908   43.9506 C   0  0  0  0  0  0  0  0  0  0  0  0
   -4.9324  -10.1622   46.1501 C   0  0  0  0  0  0  0  0  0  0  0  0
   -5.7079   -9.9761   44.9839 C   0  0  0  0  0  0  0  0  0  0  0  0
  1  2  1  0
  2  3  1  0
  3  4  1  0
  4  5  1  0
  5  6  1  0
  6  7  1  0
  1 13  2  0
  1 14  1  0
 14 15  1  0
  8 16  1  0
 21 22  1  0
 25 28  1  0
  7  8  2  0
  8  9  1  0
  9 10  2  0
 10 12  1  0
 12 11  2  0
 11  7  1  0
 22 23  2  0
 23 24  1  0
 24 25  2  0
 25 26  1  0
 26 27  2  0
 27 22  1  0
 28 29  2  0
 29 32  1  0
 32 33  2  0
 33 31  1  0
 31 30  2  0
 30 28  1  0
 16 17  2  0
 17 19  1  0
 19 21  2  0
 21 20  1  0
 20 18  2  0
 18 16  1  0
M  END
$$$$
O14757_PocketFlow_idx-in-all-generaetd-741
     RDKit          3D

 31 33  0  0  0  0  0  0  0  0999 V2000
   -0.6395   -2.0713   41.4947 C   0  0  0  0  0  0  0  0  0  0  0  0
    0.1859   -1.1027   41.5970 C   0  0  0  0  0  0  0  0  0  0  0  0
    1.5836   -1.3270   41.4670 C   0  0  0  0  0  0  0  0  0  0  0  0
   -0.2462   -3.3905   41.2409 C   0  0  0  0  0  0  0  0  0  0  0  0
    2.5675   -0.3473   41.7943 C   0  0  0  0  0  0  0  0  0  0  0  0
    3.3930   -0.4657   42.9022 C   0  0  0  0  0  0  0  0  0  0  0  0
    4.8579   -0.3877   42.6635 C   0  0  0  0  0  0  0  0  0  0  0  0
    1.0900   -3.5960   41.1129 N   0  0  0  0  0  0  0  0  0  0  0  0
    1.9584   -2.5732   41.2241 C   0  0  0  0  0  0  0  0  0  0  0  0
    5.5592   -1.1046   43.7420 C   0  0  0  0  0  0  0  0  0  0  0  0
    4.9114   -1.8254   44.7273 C   0  0  0  0  0  0  0  0  0  0  0  0
    3.6041   -2.2002   44.6180 C   0  0  0  0  0  0  0  0  0  0  0  0
    2.9804   -1.5722   43.7662 C   0  0  0  0  0  0  0  0  0  0  0  0
    5.5831   -2.4423   45.8878 C   0  0  0  0  0  0  0  0  0  0  0  0
    6.0623   -3.7083   45.7990 C   0  0  0  0  0  0  0  0  0  0  0  0
   -2.0230   -1.8645   41.5839 O   0  0  0  0  0  0  0  0  0  0  0  0
    7.1613   -3.9259   46.7113 C   0  0  0  0  0  0  0  0  0  0  0  0
    6.8964   -4.5037   47.9749 C   0  0  0  0  0  0  0  0  0  0  0  0
    5.6472   -4.9593   48.3236 C   0  0  0  0  0  0  0  0  0  0  0  0
    5.5832   -5.5832   49.5857 N   0  0  0  0  0  0  0  0  0  0  0  0
    8.0033   -4.7397   48.9177 C   0  0  0  0  0  0  0  0  0  0  0  0
    9.1576   -3.9364   48.7623 C   0  0  0  0  0  0  0  0  0  0  0  0
    9.5237   -3.5940   47.5732 C   0  0  0  0  0  0  0  0  0  0  0  0
    8.4709   -3.3843   46.4888 C   0  0  0  0  0  0  0  0  0  0  0  0
    4.7145   -5.0329   47.5654 O   0  0  0  0  0  0  0  0  0  0  0  0
   -2.7197   -1.3853   40.4913 C   0  0  0  0  0  0  0  0  0  0  0  0
   10.8136   -2.9357   47.2635 C   0  0  0  0  0  0  0  0  0  0  0  0
   11.8158   -3.6703   46.9132 N   0  0  0  0  0  0  0  0  0  0  0  0
   12.9280   -3.1697   46.4836 C   0  0  0  0  0  0  0  0  0  0  0  0
   13.7898   -3.9846   46.1715 F   0  0  0  0  0  0  0  0  0  0  0  0
   12.7548   -2.1977   45.4145 N   0  0  0  0  0  0  0  0  0  0  0  0
  3  5  1  0
 11 14  1  0
 14 15  1  0
  1 16  1  0
 15 17  1  0
 18 19  1  0
 19 20  1  0
 19 25  2  0
 16 26  1  0
 23 27  1  0
 27 28  1  0
 28 29  2  3
 29 30  1  0
 29 31  1  0
  5  6  1  0
  6  7  2  0
  7 10  1  0
 10 11  2  0
 11 12  1  0
 12 13  2  0
 13  6  1  0
 17 18  2  0
 18 21  1  0
 21 22  2  0
 22 23  1  0
 23 24  2  0
 24 17  1  0
  1  2  2  0
  2  3  1  0
  3  9  2  0
  9  8  1  0
  8  4  2  0
  4  1  1  0
M  END
$$$$
O14757_PocketFlow_idx-in-all-generaetd-742
     RDKit          3D

 23 25  0  0  0  0  0  0  0  0999 V2000
    0.2881   -2.9111   42.4378 C   0  0  0  0  0  0  0  0  0  0  0  0
    1.3023   -2.0648   42.1981 C   0  0  0  0  0  0  0  0  0  0  0  0
    2.5313   -2.2887   42.6989 C   0  0  0  0  0  0  0  0  0  0  0  0
    3.5918   -1.3644   42.5325 C   0  0  0  0  0  0  0  0  0  0  0  0
    3.6351   -0.2593   42.8540 C   0  0  0  0  0  0  0  0  0  0  0  0
    0.5643   -4.0754   43.1822 C   0  0  0  0  0  0  0  0  0  0  0  0
    1.6976   -4.2079   43.9132 C   0  0  0  0  0  0  0  0  0  0  0  0
    2.7721   -3.2729   43.7054 C   0  0  0  0  0  0  0  0  0  0  0  0
    4.8575    0.6677   42.6404 C   0  0  0  0  0  0  0  0  0  0  0  0
    1.8369   -5.2922   44.8843 C   0  0  0  0  0  0  0  0  0  0  0  0
    1.1385   -5.6426   45.5188 F   0  0  0  0  0  0  0  0  0  0  0  0
    2.5235   -6.3272   44.1171 F   0  0  0  0  0  0  0  0  0  0  0  0
    1.1006   -1.0277   41.3562 N   0  0  0  0  0  0  0  0  0  0  0  0
    6.0433   -0.1936   42.4084 C   0  0  0  0  0  0  0  0  0  0  0  0
    4.9897   -1.8467   42.4009 N   0  0  0  0  0  0  0  0  0  0  0  0
    6.0352   -1.2972   42.4328 C   0  0  0  0  0  0  0  0  0  0  0  0
   -0.8212   -2.8098   41.6857 O   0  0  0  0  0  0  0  0  0  0  0  0
   -1.4502   -1.5925   41.6549 C   0  0  1  0  0  0  0  0  0  0  0  0
   -0.3775   -0.6193   41.1148 C   0  0  0  0  0  0  0  0  0  0  0  0
    2.9736   -4.9723   45.7349 F   0  0  0  0  0  0  0  0  0  0  0  0
   -2.7545   -1.4610   41.0104 C   0  0  0  0  0  0  0  0  0  0  0  0
   -3.1625   -2.4453   40.3272 O   0  0  0  0  0  0  0  0  0  0  0  0
   -3.3740   -0.3789   41.0629 O   0  0  0  0  0  0  0  0  0  0  0  0
  3  4  1  0
  7 10  1  0
 10 11  1  0
 10 12  1  0
  2 13  1  0
  1 17  1  0
 17 18  1  0
 13 19  2  0
 18 19  1  0
 10 20  1  0
 18 21  1  6
 21 22  1  0
 21 23  2  0
  1  2  2  0
  2  3  1  0
  3  8  2  0
  8  7  1  0
  7  6  2  0
  6  1  1  0
  4  5  2  0
  5  9  1  0
  9 14  2  0
 14 16  1  0
 16 15  2  0
 15  4  1  0
M  END
$$$$
O14757_PocketFlow_idx-in-all-generaetd-743
     RDKit          3D

 22 23  0  0  0  0  0  0  0  0999 V2000
   -0.8794   -1.9236   41.9357 O   0  0  0  0  0  0  0  0  0  0  0  0
    0.3070   -1.6014   41.6735 C   0  0  0  0  0  0  0  0  0  0  0  0
    0.8161   -0.2851   41.6101 C   0  0  0  0  0  0  0  0  0  0  0  0
    1.4272    0.1022   42.3665 C   0  0  0  0  0  0  0  0  0  0  0  0
    2.1382    1.4326   42.2553 C   0  0  0  0  0  0  0  0  0  0  0  0
    1.1166   -2.7325   41.4459 N   0  0  0  0  0  0  0  0  0  0  0  0
    1.9236    2.0221   41.2651 F   0  0  0  0  0  0  0  0  0  0  0  0
    0.6415   -4.0454   41.6484 C   0  0  0  0  0  0  0  0  0  0  0  0
    0.5302   -4.4148   43.0583 C   0  0  0  0  0  0  0  0  0  0  0  0
    1.3980   -3.7666   43.9748 C   0  0  0  0  0  0  0  0  0  0  0  0
    1.4551   -4.3309   45.2867 C   0  0  0  0  0  0  0  0  0  0  0  0
    2.3731   -3.8247   46.2466 C   0  0  0  0  0  0  0  0  0  0  0  0
    3.5920   -3.1844   45.7717 C   0  0  0  0  0  0  0  0  0  0  0  0
    4.6368   -2.8549   46.6687 C   0  0  0  0  0  0  0  0  0  0  0  0
    3.8273   -3.1562   44.3944 C   0  0  0  0  0  0  0  0  0  0  0  0
    2.6874   -3.3694   43.5145 C   0  0  0  0  0  0  0  0  0  0  0  0
    5.4566   -3.7633   47.2561 C   0  0  0  0  0  0  0  0  0  0  0  0
    5.1290   -4.4911   48.1771 C   0  0  0  0  0  0  0  0  0  0  0  0
    6.1734   -5.4322   48.8024 C   0  0  0  0  0  0  0  0  0  0  0  0
    7.4501   -5.3571   48.3590 C   0  0  0  0  0  0  0  0  0  0  0  0
    7.8393   -4.5083   47.3429 C   0  0  0  0  0  0  0  0  0  0  0  0
    6.8948   -3.6803   46.7461 C   0  0  0  0  0  0  0  0  0  0  0  0
  1  2  2  0
  2  3  1  0
  3  4  1  0
  4  5  1  0
  2  6  1  0
  5  7  1  0
  6  8  1  0
  8  9  1  0
  9 10  1  0
 13 14  1  0
 14 17  1  0
 10 11  2  0
 11 12  1  0
 12 13  2  0
 13 15  1  0
 15 16  2  0
 16 10  1  0
 17 18  2  0
 18 19  1  0
 19 20  2  0
 20 21  1  0
 21 22  2  0
 22 17  1  0
M  END
$$$$
O14757_PocketFlow_idx-in-all-generaetd-744
     RDKit          3D

 13 13  0  0  0  0  0  0  0  0999 V2000
   -0.8413   -1.9048   41.7918 F   0  0  0  0  0  0  0  0  0  0  0  0
    0.3337   -2.3483   41.5607 C   0  0  0  0  0  0  0  0  0  0  0  0
    1.3952   -1.4784   41.5215 C   0  0  0  0  0  0  0  0  0  0  0  0
    2.6743   -1.8191   42.0179 C   0  0  0  0  0  0  0  0  0  0  0  0
    3.6307   -0.7648   42.2494 C   0  0  0  0  0  0  0  0  0  0  0  0
    4.8112   -1.0026   43.0464 C   0  0  0  0  0  0  0  0  0  0  0  0
    5.5874   -0.0090   43.5623 C   0  0  0  0  0  0  0  0  0  0  0  0
    0.4212   -3.5784   41.2603 F   0  0  0  0  0  0  0  0  0  0  0  0
    4.9928   -2.3628   43.5024 C   0  0  0  0  0  0  0  0  0  0  0  0
    5.9134   -2.5526   44.6087 C   0  0  0  0  0  0  0  0  0  0  0  0
    5.3760    1.2253   43.0842 F   0  0  0  0  0  0  0  0  0  0  0  0
    6.7564   -1.5192   45.0161 C   0  0  0  0  0  0  0  0  0  0  0  0
    6.5870   -0.3079   44.5089 C   0  0  0  0  0  0  0  0  0  0  0  0
  1  2  1  0
  2  3  1  0
  3  4  1  0
  4  5  1  0
  2  8  1  0
  7 11  1  0
  5  6  1  0
  6  7  2  0
  7 13  1  0
 13 12  2  0
 12 10  1  0
 10  9  2  0
  9  6  1  0
M  END
$$$$
O14757_PocketFlow_idx-in-all-generaetd-745
     RDKit          3D

 27 30  0  0  0  0  0  0  0  0999 V2000
   -0.8794   -1.9236   41.9357 O   0  0  0  0  0  0  0  0  0  0  0  0
    0.3070   -1.6014   41.6735 C   0  0  1  0  0  0  0  0  0  0  0  0
    1.2548   -2.6723   41.5755 C   0  0  0  0  0  0  0  0  0  0  0  0
    0.4951   -3.8444   41.7629 C   0  0  2  0  0  0  0  0  0  0  0  0
   -0.9433   -3.3970   41.4892 C   0  0  0  0  0  0  0  0  0  0  0  0
    0.4453   -0.4962   40.7743 N   0  0  0  0  0  0  0  0  0  0  0  0
    0.4100   -4.2462   43.1224 O   0  0  0  0  0  0  0  0  0  0  0  0
    1.4146   -3.8881   43.9629 C   0  0  2  0  0  0  0  0  0  0  0  0
    2.7686   -3.8809   43.8328 C   0  0  0  0  0  0  0  0  0  0  0  0
    3.6411   -3.6246   44.9207 C   0  0  0  0  0  0  0  0  0  0  0  0
    4.8721   -2.9670   44.8867 C   0  0  0  0  0  0  0  0  0  0  0  0
    5.0119   -1.9240   43.8982 C   0  0  0  0  0  0  0  0  0  0  0  0
    6.1148   -1.0078   43.9380 C   0  0  0  0  0  0  0  0  0  0  0  0
    7.1392   -1.3178   44.9322 C   0  0  0  0  0  0  0  0  0  0  0  0
    7.0275   -2.4211   45.7989 C   0  0  0  0  0  0  0  0  0  0  0  0
    5.8698   -3.2204   45.7770 C   0  0  0  0  0  0  0  0  0  0  0  0
    0.9999   -3.9695   45.4558 C   0  0  0  0  0  0  0  0  0  0  0  0
    8.1693   -2.7171   46.6938 C   0  0  0  0  0  0  0  0  0  0  0  0
    9.2953   -1.9654   46.8463 C   0  0  0  0  0  0  0  0  0  0  0  0
   10.3150   -2.2311   47.6692 C   0  0  0  0  0  0  0  0  0  0  0  0
   10.2383   -3.3677   48.4463 C   0  0  0  0  0  0  0  0  0  0  0  0
    8.1606   -3.9124   47.4969 C   0  0  0  0  0  0  0  0  0  0  0  0
    9.1694   -4.2189   48.3459 C   0  0  0  0  0  0  0  0  0  0  0  0
   -0.4284   -4.1267   45.6709 C   0  0  0  0  0  0  0  0  0  0  0  0
    3.7502   -4.9633   45.6975 C   0  0  0  0  0  0  0  0  0  0  0  0
    4.4778   -4.8760   46.6566 O   0  0  0  0  0  0  0  0  0  0  0  0
    5.8430   -4.3651   46.5861 C   0  0  0  0  0  0  0  0  0  0  0  0
  1  2  1  0
  2  3  1  0
  3  4  1  0
  1  5  1  0
  4  5  1  0
  2  6  1  6
  4  7  1  1
  7  8  1  0
  8  9  1  0
  9 10  2  3
 10 11  1  0
  8 17  1  1
 15 18  1  0
 17 24  1  0
 10 25  1  0
 25 26  1  0
 16 27  1  0
 26 27  1  0
 11 12  2  0
 12 13  1  0
 13 14  2  0
 14 15  1  0
 15 16  2  0
 16 11  1  0
 18 19  2  0
 19 20  1  0
 20 21  2  0
 21 23  1  0
 23 22  2  0
 22 18  1  0
M  END
$$$$
O14757_PocketFlow_idx-in-all-generaetd-746
     RDKit          3D

 35 39  0  0  0  0  0  0  0  0999 V2000
   -0.8794   -1.9236   41.9357 O   0  0  0  0  0  0  0  0  0  0  0  0
    0.3070   -1.6014   41.6735 C   0  0  0  0  0  0  0  0  0  0  0  0
    0.8076   -0.3104   41.6588 C   0  0  0  0  0  0  0  0  0  0  0  0
    2.1558   -0.1129   41.4921 C   0  0  0  0  0  0  0  0  0  0  0  0
    3.0246   -0.6314   42.2949 C   0  0  0  0  0  0  0  0  0  0  0  0
    2.7387   -1.9511   42.8019 C   0  0  0  0  0  0  0  0  0  0  0  0
    3.6638   -2.7423   43.4808 C   0  0  0  0  0  0  0  0  0  0  0  0
    3.3289   -3.9217   44.0875 C   0  0  0  0  0  0  0  0  0  0  0  0
    1.3767   -2.4139   42.5616 C   0  0  0  0  0  0  0  0  0  0  0  0
    4.3257   -4.5779   44.8634 C   0  0  0  0  0  0  0  0  0  0  0  0
    3.8327   -5.7115   45.6240 C   0  0  0  0  0  0  0  0  0  0  0  0
    2.6107   -6.3050   45.2964 C   0  0  0  0  0  0  0  0  0  0  0  0
    1.6838   -5.5370   44.6236 C   0  0  0  0  0  0  0  0  0  0  0  0
    2.0297   -4.3348   44.0174 C   0  0  0  0  0  0  0  0  0  0  0  0
    0.9715   -3.6513   43.1941 C   0  0  0  0  0  0  0  0  0  0  0  0
    4.4251   -0.1556   42.4676 C   0  0  0  0  0  0  0  0  0  0  0  0
    4.8492    0.8493   42.0524 O   0  0  0  0  0  0  0  0  0  0  0  0
    5.3136   -0.8849   43.4506 C   0  0  0  0  0  0  0  0  0  0  0  0
    4.9043   -2.1444   43.9264 C   0  0  0  0  0  0  0  0  0  0  0  0
    0.3548   -6.1307   44.4531 C   0  0  0  0  0  0  0  0  0  0  0  0
   -0.2348   -6.2941   43.5442 O   0  0  0  0  0  0  0  0  0  0  0  0
   -0.3786   -6.1323   45.6791 N   0  0  0  0  0  0  0  0  0  0  0  0
   -1.6474   -6.7311   45.9040 C   0  0  0  0  0  0  0  0  0  0  0  0
   -1.3817   -7.7817   47.0018 C   0  0  0  0  0  0  0  0  0  0  0  0
   -0.1596   -8.2884   47.1372 C   0  0  0  0  0  0  0  0  0  0  0  0
   -2.5664   -8.2922   47.6707 C   0  0  0  0  0  0  0  0  0  0  0  0
    0.0484   -9.3220   48.1457 C   0  0  0  0  0  0  0  0  0  0  0  0
   -1.0389   -9.8241   48.8253 C   0  0  0  0  0  0  0  0  0  0  0  0
   -2.3166   -9.2661   48.6654 C   0  0  0  0  0  0  0  0  0  0  0  0
    1.3948   -9.8803   48.3880 C   0  0  0  0  0  0  0  0  0  0  0  0
    2.2472   -9.8526   47.3407 C   0  0  0  0  0  0  0  0  0  0  0  0
    3.4590   -8.9886   47.5104 C   0  0  0  0  0  0  0  0  0  0  0  0
    4.7502   -9.6667   47.0861 C   0  0  0  0  0  0  0  0  0  0  0  0
    5.9542   -9.2054   47.7308 C   0  0  0  0  0  0  0  0  0  0  0  0
    7.1487   -9.8350   47.5241 C   0  0  0  0  0  0  0  0  0  0  0  0
  1  2  1  0
  5 16  1  0
 16 17  2  0
 16 18  1  0
  7 19  1  0
 18 19  1  0
 13 20  1  0
 20 21  2  0
 20 22  1  0
 22 23  1  0
 23 24  1  0
 27 30  1  0
 30 31  1  0
 31 32  1  0
 32 33  1  0
 33 34  1  0
 34 35  2  0
  8 10  2  0
 10 11  1  0
 11 12  2  0
 12 13  1  0
 13 14  2  0
  6  7  2  0
  7  8  1  0
  8 14  1  0
 14 15  1  0
 15  9  2  0
 24 25  2  0
 25 27  1  0
 27 28  2  0
 28 29  1  0
 29 26  2  0
 26 24  1  0
  2  3  2  0
  3  4  1  0
  4  5  2  0
  5  6  1  0
  6  9  1  0
  9  2  1  0
M  END
$$$$
O14757_PocketFlow_idx-in-all-generaetd-747
     RDKit          3D

 26 27  0  0  0  0  0  0  0  0999 V2000
   -0.6395   -2.0713   41.4947 C   0  0  0  0  0  0  0  0  0  0  0  0
    0.1859   -1.1027   41.5970 C   0  0  0  0  0  0  0  0  0  0  0  0
    1.5836   -1.3270   41.4670 C   0  0  0  0  0  0  0  0  0  0  0  0
    2.5750   -0.4224   42.0442 C   0  0  0  0  0  0  0  0  0  0  0  0
    3.8156   -0.8009   42.5363 C   0  0  0  0  0  0  0  0  0  0  0  0
    3.8954   -2.0001   43.3166 C   0  0  0  0  0  0  0  0  0  0  0  0
    4.9435   -2.1857   44.2680 C   0  0  0  0  0  0  0  0  0  0  0  0
    5.8933   -1.1671   44.3834 C   0  0  0  0  0  0  0  0  0  0  0  0
   -0.1270   -3.3859   41.1587 C   0  0  0  0  0  0  0  0  0  0  0  0
    5.7905   -0.0353   43.5692 C   0  0  0  0  0  0  0  0  0  0  0  0
    4.7377    0.2165   42.8112 C   0  0  0  0  0  0  0  0  0  0  0  0
    5.0915   -3.4979   44.9239 C   0  0  0  0  0  0  0  0  0  0  0  0
    1.2625   -3.5778   41.1268 C   0  0  0  0  0  0  0  0  0  0  0  0
    2.0266   -2.6113   41.3329 C   0  0  0  0  0  0  0  0  0  0  0  0
    6.0846   -3.6001   45.5854 F   0  0  0  0  0  0  0  0  0  0  0  0
    3.9498   -3.5710   45.7860 F   0  0  0  0  0  0  0  0  0  0  0  0
   -1.9963   -1.9048   41.4945 O   0  0  0  0  0  0  0  0  0  0  0  0
    4.8306   -4.4918   44.0625 F   0  0  0  0  0  0  0  0  0  0  0  0
   -2.6758   -1.3614   40.4510 C   0  0  2  0  0  0  0  0  0  0  0  0
   -3.3843   -0.1669   40.8038 C   0  0  0  0  0  0  0  0  0  0  0  0
   -3.7249   -2.4356   40.0225 C   0  0  0  0  0  0  0  0  0  0  0  0
   -4.7418   -1.9708   39.4179 O   0  0  0  0  0  0  0  0  0  0  0  0
    2.3006    0.8637   41.8332 O   0  0  0  0  0  0  0  0  0  0  0  0
   -4.0969   -0.0146   41.8853 O   0  0  0  0  0  0  0  0  0  0  0  0
   -3.0873    0.9474   40.2337 O   0  0  0  0  0  0  0  0  0  0  0  0
    7.2872   -1.3355   45.3266 Cl  0  0  0  0  0  0  0  0  0  0  0  0
  3  4  1  0
  4  5  1  0
  7 12  1  0
 12 15  1  0
 12 16  1  0
  1 17  1  0
 12 18  1  0
 19 17  1  1
 19 20  1  0
 19 21  1  0
 21 22  2  0
  4 23  2  0
 20 24  1  0
 20 25  1  0
  8 26  1  0
  1  2  2  0
  2  3  1  0
  3 14  2  0
 14 13  1  0
 13  9  2  0
  9  1  1  0
  5  6  2  0
  6  7  1  0
  7  8  2  0
  8 10  1  0
 10 11  2  0
 11  5  1  0
M  END
$$$$
O14757_PocketFlow_idx-in-all-generaetd-748
     RDKit          3D

 12 12  0  0  0  0  0  0  0  0999 V2000
   -0.6395   -2.0713   41.4947 C   0  0  0  0  0  0  0  0  0  0  0  0
    0.1859   -1.1027   41.5970 C   0  0  0  0  0  0  0  0  0  0  0  0
   -0.2410   -3.3795   41.5297 C   0  0  0  0  0  0  0  0  0  0  0  0
    1.6125   -1.3641   41.8466 C   0  0  0  0  0  0  0  0  0  0  0  0
    1.9568   -2.7213   42.1561 C   0  0  0  0  0  0  0  0  0  0  0  0
    0.9568   -3.6932   42.0424 C   0  0  0  0  0  0  0  0  0  0  0  0
    2.5392   -0.3092   42.1184 C   0  0  0  0  0  0  0  0  0  0  0  0
    3.8447   -0.5588   42.5830 C   0  0  0  0  0  0  0  0  0  0  0  0
    4.8063    0.5015   42.7724 C   0  0  0  0  0  0  0  0  0  0  0  0
   -1.9597   -1.8485   41.0827 O   0  0  0  0  0  0  0  0  0  0  0  0
    4.0185   -1.6603   43.5013 C   0  0  0  0  0  0  0  0  0  0  0  0
    3.8971   -2.8055   43.6817 C   0  0  0  0  0  0  0  0  0  0  0  0
  4  7  1  0
  7  8  2  3
  8  9  1  0
  1 10  1  0
  8 11  1  0
 11 12  1  0
  1  2  2  0
  2  4  1  0
  4  5  2  0
  5  6  1  0
  6  3  2  0
  3  1  1  0
M  END
$$$$
O14757_PocketFlow_idx-in-all-generaetd-749
     RDKit          3D

 12 12  0  0  0  0  0  0  0  0999 V2000
    0.2881   -2.9111   42.4378 C   0  0  0  0  0  0  0  0  0  0  0  0
    1.1784   -3.4293   42.9321 C   0  0  0  0  0  0  0  0  0  0  0  0
    1.7344   -3.2949   44.1416 C   0  0  0  0  0  0  0  0  0  0  0  0
   -0.1251   -3.1416   41.0579 C   0  0  0  0  0  0  0  0  0  0  0  0
    3.0147   -3.7421   44.4969 C   0  0  0  0  0  0  0  0  0  0  0  0
    3.9704   -3.2083   44.4929 C   0  0  0  0  0  0  0  0  0  0  0  0
    5.2691   -3.4790   45.2799 C   0  0  0  0  0  0  0  0  0  0  0  0
    6.3910   -2.5931   45.3001 C   0  0  0  0  0  0  0  0  0  0  0  0
    6.3593   -1.4073   44.5826 C   0  0  0  0  0  0  0  0  0  0  0  0
    5.2255   -1.0087   43.8632 C   0  0  0  0  0  0  0  0  0  0  0  0
    4.0725   -1.8201   43.8702 C   0  0  0  0  0  0  0  0  0  0  0  0
    2.9768   -5.2015   44.8684 C   0  0  0  0  0  0  0  0  0  0  0  0
  1  2  2  3
  2  3  1  0
  1  4  1  0
  3  5  1  0
  5  6  1  0
  5 12  1  0
  6  7  2  0
  7  8  1  0
  8  9  2  0
  9 10  1  0
 10 11  2  0
 11  6  1  0
M  END
$$$$
O14757_PocketFlow_idx-in-all-generaetd-750
     RDKit          3D

 15 16  0  0  0  0  0  0  0  0999 V2000
   -0.6395   -2.0713   41.4947 C   0  0  0  0  0  0  0  0  0  0  0  0
   -0.2671   -3.2464   41.6546 C   0  0  0  0  0  0  0  0  0  0  0  0
    0.2407   -0.9706   41.5952 C   0  0  0  0  0  0  0  0  0  0  0  0
    1.6195   -1.2958   41.8767 C   0  0  0  0  0  0  0  0  0  0  0  0
    2.6583   -0.3517   42.0703 C   0  0  0  0  0  0  0  0  0  0  0  0
    3.7100   -0.6049   42.9733 C   0  0  0  0  0  0  0  0  0  0  0  0
    4.8368    0.2467   43.1000 C   0  0  0  0  0  0  0  0  0  0  0  0
    1.0325   -3.6871   42.0225 C   0  0  0  0  0  0  0  0  0  0  0  0
    1.9426   -2.6215   42.1913 C   0  0  0  0  0  0  0  0  0  0  0  0
    3.8020   -1.8815   43.6219 C   0  0  0  0  0  0  0  0  0  0  0  0
    4.7847   -2.2553   44.5230 C   0  0  0  0  0  0  0  0  0  0  0  0
    5.8167   -1.2650   44.6882 C   0  0  0  0  0  0  0  0  0  0  0  0
    6.8300   -1.6081   45.5953 N   0  0  0  0  0  0  0  0  0  0  0  0
    5.8494   -0.0891   43.9765 C   0  0  0  0  0  0  0  0  0  0  0  0
    2.9969   -2.8392   43.0426 N   0  0  0  0  0  0  0  0  0  0  0  0
  4  5  1  0
  5  6  1  0
 12 13  1  0
 10 15  1  0
  1  2  2  0
  2  8  1  0
  8  9  2  0
  9  4  1  0
  4  3  2  0
  3  1  1  0
  6  7  2  0
  7 14  1  0
 14 12  2  0
 12 11  1  0
 11 10  2  0
 10  6  1  0
M  END
$$$$
O14757_PocketFlow_idx-in-all-generaetd-751
     RDKit          3D

 22 25  0  0  0  0  0  0  0  0999 V2000
    0.2881   -2.9111   42.4378 C   0  0  0  0  0  0  0  0  0  0  0  0
    1.1784   -3.4293   42.9321 C   0  0  0  0  0  0  0  0  0  0  0  0
    2.4507   -2.7243   42.9621 C   0  0  0  0  0  0  0  0  0  0  0  0
    3.6020   -3.2282   43.7398 C   0  0  0  0  0  0  0  0  0  0  0  0
    4.7688   -2.4047   43.9090 C   0  0  0  0  0  0  0  0  0  0  0  0
    5.7650   -2.7027   44.9133 C   0  0  0  0  0  0  0  0  0  0  0  0
    0.4356   -1.7623   41.5944 C   0  0  0  0  0  0  0  0  0  0  0  0
    1.5653   -1.0164   41.6357 C   0  0  0  0  0  0  0  0  0  0  0  0
    2.6127   -1.4812   42.3891 C   0  0  0  0  0  0  0  0  0  0  0  0
    5.4473   -2.8807   46.0365 C   0  0  0  0  0  0  0  0  0  0  0  0
    6.3873   -3.2226   47.1006 C   0  0  0  0  0  0  0  0  0  0  0  0
    7.7631   -3.0707   46.8177 C   0  0  0  0  0  0  0  0  0  0  0  0
    8.6927   -3.5565   47.7206 C   0  0  0  0  0  0  0  0  0  0  0  0
   10.0781   -3.3554   47.4022 C   0  0  0  0  0  0  0  0  0  0  0  0
    1.0558   -4.6299   43.8406 C   0  0  0  0  0  0  0  0  0  0  0  0
    0.2000   -5.5795   43.6776 C   0  0  0  0  0  0  0  0  0  0  0  0
    0.1513   -6.6839   44.5061 C   0  0  0  0  0  0  0  0  0  0  0  0
    1.0497   -6.7778   45.5751 C   0  0  0  0  0  0  0  0  0  0  0  0
    1.9480   -5.7926   45.8259 C   0  0  0  0  0  0  0  0  0  0  0  0
    2.0044   -4.6900   45.0217 C   0  0  0  0  0  0  0  0  0  0  0  0
    3.2590   -3.8823   44.8973 C   0  0  0  0  0  0  0  0  0  0  0  0
    4.2559   -4.0704   46.0783 C   0  0  0  0  0  0  0  0  0  0  0  0
  3  4  1  0
 10 11  1  0
 11 12  2  3
 12 13  1  0
 13 14  1  0
  2 15  1  0
 20 21  1  0
  4  5  2  0
  5  6  1  0
  6 10  2  0
 10 22  1  0
 22 21  2  0
 21  4  1  0
  1  2  2  0
  2  3  1  0
  3  9  2  0
  9  8  1  0
  8  7  2  0
  7  1  1  0
 15 16  2  0
 16 17  1  0
 17 18  2  0
 18 19  1  0
 19 20  2  0
 20 15  1  0
M  END
$$$$
O14757_PocketFlow_idx-in-all-generaetd-752
     RDKit          3D

 18 21  0  0  0  0  0  0  0  0999 V2000
    0.2881   -2.9111   42.4378 C   0  0  0  0  0  0  0  0  0  0  0  0
    1.1784   -3.4293   42.9321 C   0  0  0  0  0  0  0  0  0  0  0  0
    1.2340   -4.4107   43.9123 C   0  0  0  0  0  0  0  0  0  0  0  0
    0.2435   -5.3319   43.9966 C   0  0  0  0  0  0  0  0  0  0  0  0
    0.3425   -1.9172   41.4183 C   0  0  0  0  0  0  0  0  0  0  0  0
    1.3780   -1.0841   41.5467 C   0  0  0  0  0  0  0  0  0  0  0  0
    2.4604   -1.3895   42.3994 C   0  0  0  0  0  0  0  0  0  0  0  0
    3.6487   -0.6583   42.4877 C   0  0  0  0  0  0  0  0  0  0  0  0
    4.7290   -1.1138   43.3364 C   0  0  0  0  0  0  0  0  0  0  0  0
    2.3940   -2.5184   43.1009 C   0  0  0  0  0  0  0  0  0  0  0  0
    5.8161   -0.2257   43.6280 C   0  0  0  0  0  0  0  0  0  0  0  0
    0.3772   -6.5322   44.8093 C   0  0  0  0  0  0  0  0  0  0  0  0
    1.3436   -6.5230   45.8086 C   0  0  0  0  0  0  0  0  0  0  0  0
    2.3582   -5.6041   45.7718 C   0  0  0  0  0  0  0  0  0  0  0  0
    2.3966   -4.6280   44.9649 C   0  0  0  0  0  0  0  0  0  0  0  0
    4.8008   -2.4085   43.7425 C   0  0  0  0  0  0  0  0  0  0  0  0
    3.5558   -3.0614   43.7751 C   0  0  0  0  0  0  0  0  0  0  0  0
    3.4105   -3.8083   44.7543 N   0  0  0  0  0  0  0  0  0  0  0  0
  2  3  1  0
  9 11  1  0
 15 18  1  0
 17 18  1  0
  1  2  2  0
  2 10  1  0
  7  6  1  0
  6  5  2  0
  5  1  1  0
  3  4  2  0
  4 12  1  0
 12 13  2  0
 13 14  1  0
 14 15  2  0
 15  3  1  0
  7  8  2  0
  8  9  1  0
  9 16  2  0
 16 17  1  0
 17 10  2  0
 10  7  1  0
M  END
$$$$
O14757_PocketFlow_idx-in-all-generaetd-753
     RDKit          3D

 22 23  0  0  0  0  0  0  0  0999 V2000
   -0.6395   -2.0713   41.4947 C   0  0  0  0  0  0  0  0  0  0  0  0
   -0.2671   -3.2464   41.6546 C   0  0  0  0  0  0  0  0  0  0  0  0
    0.2407   -0.9706   41.5952 C   0  0  0  0  0  0  0  0  0  0  0  0
    1.5531   -1.3394   41.8399 C   0  0  0  0  0  0  0  0  0  0  0  0
    1.9123   -2.6863   42.1918 C   0  0  0  0  0  0  0  0  0  0  0  0
    0.9325   -3.6408   42.1137 C   0  0  0  0  0  0  0  0  0  0  0  0
    2.6100   -0.3048   42.0902 C   0  0  0  0  0  0  0  0  0  0  0  0
    3.8845   -0.6239   42.5736 C   0  0  0  0  0  0  0  0  0  0  0  0
    4.9338    0.2960   42.6939 C   0  0  0  0  0  0  0  0  0  0  0  0
   -2.0816   -1.7633   41.0564 C   0  0  0  0  0  0  0  0  0  0  0  0
   -2.5922   -0.6428   41.3415 O   0  0  0  0  0  0  0  0  0  0  0  0
   -2.7745   -2.6483   40.5264 O   0  0  0  0  0  0  0  0  0  0  0  0
    4.1271   -1.9125   43.1568 C   0  0  0  0  0  0  0  0  0  0  0  0
    5.4751   -1.9219   43.7601 C   0  0  0  0  0  0  0  0  0  0  0  0
    5.8968   -2.8882   44.6572 C   0  0  0  0  0  0  0  0  0  0  0  0
    5.9934   -0.5705   43.6944 C   0  0  0  0  0  0  0  0  0  0  0  0
    5.0573   -3.9579   45.0899 C   0  0  0  0  0  0  0  0  0  0  0  0
    3.9426   -4.3217   44.4081 C   0  0  0  0  0  0  0  0  0  0  0  0
    3.2058   -5.4099   44.8589 C   0  0  0  0  0  0  0  0  0  0  0  0
    2.1058   -5.2463   45.6620 C   0  0  0  0  0  0  0  0  0  0  0  0
    0.8650   -5.4090   45.1133 C   0  0  0  0  0  0  0  0  0  0  0  0
    0.5332   -6.1868   44.2148 C   0  0  0  0  0  0  0  0  0  0  0  0
  4  7  1  0
  7  8  2  3
  8  9  1  0
  1 10  1  0
 10 11  2  0
 10 12  1  0
  8 13  1  0
 13 14  2  0
 14 15  1  0
  9 16  2  0
 14 16  1  0
 15 17  2  3
 17 18  1  0
 18 19  1  0
 19 20  2  3
 20 21  1  0
 21 22  2  0
  1  2  2  0
  2  6  1  0
  6  5  2  0
  5  4  1  0
  4  3  2  0
  3  1  1  0
M  END
$$$$
O14757_PocketFlow_idx-in-all-generaetd-754
     RDKit          3D

 35 38  0  0  0  0  0  0  0  0999 V2000
   -0.6395   -2.0713   41.4947 C   0  0  0  0  0  0  0  0  0  0  0  0
    0.6719   -2.2449   41.7518 C   0  0  0  0  0  0  0  0  0  0  0  0
    1.3815   -1.6359   42.7231 C   0  0  0  0  0  0  0  0  0  0  0  0
   -1.3884   -2.9047   40.6798 C   0  0  0  0  0  0  0  0  0  0  0  0
    2.7413   -2.0881   43.0207 C   0  0  0  0  0  0  0  0  0  0  0  0
    3.8593   -1.2723   42.8875 C   0  0  0  0  0  0  0  0  0  0  0  0
    5.0530   -1.6743   43.6429 C   0  0  0  0  0  0  0  0  0  0  0  0
    5.0282   -2.9291   44.2548 C   0  0  0  0  0  0  0  0  0  0  0  0
    3.9151   -3.7347   44.2570 C   0  0  0  0  0  0  0  0  0  0  0  0
    3.9398   -4.9532   44.9058 C   0  0  0  0  0  0  0  0  0  0  0  0
    2.8000   -3.2674   43.7651 C   0  0  0  0  0  0  0  0  0  0  0  0
    3.0481   -5.1679   46.0551 C   0  0  0  0  0  0  0  0  0  0  0  0
    1.6649   -5.1622   45.5395 C   0  0  0  0  0  0  0  0  0  0  0  0
    0.9345   -6.1484   45.0630 C   0  0  0  0  0  0  0  0  0  0  0  0
   -0.3889   -6.0506   44.7252 C   0  0  0  0  0  0  0  0  0  0  0  0
   -1.1288   -7.2529   45.1391 C   0  0  2  0  0  0  0  0  0  0  0  0
   -2.3335   -7.5234   44.4570 C   0  0  0  0  0  0  0  0  0  0  0  0
    3.7933    0.0787   42.3178 C   0  0  0  0  0  0  0  0  0  0  0  0
   -3.3166   -8.2819   45.2118 C   0  0  0  0  0  0  0  0  0  0  0  0
   -4.6160   -8.3780   44.6773 C   0  0  0  0  0  0  0  0  0  0  0  0
   -5.6804   -8.3267   45.4555 C   0  0  0  0  0  0  0  0  0  0  0  0
   -5.4471   -8.6376   46.9027 C   0  0  0  0  0  0  0  0  0  0  0  0
   -4.1821   -8.5704   47.4703 C   0  0  0  0  0  0  0  0  0  0  0  0
   -3.1022   -8.3426   46.6422 C   0  0  0  0  0  0  0  0  0  0  0  0
   -1.8374   -8.0567   47.2181 C   0  0  0  0  0  0  0  0  0  0  0  0
   -0.8593   -7.2997   46.5201 C   0  0  0  0  0  0  0  0  0  0  0  0
   -2.7026   -2.6043   40.5829 N   0  0  0  0  0  0  0  0  0  0  0  0
   -2.8399   -1.4192   41.1565 N   0  0  0  0  0  0  0  0  0  0  0  0
   -1.6067   -1.0342   41.6562 C   0  0  0  0  0  0  0  0  0  0  0  0
   -4.7671   -8.6742   43.2747 C   0  0  0  0  0  0  0  0  0  0  0  0
   -5.9728   -9.0511   42.6741 C   0  0  0  0  0  0  0  0  0  0  0  0
   -6.0159   -9.0963   41.3073 C   0  0  0  0  0  0  0  0  0  0  0  0
   -7.1386   -9.5773   40.7202 C   0  0  0  0  0  0  0  0  0  0  0  0
   -8.2822   -9.9161   41.4959 C   0  0  0  0  0  0  0  0  0  0  0  0
   -8.1958   -9.8060   42.8836 C   0  0  0  0  0  0  0  0  0  0  0  0
  1  2  1  0
  2  3  2  3
  1  4  1  0
  3  5  1  0
  9 10  1  0
 10 12  1  0
 12 13  1  0
 13 14  2  3
 14 15  1  0
 16 15  1  1
 16 17  1  0
  6 18  1  0
 17 19  1  0
 24 25  1  0
 16 26  1  0
 25 26  1  0
  4 27  1  0
 27 28  2  0
  1 29  1  0
 28 29  1  0
 20 30  1  0
 30 31  1  0
 31 32  2  3
 32 33  1  0
 33 34  2  3
 34 35  1  0
 19 20  2  0
 20 21  1  0
 21 22  2  0
 22 23  1  0
 23 24  2  0
 24 19  1  0
  5  6  2  0
  6  7  1  0
  7  8  2  0
  8  9  1  0
  9 11  2  0
 11  5  1  0
M  END
$$$$
O14757_PocketFlow_idx-in-all-generaetd-755
     RDKit          3D

 23 25  0  0  0  0  0  0  0  0999 V2000
    0.2881   -2.9111   42.4378 C   0  0  0  0  0  0  0  0  0  0  0  0
    1.1784   -3.4293   42.9321 C   0  0  0  0  0  0  0  0  0  0  0  0
    2.4696   -2.7231   42.8997 C   0  0  0  0  0  0  0  0  0  0  0  0
    2.5380   -1.5398   42.2487 C   0  0  0  0  0  0  0  0  0  0  0  0
    0.2254   -1.7181   41.6878 C   0  0  0  0  0  0  0  0  0  0  0  0
    1.4043   -1.0577   41.5785 C   0  0  0  0  0  0  0  0  0  0  0  0
    3.5066   -3.2303   43.7712 C   0  0  0  0  0  0  0  0  0  0  0  0
    4.6677   -2.4243   44.1091 C   0  0  0  0  0  0  0  0  0  0  0  0
    5.5666   -2.8399   45.0709 C   0  0  0  0  0  0  0  0  0  0  0  0
    6.7953   -2.1009   45.3815 C   0  0  0  0  0  0  0  0  0  0  0  0
    6.8986   -0.8792   44.6397 C   0  0  0  0  0  0  0  0  0  0  0  0
    4.9632   -1.1436   43.5179 C   0  0  0  0  0  0  0  0  0  0  0  0
    5.9774   -0.4202   43.9935 C   0  0  0  0  0  0  0  0  0  0  0  0
    7.9385   -2.5711   46.2185 C   0  0  0  0  0  0  0  0  0  0  0  0
    7.9292   -3.9258   46.6662 C   0  0  0  0  0  0  0  0  0  0  0  0
    9.0857   -4.3632   47.3065 C   0  0  0  0  0  0  0  0  0  0  0  0
    9.0420   -1.8693   46.5356 C   0  0  0  0  0  0  0  0  0  0  0  0
   10.1186   -2.1793   47.2719 C   0  0  0  0  0  0  0  0  0  0  0  0
   10.1494   -3.5084   47.6740 C   0  0  0  0  0  0  0  0  0  0  0  0
   -1.0166   -1.1998   41.0966 C   0  0  0  0  0  0  0  0  0  0  0  0
   -2.2179   -1.9594   40.9940 C   0  0  0  0  0  0  0  0  0  0  0  0
   -3.3880   -1.4301   40.5565 C   0  0  0  0  0  0  0  0  0  0  0  0
    3.3326   -4.2619   44.5158 O   0  0  0  0  0  0  0  0  0  0  0  0
  3  7  1  0
  7  8  1  0
 10 14  1  0
  5 20  1  0
 20 21  1  0
 21 22  2  0
  7 23  2  0
  1  2  2  0
  2  3  1  0
  3  4  2  0
  4  6  1  0
  6  5  2  0
  5  1  1  0
 14 15  2  0
 15 16  1  0
 16 19  2  0
 19 18  1  0
 18 17  2  0
 17 14  1  0
  8  9  2  0
  9 10  1  0
 10 11  2  0
 11 13  1  0
 13 12  2  0
 12  8  1  0
M  END
$$$$
O14757_PocketFlow_idx-in-all-generaetd-756
     RDKit          3D

 35 37  0  0  0  0  0  0  0  0999 V2000
   -0.6395   -2.0713   41.4947 C   0  0  0  0  0  0  0  0  0  0  0  0
    0.1859   -1.1027   41.5970 C   0  0  0  0  0  0  0  0  0  0  0  0
    1.5858   -1.4430   41.9548 C   0  0  0  0  0  0  0  0  0  0  0  0
   -0.3290   -3.4217   41.4987 C   0  0  0  0  0  0  0  0  0  0  0  0
    1.8734   -2.7956   42.1741 C   0  0  0  0  0  0  0  0  0  0  0  0
    0.8724   -3.7449   42.0341 C   0  0  0  0  0  0  0  0  0  0  0  0
    2.6003   -0.4579   42.2422 C   0  0  0  0  0  0  0  0  0  0  0  0
    3.8290   -0.8108   42.6875 N   0  0  0  0  0  0  0  0  0  0  0  0
    4.4776   -0.5331   43.5952 C   0  0  0  0  0  0  0  0  0  0  0  0
    5.5561   -1.3027   43.9533 N   0  0  0  0  0  0  0  0  0  0  0  0
    6.1586   -1.2288   45.2016 C   0  0  1  0  0  0  0  0  0  0  0  0
   -2.0972   -1.7379   41.0646 C   0  0  0  0  0  0  0  0  0  0  0  0
   -2.6329   -0.5689   41.3776 N   0  0  0  0  0  0  0  0  0  0  0  0
   -2.8662   -2.5954   40.4703 N   0  0  0  0  0  0  0  0  0  0  0  0
    5.5107   -1.9763   46.1489 C   0  0  0  0  0  0  0  0  0  0  0  0
    4.3256   -2.4214   46.1023 C   0  0  0  0  0  0  0  0  0  0  0  0
    3.7921   -2.8368   44.8694 C   0  0  0  0  0  0  0  0  0  0  0  0
    2.8160   -3.9647   44.8782 C   0  0  0  0  0  0  0  0  0  0  0  0
    1.7051   -3.8605   45.5551 C   0  0  0  0  0  0  0  0  0  0  0  0
    0.7573   -4.9946   45.5794 C   0  0  0  0  0  0  0  0  0  0  0  0
   -0.5038   -4.8319   45.9627 C   0  0  0  0  0  0  0  0  0  0  0  0
    1.2459   -6.3119   45.2288 C   0  0  0  0  0  0  0  0  0  0  0  0
    3.2901   -5.1338   44.1825 C   0  0  0  0  0  0  0  0  0  0  0  0
    2.5270   -6.3264   44.5141 C   0  0  0  0  0  0  0  0  0  0  0  0
   -0.9024   -3.6754   46.3501 O   0  0  0  0  0  0  0  0  0  0  0  0
   -1.2907   -5.8107   46.0148 O   0  0  0  0  0  0  0  0  0  0  0  0
    2.3073    0.7660   42.3536 O   0  0  0  0  0  0  0  0  0  0  0  0
   -3.8612   -0.5023   40.8267 C   0  0  0  0  0  0  0  0  0  0  0  0
   -3.9887   -1.7931   40.2892 N   0  0  0  0  0  0  0  0  0  0  0  0
    7.3682   -0.8842   45.2256 F   0  0  0  0  0  0  0  0  0  0  0  0
    4.5120   -5.2712   43.7858 O   0  0  0  0  0  0  0  0  0  0  0  0
    4.3999    0.5335   44.2039 O   0  0  0  0  0  0  0  0  0  0  0  0
    0.5267   -7.3224   45.2256 O   0  0  0  0  0  0  0  0  0  0  0  0
    0.7994   -8.3984   46.0909 C   0  0  0  0  0  0  0  0  0  0  0  0
    2.1151   -8.8066   46.1074 C   0  0  0  0  0  0  0  0  0  0  0  0
  3  7  1  0
  7  8  1  0
  8  9  1  0
  9 10  1  0
 10 11  1  0
  1 12  1  0
 12 13  1  0
 12 14  2  0
 11 15  1  0
 15 16  2  3
 16 17  1  0
 17 18  1  0
 20 21  1  0
 21 25  1  0
 21 26  2  0
  7 27  2  0
 13 28  2  0
 14 29  1  0
 28 29  1  0
 11 30  1  6
 23 31  1  0
  9 32  2  0
 22 33  1  0
 33 34  1  0
 34 35  1  0
  1  2  2  0
  2  3  1  0
  3  5  2  0
  5  6  1  0
  6  4  2  0
  4  1  1  0
 18 19  2  0
 19 20  1  0
 20 22  2  0
 22 24  1  0
 24 23  2  0
 23 18  1  0
M  END
$$$$
O14757_PocketFlow_idx-in-all-generaetd-757
     RDKit          3D

 17 18  0  0  0  0  0  0  0  0999 V2000
   -0.6395   -2.0713   41.4947 C   0  0  0  0  0  0  0  0  0  0  0  0
    0.1859   -1.1027   41.5970 C   0  0  0  0  0  0  0  0  0  0  0  0
   -0.2410   -3.3795   41.5297 C   0  0  0  0  0  0  0  0  0  0  0  0
    1.6125   -1.3641   41.8466 C   0  0  0  0  0  0  0  0  0  0  0  0
    2.5720   -0.3568   42.0335 C   0  0  0  0  0  0  0  0  0  0  0  0
    3.8647   -0.6704   42.4195 C   0  0  0  0  0  0  0  0  0  0  0  0
    4.0924   -1.9486   43.0494 C   0  0  0  0  0  0  0  0  0  0  0  0
    2.9708   -2.8562   43.1557 C   0  0  0  0  0  0  0  0  0  0  0  0
    1.7948   -2.4985   42.6210 C   0  0  0  0  0  0  0  0  0  0  0  0
    0.8407   -3.5866   42.3937 C   0  0  0  0  0  0  0  0  0  0  0  0
    4.9317    0.1566   42.4446 N   0  0  0  0  0  0  0  0  0  0  0  0
   -1.9973   -1.7707   41.1673 N   0  0  0  0  0  0  0  0  0  0  0  0
   -2.8249   -1.2847   40.6654 C   0  0  0  0  0  0  0  0  0  0  0  0
   -4.1228   -0.8880   40.1796 N   0  0  0  0  0  0  0  0  0  0  0  0
    3.2146   -3.9438   43.8520 F   0  0  0  0  0  0  0  0  0  0  0  0
    5.5583   -2.2535   43.8611 Cl  0  0  0  0  0  0  0  0  0  0  0  0
    5.2819    0.9981   43.1951 O   0  0  0  0  0  0  0  0  0  0  0  0
  6 11  1  0
  1 12  1  0
 12 13  1  0
 13 14  1  0
  8 15  1  0
  7 16  1  0
 11 17  2  0
  1  2  2  0
  2  4  1  0
  9 10  1  0
 10  3  2  0
  3  1  1  0
  4  5  2  0
  5  6  1  0
  6  7  2  0
  7  8  1  0
  8  9  2  0
  9  4  1  0
M  END
$$$$
O14757_PocketFlow_idx-in-all-generaetd-758
     RDKit          3D

 18 19  0  0  0  0  0  0  0  0999 V2000
   -0.6395   -2.0713   41.4947 C   0  0  0  0  0  0  0  0  0  0  0  0
    0.1859   -1.1027   41.5970 C   0  0  0  0  0  0  0  0  0  0  0  0
    1.5836   -1.3270   41.4669 C   0  0  0  0  0  0  0  0  0  0  0  0
   -0.2462   -3.3905   41.2409 C   0  0  0  0  0  0  0  0  0  0  0  0
    2.5675   -0.3472   41.7943 C   0  0  0  0  0  0  0  0  0  0  0  0
    3.8546   -0.6776   42.2362 C   0  0  0  0  0  0  0  0  0  0  0  0
    3.9971   -0.8191   43.6382 C   0  0  0  0  0  0  0  0  0  0  0  0
    4.7527   -1.9268   44.1119 C   0  0  0  0  0  0  0  0  0  0  0  0
    5.4488   -2.4084   44.8883 C   0  0  0  0  0  0  0  0  0  0  0  0
    5.5582   -3.2692   45.8344 C   0  0  0  0  0  0  0  0  0  0  0  0
    6.7801   -3.5569   46.5364 C   0  0  0  0  0  0  0  0  0  0  0  0
    7.1086   -4.4252   47.5141 C   0  0  0  0  0  0  0  0  0  0  0  0
    5.9435   -5.0803   48.0571 C   0  0  0  0  0  0  0  0  0  0  0  0
    4.6914   -4.8988   47.4401 C   0  0  0  0  0  0  0  0  0  0  0  0
    4.4998   -4.0105   46.4300 C   0  0  0  0  0  0  0  0  0  0  0  0
    1.1485   -3.6186   41.1860 C   0  0  0  0  0  0  0  0  0  0  0  0
    2.0320   -2.5884   41.3270 C   0  0  0  0  0  0  0  0  0  0  0  0
   -2.0236   -1.8532   41.5356 O   0  0  0  0  0  0  0  0  0  0  0  0
  3  5  1  0
  5  6  1  0
  6  7  1  0
  7  8  1  0
  8  9  3  0
  9 10  1  0
  1 18  1  0
  1  2  2  0
  2  3  1  0
  3 17  2  0
 17 16  1  0
 16  4  2  0
  4  1  1  0
 10 11  2  0
 11 12  1  0
 12 13  2  0
 13 14  1  0
 14 15  2  0
 15 10  1  0
M  END
$$$$
O14757_PocketFlow_idx-in-all-generaetd-759
     RDKit          3D

 23 26  0  0  0  0  0  0  0  0999 V2000
   -0.6395   -2.0713   41.4947 C   0  0  0  0  0  0  0  0  0  0  0  0
    0.1859   -1.1027   41.5970 C   0  0  0  0  0  0  0  0  0  0  0  0
   -0.2410   -3.3795   41.5297 C   0  0  0  0  0  0  0  0  0  0  0  0
    1.6125   -1.3641   41.8466 C   0  0  0  0  0  0  0  0  0  0  0  0
    2.5720   -0.3568   42.0335 C   0  0  0  0  0  0  0  0  0  0  0  0
    3.8647   -0.6704   42.4195 C   0  0  0  0  0  0  0  0  0  0  0  0
    4.8191    0.2819   42.7564 C   0  0  0  0  0  0  0  0  0  0  0  0
    1.0700   -3.7296   41.8502 C   0  0  0  0  0  0  0  0  0  0  0  0
    1.9536   -2.6774   42.0173 C   0  0  0  0  0  0  0  0  0  0  0  0
   -2.1058   -1.8328   41.1610 C   0  0  0  0  0  0  0  0  0  0  0  0
   -2.6009   -0.7026   41.5150 O   0  0  0  0  0  0  0  0  0  0  0  0
   -2.8198   -2.6914   40.6491 O   0  0  0  0  0  0  0  0  0  0  0  0
    6.0064   -0.2616   43.3818 C   0  0  0  0  0  0  0  0  0  0  0  0
    5.9388   -1.4503   44.1722 C   0  0  0  0  0  0  0  0  0  0  0  0
    4.8312   -2.3152   43.9381 C   0  0  0  0  0  0  0  0  0  0  0  0
    3.7647   -1.8920   43.1725 C   0  0  0  0  0  0  0  0  0  0  0  0
    2.8756   -2.8177   42.8280 N   0  0  0  0  0  0  0  0  0  0  0  0
    7.1016   -1.7366   45.0033 C   0  0  0  0  0  0  0  0  0  0  0  0
    8.1988   -0.9879   45.3456 C   0  0  0  0  0  0  0  0  0  0  0  0
    7.0544   -3.0412   45.7060 C   0  0  0  0  0  0  0  0  0  0  0  0
    8.0661   -3.3474   46.6425 C   0  0  0  0  0  0  0  0  0  0  0  0
    9.1055   -2.5489   46.9358 C   0  0  0  0  0  0  0  0  0  0  0  0
    9.1558   -1.2718   46.2510 C   0  0  0  0  0  0  0  0  0  0  0  0
  1 10  1  0
 10 11  2  0
 10 12  1  0
 14 18  1  0
  4  5  2  0
  5  6  1  0
 16 17  1  0
 17  9  2  0
  1  2  2  0
  2  4  1  0
  4  9  1  0
  9  8  1  0
  8  3  2  0
  3  1  1  0
 18 19  2  0
 19 23  1  0
 23 22  2  0
 22 21  1  0
 21 20  2  0
 20 18  1  0
  6  7  2  0
  7 13  1  0
 13 14  2  0
 14 15  1  0
 15 16  2  0
 16  6  1  0
M  END
$$$$
O14757_PocketFlow_idx-in-all-generaetd-760
     RDKit          3D

 21 22  0  0  0  0  0  0  0  0999 V2000
   -0.6395   -2.0713   41.4947 C   0  0  0  0  0  0  0  0  0  0  0  0
    0.1859   -1.1027   41.5970 C   0  0  0  0  0  0  0  0  0  0  0  0
    0.4133   -0.3094   42.2420 C   0  0  0  0  0  0  0  0  0  0  0  0
   -0.5062   -3.2637   40.8029 C   0  0  0  0  0  0  0  0  0  0  0  0
   -1.3018   -4.2573   41.1571 N   0  0  0  0  0  0  0  0  0  0  0  0
    1.5584    0.6116   42.1339 C   0  0  0  0  0  0  0  0  0  0  0  0
    2.8507    0.2004   42.6535 C   0  0  0  0  0  0  0  0  0  0  0  0
    4.0524    0.6693   42.3202 C   0  0  0  0  0  0  0  0  0  0  0  0
    5.2133    0.0701   42.9489 C   0  0  0  0  0  0  0  0  0  0  0  0
    5.0902   -1.1076   43.7505 C   0  0  0  0  0  0  0  0  0  0  0  0
    3.8430   -1.7379   43.8325 C   0  0  0  0  0  0  0  0  0  0  0  0
    2.7977   -1.1301   43.2869 C   0  0  0  0  0  0  0  0  0  0  0  0
    3.9600   -3.0607   44.5199 C   0  0  0  0  0  0  0  0  0  0  0  0
    3.1084   -4.0806   44.1071 C   0  0  0  0  0  0  0  0  0  0  0  0
    3.1748   -5.3264   44.7496 C   0  0  0  0  0  0  0  0  0  0  0  0
    4.1308   -5.5061   45.7527 C   0  0  0  0  0  0  0  0  0  0  0  0
    4.9406   -3.3296   45.4216 C   0  0  0  0  0  0  0  0  0  0  0  0
    5.0371   -4.4767   46.1061 C   0  0  0  0  0  0  0  0  0  0  0  0
    2.3223   -6.4214   44.4360 C   0  0  0  0  0  0  0  0  0  0  0  0
    1.0592   -6.7041   45.4629 Cl  0  0  0  0  0  0  0  0  0  0  0  0
    0.4107   -3.4769   40.0485 O   0  0  0  0  0  0  0  0  0  0  0  0
  1  2  1  0
  2  3  2  3
  1  4  1  0
  4  5  1  0
  3  6  1  0
  6  7  1  0
 11 13  1  0
 15 19  1  0
 19 20  1  0
  4 21  2  0
 13 14  2  0
 14 15  1  0
 15 16  2  0
 16 18  1  0
 18 17  2  0
 17 13  1  0
  7  8  2  0
  8  9  1  0
  9 10  2  0
 10 11  1  0
 11 12  2  0
 12  7  1  0
M  END
$$$$
O14757_PocketFlow_idx-in-all-generaetd-761
     RDKit          3D

 35 37  0  0  0  0  0  0  0  0999 V2000
   -0.6395   -2.0713   41.4947 C   0  0  0  0  0  0  0  0  0  0  0  0
    0.6719   -2.2449   41.7518 C   0  0  0  0  0  0  0  0  0  0  0  0
    1.1287   -3.3339   42.4778 C   0  0  0  0  0  0  0  0  0  0  0  0
    2.2706   -3.1945   43.3374 C   0  0  0  0  0  0  0  0  0  0  0  0
    2.5833   -4.2041   44.2912 C   0  0  0  0  0  0  0  0  0  0  0  0
    3.8200   -4.0572   45.0196 C   0  0  0  0  0  0  0  0  0  0  0  0
    4.6221   -2.9239   44.7740 C   0  0  0  0  0  0  0  0  0  0  0  0
    4.2376   -1.9958   43.7635 C   0  0  0  0  0  0  0  0  0  0  0  0
    3.0990   -2.1606   43.0788 C   0  0  0  0  0  0  0  0  0  0  0  0
   -1.0736   -0.7656   41.2951 N   0  0  0  0  0  0  0  0  0  0  0  0
    5.1669   -0.8688   43.5037 C   0  0  0  0  0  0  0  0  0  0  0  0
    5.9554   -0.3353   44.4021 N   0  0  0  0  0  0  0  0  0  0  0  0
    4.8966   -0.1201   42.4032 N   0  0  0  0  0  0  0  0  0  0  0  0
   -1.4559   -2.9549   40.9847 O   0  0  0  0  0  0  0  0  0  0  0  0
    1.6745   -5.2525   44.6172 C   0  0  0  0  0  0  0  0  0  0  0  0
    1.9784   -6.3242   44.9038 C   0  0  0  0  0  0  0  0  0  0  0  0
    1.1655   -7.4519   45.3358 C   0  0  0  0  0  0  0  0  0  0  0  0
   -0.2226   -7.2059   45.1370 C   0  0  0  0  0  0  0  0  0  0  0  0
   -0.6514   -5.9504   44.6356 C   0  0  0  0  0  0  0  0  0  0  0  0
    0.3009   -4.9576   44.4145 C   0  0  0  0  0  0  0  0  0  0  0  0
   -1.1546   -8.2466   45.5318 C   0  0  0  0  0  0  0  0  0  0  0  0
   -1.8144   -8.2836   46.6178 N   0  0  0  0  0  0  0  0  0  0  0  0
   -3.1064   -8.5532   46.8095 C   0  0  1  0  0  0  0  0  0  0  0  0
   -3.5399   -8.7256   48.0954 C   0  0  0  0  0  0  0  0  0  0  0  0
   -3.9132   -8.3317   45.9092 O   0  0  0  0  0  0  0  0  0  0  0  0
   -2.4965   -0.4225   41.1456 C   0  0  0  0  0  0  0  0  0  0  0  0
   -3.2298   -0.5706   40.4445 C   0  0  0  0  0  0  0  0  0  0  0  0
   -3.1404   -1.7232   39.5602 C   0  0  0  0  0  0  0  0  0  0  0  0
   -4.2863   -2.0704   38.7649 C   0  0  0  0  0  0  0  0  0  0  0  0
   -2.4521   -9.2341   48.9758 C   0  0  0  0  0  0  0  0  0  0  0  0
   -0.9341   -8.5587   47.8412 C   0  0  0  0  0  0  0  0  0  0  0  0
   -1.2318   -9.1756   48.9210 C   0  0  0  0  0  0  0  0  0  0  0  0
   -4.7161    0.3178   40.3163 P   0  0  0  0  0  0  0  0  0  0  0  0
   -5.5756   -0.3786   39.8604 O   0  0  0  0  0  0  0  0  0  0  0  0
   -4.7565    0.7055   41.8446 O   0  0  0  0  0  0  0  0  0  0  0  0
  1  2  1  0
  2  3  1  0
  1 10  1  0
  8 11  1  0
 11 12  2  3
 11 13  1  0
  1 14  2  0
  5 15  1  0
 18 21  1  0
 21 22  1  0
 22 23  1  0
 23 25  1  1
 10 26  1  0
 26 27  2  3
 27 28  1  0
 28 29  1  0
 24 30  1  0
 22 31  1  0
 27 33  1  0
 33 34  1  0
 33 35  1  0
  3  4  1  0
 23 24  1  0
 30 32  1  0
 32 31  1  0
 15 16  2  0
 16 17  1  0
 17 18  2  0
 18 19  1  0
 19 20  2  0
 20 15  1  0
  4  5  2  0
  5  6  1  0
  6  7  2  0
  7  8  1  0
  8  9  2  0
  9  4  1  0
M  END
$$$$
O14757_PocketFlow_idx-in-all-generaetd-762
     RDKit          3D

 35 37  0  0  0  0  0  0  0  0999 V2000
   -0.6395   -2.0713   41.4947 C   0  0  0  0  0  0  0  0  0  0  0  0
    0.1859   -1.1027   41.5970 C   0  0  0  0  0  0  0  0  0  0  0  0
    1.5836   -1.3270   41.4669 C   0  0  0  0  0  0  0  0  0  0  0  0
   -0.2462   -3.3905   41.2409 C   0  0  0  0  0  0  0  0  0  0  0  0
    2.0075   -2.6977   41.3340 C   0  0  0  0  0  0  0  0  0  0  0  0
    1.0655   -3.6470   41.1373 C   0  0  0  0  0  0  0  0  0  0  0  0
    2.5007   -0.3428   41.6891 N   0  0  0  0  0  0  0  0  0  0  0  0
    3.2170   -0.1352   42.8668 C   0  0  0  0  0  0  0  0  0  0  0  0
    4.6765   -0.4239   42.8583 C   0  0  0  0  0  0  0  0  0  0  0  0
    5.2076   -0.8510   44.1259 C   0  0  0  0  0  0  0  0  0  0  0  0
    6.3139   -1.7059   44.2091 C   0  0  0  0  0  0  0  0  0  0  0  0
    6.7316   -2.0601   45.5707 C   0  0  0  0  0  0  0  0  0  0  0  0
    5.7187   -2.6057   46.4060 C   0  0  0  0  0  0  0  0  0  0  0  0
    4.3925   -1.9248   46.2302 C   0  0  0  0  0  0  0  0  0  0  0  0
    4.8437   -0.3550   45.3769 C   0  0  0  0  0  0  0  0  0  0  0  0
    5.8837   -3.5050   47.4509 C   0  0  0  0  0  0  0  0  0  0  0  0
    6.4125   -3.1365   48.4205 F   0  0  0  0  0  0  0  0  0  0  0  0
    5.1562   -4.5902   47.3125 F   0  0  0  0  0  0  0  0  0  0  0  0
   -2.0230   -1.8052   41.6066 O   0  0  0  0  0  0  0  0  0  0  0  0
   -2.7167   -1.3218   40.5164 C   0  0  0  0  0  0  0  0  0  0  0  0
   -4.0960   -1.0474   40.9334 C   0  0  0  0  0  0  0  0  0  0  0  0
   -4.8103   -0.8532   39.7997 O   0  0  0  0  0  0  0  0  0  0  0  0
   -4.3933   -0.2480   41.8122 O   0  0  0  0  0  0  0  0  0  0  0  0
    3.0197    0.9767   43.3226 O   0  0  0  0  0  0  0  0  0  0  0  0
    7.9511   -2.6174   45.6650 O   0  0  0  0  0  0  0  0  0  0  0  0
    8.7983   -2.1026   46.7302 C   0  0  0  0  0  0  0  0  0  0  0  0
    9.6518   -1.3616   46.6160 C   0  0  0  0  0  0  0  0  0  0  0  0
   10.5831   -1.0394   47.6695 C   0  0  0  0  0  0  0  0  0  0  0  0
   10.3752   -1.5805   48.9734 C   0  0  0  0  0  0  0  0  0  0  0  0
    9.2867   -2.5087   49.0908 C   0  0  0  0  0  0  0  0  0  0  0  0
    8.5704   -2.8119   48.0148 C   0  0  2  0  0  0  0  0  0  0  0  0
    7.3758   -3.5683   48.3084 C   0  0  2  0  0  0  0  0  0  0  0  0
    7.2323   -4.3659   49.5079 N   0  0  0  0  0  0  0  0  0  0  0  0
    7.9878   -4.9154   47.4223 C   0  0  0  0  0  0  0  0  0  0  0  0
    8.1151   -2.7686   48.5806 Cl  0  0  0  0  0  0  0  0  0  0  0  0
  3  7  1  0
  7  8  1  0
  8  9  1  0
  9 10  1  0
 13 16  1  0
 16 17  1  0
 16 18  1  0
  1 19  1  0
 19 20  1  0
 20 21  1  0
 21 22  2  0
 21 23  1  0
  8 24  2  0
 12 25  1  0
 25 26  1  0
 26 27  2  0
 27 28  1  0
 28 29  2  0
 29 30  1  0
 26 31  1  0
 30 31  1  0
 31 32  1  0
 32 33  1  0
 32 34  1  6
 31 35  1  6
  1  2  2  0
  2  3  1  0
  3  5  2  0
  5  6  1  0
  6  4  2  0
  4  1  1  0
 10 11  2  0
 11 12  1  0
 12 13  2  0
 13 14  1  0
 14 15  2  0
 15 10  1  0
M  END
$$$$
O14757_PocketFlow_idx-in-all-generaetd-763
     RDKit          3D

 35 38  0  0  0  0  0  0  0  0999 V2000
   -0.6395   -2.0713   41.4947 C   0  0  0  0  0  0  0  0  0  0  0  0
    0.6719   -2.2449   41.7518 C   0  0  0  0  0  0  0  0  0  0  0  0
    1.5951   -1.1948   41.6106 C   0  0  0  0  0  0  0  0  0  0  0  0
    2.1924   -0.6388   42.6886 C   0  0  2  0  0  0  0  0  0  0  0  0
    3.3977    0.2661   42.4110 C   0  0  0  0  0  0  0  0  0  0  0  0
   -1.3034   -2.3899   40.7601 C   0  0  0  0  0  0  0  0  0  0  0  0
   -2.8224   -2.1665   40.7291 C   0  0  0  0  0  0  0  0  0  0  0  0
   -3.0586   -1.1125   41.5416 N   0  0  0  0  0  0  0  0  0  0  0  0
   -3.6615   -2.5557   39.8435 N   0  0  0  0  0  0  0  0  0  0  0  0
    4.4502    0.1722   43.0819 O   0  0  0  0  0  0  0  0  0  0  0  0
    4.5748   -0.9705   43.7809 C   0  0  0  0  0  0  0  0  0  0  0  0
    3.9582   -2.1013   43.5419 C   0  0  0  0  0  0  0  0  0  0  0  0
    4.2056   -3.3469   44.3101 C   0  0  0  0  0  0  0  0  0  0  0  0
    4.4856   -3.1973   45.6059 C   0  0  0  0  0  0  0  0  0  0  0  0
    4.8121   -4.3431   46.4157 C   0  0  0  0  0  0  0  0  0  0  0  0
    5.6727   -4.1734   47.6007 C   0  0  0  0  0  0  0  0  0  0  0  0
    5.8694   -5.2749   48.4672 C   0  0  0  0  0  0  0  0  0  0  0  0
    5.6216   -6.5627   47.9807 C   0  0  0  0  0  0  0  0  0  0  0  0
    5.8036   -7.6306   48.8633 C   0  0  0  0  0  0  0  0  0  0  0  0
    6.3984   -7.4187   50.0569 C   0  0  0  0  0  0  0  0  0  0  0  0
    6.8285   -6.1448   50.4306 C   0  0  0  0  0  0  0  0  0  0  0  0
    6.5518   -5.0441   49.6776 C   0  0  0  0  0  0  0  0  0  0  0  0
    5.7316   -0.9274   44.7697 C   0  0  0  0  0  0  0  0  0  0  0  0
    5.9705   -2.1125   45.3856 C   0  0  0  0  0  0  0  0  0  0  0  0
    5.4296   -8.9880   48.3927 C   0  0  0  0  0  0  0  0  0  0  0  0
    4.1839   -9.1631   47.7284 C   0  0  0  0  0  0  0  0  0  0  0  0
    3.6690  -10.3836   47.5152 C   0  0  0  0  0  0  0  0  0  0  0  0
    4.5036  -11.4971   47.7482 C   0  0  0  0  0  0  0  0  0  0  0  0
    5.7118  -11.3789   48.3249 C   0  0  0  0  0  0  0  0  0  0  0  0
    6.1868  -10.1308   48.7678 C   0  0  0  0  0  0  0  0  0  0  0  0
    2.7065   -1.7689   43.4523 C   0  0  0  0  0  0  0  0  0  0  0  0
    6.8948   -3.8602   50.0790 O   0  0  0  0  0  0  0  0  0  0  0  0
    8.2407   -3.5107   49.9813 C   0  0  0  0  0  0  0  0  0  0  0  0
    8.9127   -3.4063   48.8877 C   0  0  0  0  0  0  0  0  0  0  0  0
   10.0224   -2.7553   48.8540 C   0  0  0  0  0  0  0  0  0  0  0  0
  1  2  1  0
  2  3  1  0
  4  3  1  6
  4  5  1  0
  1  6  2  3
  6  7  1  0
  7  8  2  3
  7  9  1  0
  5 10  1  0
 10 11  1  0
 14 15  1  0
 15 16  1  0
 16 17  1  0
 19 25  1  0
  4 31  1  0
 12 31  1  0
 22 32  1  0
 32 33  1  0
 33 34  1  0
 34 35  2  0
 17 18  2  0
 18 19  1  0
 19 20  2  0
 20 21  1  0
 21 22  2  0
 22 17  1  0
 25 26  2  0
 26 27  1  0
 27 28  2  0
 28 29  1  0
 29 30  2  0
 30 25  1  0
 11 12  2  0
 12 13  1  0
 13 14  2  0
 14 24  1  0
 24 23  2  0
 23 11  1  0
M  END
$$$$
O14757_PocketFlow_idx-in-all-generaetd-764
     RDKit          3D

  8  8  0  0  0  0  0  0  0  0999 V2000
    0.2881   -2.9111   42.4378 C   0  0  0  0  0  0  0  0  0  0  0  0
    1.1784   -3.4293   42.9321 C   0  0  0  0  0  0  0  0  0  0  0  0
    1.1643   -4.3749   43.9960 C   0  0  0  0  0  0  0  0  0  0  0  0
    1.8790   -4.1402   45.1620 C   0  0  0  0  0  0  0  0  0  0  0  0
    0.4442   -1.7764   41.5237 C   0  0  0  0  0  0  0  0  0  0  0  0
    1.6259   -1.0049   41.6681 C   0  0  0  0  0  0  0  0  0  0  0  0
    2.5998   -1.4209   42.5615 C   0  0  0  0  0  0  0  0  0  0  0  0
    2.4400   -2.6031   43.3338 C   0  0  0  0  0  0  0  0  0  0  0  0
  2  3  1  0
  3  4  1  0
  1  2  2  0
  2  8  1  0
  8  7  2  0
  7  6  1  0
  6  5  2  0
  5  1  1  0
M  END
$$$$
O14757_PocketFlow_idx-in-all-generaetd-765
     RDKit          3D

 28 31  0  0  0  0  0  0  0  0999 V2000
   -0.6395   -2.0713   41.4947 C   0  0  0  0  0  0  0  0  0  0  0  0
    0.6719   -2.2449   41.7518 C   0  0  0  0  0  0  0  0  0  0  0  0
    1.5951   -1.1948   41.6106 C   0  0  0  0  0  0  0  0  0  0  0  0
    2.9587   -1.3961   42.0240 C   0  0  0  0  0  0  0  0  0  0  0  0
    3.8815   -0.3441   42.0598 C   0  0  0  0  0  0  0  0  0  0  0  0
    5.0972   -0.5585   42.8399 C   0  0  0  0  0  0  0  0  0  0  0  0
    5.2535   -1.6826   43.6335 C   0  0  0  0  0  0  0  0  0  0  0  0
    4.2210   -2.6732   43.6342 C   0  0  0  0  0  0  0  0  0  0  0  0
    3.0784   -2.4692   42.9029 C   0  0  0  0  0  0  0  0  0  0  0  0
   -1.5003   -3.1795   41.5533 C   0  0  0  0  0  0  0  0  0  0  0  0
   -0.8821   -4.4352   41.5929 C   0  0  0  0  0  0  0  0  0  0  0  0
    0.3828   -4.6203   42.1097 C   0  0  0  0  0  0  0  0  0  0  0  0
    1.2151   -3.4930   42.1003 C   0  0  0  0  0  0  0  0  0  0  0  0
    2.1834   -3.4689   42.8538 N   0  0  0  0  0  0  0  0  0  0  0  0
    6.4434   -1.7927   44.4901 C   0  0  0  0  0  0  0  0  0  0  0  0
    7.2306   -0.9676   44.9547 C   0  0  0  0  0  0  0  0  0  0  0  0
    8.3605   -1.2689   45.8762 C   0  0  0  0  0  0  0  0  0  0  0  0
    8.4078   -2.5451   46.4334 C   0  0  0  0  0  0  0  0  0  0  0  0
    7.3964   -3.4710   46.0145 C   0  0  0  0  0  0  0  0  0  0  0  0
    6.4249   -3.1440   45.2324 C   0  0  0  0  0  0  0  0  0  0  0  0
    9.4579   -2.8445   47.3918 C   0  0  0  0  0  0  0  0  0  0  0  0
   10.2676   -2.3438   47.9240 N   0  0  0  0  0  0  0  0  0  0  0  0
   11.1027   -2.6131   48.9266 C   0  0  0  0  0  0  0  0  0  0  0  0
    9.5983   -4.2632   47.4979 O   0  0  0  0  0  0  0  0  0  0  0  0
    1.2444    0.0769   40.9062 C   0  0  0  0  0  0  0  0  0  0  0  0
   10.5274   -2.5209   50.1849 C   0  0  0  0  0  0  0  0  0  0  0  0
   11.1356   -2.8833   51.3305 C   0  0  0  0  0  0  0  0  0  0  0  0
   12.4966   -3.3174   51.2415 C   0  0  0  0  0  0  0  0  0  0  0  0
  7 15  1  0
 18 21  1  0
 21 22  1  0
 22 23  2  3
 21 24  2  0
  3 25  1  0
 23 26  1  0
 26 27  2  3
 27 28  1  0
 15 16  2  0
 16 17  1  0
 17 18  2  0
 18 19  1  0
 19 20  2  0
 20 15  1  0
  2  3  1  0
  3  4  2  0
  9 14  2  0
 14 13  1  0
  4  5  1  0
  5  6  2  0
  6  7  1  0
  7  8  2  0
  8  9  1  0
  9  4  1  0
  1  2  2  0
  2 13  1  0
 13 12  2  0
 12 11  1  0
 11 10  2  0
 10  1  1  0
M  END
$$$$
O14757_PocketFlow_idx-in-all-generaetd-766
     RDKit          3D

 19 20  0  0  0  0  0  0  0  0999 V2000
   -0.6395   -2.0713   41.4947 C   0  0  0  0  0  0  0  0  0  0  0  0
    0.1859   -1.1027   41.5970 C   0  0  0  0  0  0  0  0  0  0  0  0
    1.5836   -1.3270   41.4669 C   0  0  0  0  0  0  0  0  0  0  0  0
   -0.2462   -3.3905   41.2409 C   0  0  0  0  0  0  0  0  0  0  0  0
    2.0075   -2.6977   41.3340 C   0  0  0  0  0  0  0  0  0  0  0  0
    1.0655   -3.6470   41.1373 C   0  0  0  0  0  0  0  0  0  0  0  0
    2.5048   -0.3416   41.6826 N   0  0  0  0  0  0  0  0  0  0  0  0
    3.5415   -0.3915   42.5684 C   0  0  0  0  0  0  0  0  0  0  0  0
    4.7706   -0.3418   42.3930 C   0  0  0  0  0  0  0  0  0  0  0  0
    5.5243   -0.7356   43.6099 C   0  0  0  0  0  0  0  0  0  0  0  0
    4.6305   -1.0676   44.6360 C   0  0  0  0  0  0  0  0  0  0  0  0
    3.4492   -1.4242   44.7062 C   0  0  0  0  0  0  0  0  0  0  0  0
    3.0182   -1.0561   43.7419 C   0  0  0  0  0  0  0  0  0  0  0  0
   -2.0148   -1.7958   41.5536 O   0  0  0  0  0  0  0  0  0  0  0  0
    5.4626   -1.3877   45.7428 F   0  0  0  0  0  0  0  0  0  0  0  0
   -2.6992   -1.3123   40.4736 C   0  0  0  0  0  0  0  0  0  0  0  0
   -4.1059   -1.0974   40.9071 C   0  0  0  0  0  0  0  0  0  0  0  0
   -4.2903   -0.3642   41.7776 O   0  0  0  0  0  0  0  0  0  0  0  0
   -4.9464   -1.1833   39.8784 O   0  0  0  0  0  0  0  0  0  0  0  0
  3  7  1  0
  7  8  1  0
  1 14  1  0
 11 15  1  0
 14 16  1  0
 16 17  1  0
 17 18  2  0
 17 19  1  0
  1  2  2  0
  2  3  1  0
  3  5  2  0
  5  6  1  0
  6  4  2  0
  4  1  1  0
  8  9  2  0
  9 10  1  0
 10 11  2  0
 11 12  1  0
 12 13  2  0
 13  8  1  0
M  END
$$$$
O14757_PocketFlow_idx-in-all-generaetd-767
     RDKit          3D

 16 16  0  0  0  0  0  0  0  0999 V2000
   -0.6395   -2.0713   41.4947 C   0  0  0  0  0  0  0  0  0  0  0  0
    0.6719   -2.2449   41.7518 C   0  0  0  0  0  0  0  0  0  0  0  0
    1.1287   -3.3339   42.4778 C   0  0  0  0  0  0  0  0  0  0  0  0
    2.2706   -3.1945   43.3374 C   0  0  0  0  0  0  0  0  0  0  0  0
    2.5794   -4.1545   44.3183 C   0  0  0  0  0  0  0  0  0  0  0  0
    3.8011   -3.9870   45.0471 C   0  0  0  0  0  0  0  0  0  0  0  0
    4.6109   -2.8615   44.7567 C   0  0  0  0  0  0  0  0  0  0  0  0
    4.2507   -1.9849   43.7095 C   0  0  0  0  0  0  0  0  0  0  0  0
    3.0954   -2.1629   43.0519 C   0  0  0  0  0  0  0  0  0  0  0  0
    4.9982   -0.7586   43.4424 C   0  0  0  0  0  0  0  0  0  0  0  0
    4.8069    0.2960   43.1594 N   0  0  0  0  0  0  0  0  0  0  0  0
   -1.1348   -0.7386   41.2983 C   0  0  0  0  0  0  0  0  0  0  0  0
    6.4081   -0.8768   44.0193 N   0  0  0  0  0  0  0  0  0  0  0  0
   -2.4546   -0.6093   41.1872 N   0  0  0  0  0  0  0  0  0  0  0  0
   -3.2070   -1.3408   40.3982 C   0  0  0  0  0  0  0  0  0  0  0  0
   -4.4847   -1.2470   40.3004 N   0  0  0  0  0  0  0  0  0  0  0  0
  1  2  1  0
  2  3  1  0
  3  4  1  0
  8 10  1  0
 10 11  2  3
  1 12  2  3
 10 13  1  0
 12 14  1  0
 14 15  2  3
 15 16  1  0
  4  5  2  0
  5  6  1  0
  6  7  2  0
  7  8  1  0
  8  9  2  0
  9  4  1  0
M  END
$$$$
O14757_PocketFlow_idx-in-all-generaetd-768
     RDKit          3D

 35 37  0  0  0  0  0  0  0  0999 V2000
    0.2881   -2.9111   42.4378 C   0  0  0  0  0  0  0  0  0  0  0  0
    1.1784   -3.4293   42.9321 C   0  0  0  0  0  0  0  0  0  0  0  0
    1.6466   -3.2662   44.1990 C   0  0  0  0  0  0  0  0  0  0  0  0
    0.3564   -2.2463   41.1541 C   0  0  0  0  0  0  0  0  0  0  0  0
    2.8137   -4.0354   44.7243 C   0  0  2  0  0  0  0  0  0  0  0  0
    4.1299   -3.3780   44.6563 C   0  0  0  0  0  0  0  0  0  0  0  0
    4.3897   -2.2521   43.9337 C   0  0  0  0  0  0  0  0  0  0  0  0
    4.9433   -1.0963   44.5633 C   0  0  0  0  0  0  0  0  0  0  0  0
    0.0106   -0.8079   41.2630 C   0  0  0  0  0  0  0  0  0  0  0  0
    5.8936   -1.4672   45.5525 C   0  0  0  0  0  0  0  0  0  0  0  0
    5.7338   -2.6357   46.3777 C   0  0  0  0  0  0  0  0  0  0  0  0
    4.8305   -3.6762   45.8218 C   0  0  0  0  0  0  0  0  0  0  0  0
    2.7070   -5.3932   44.8968 C   0  0  0  0  0  0  0  0  0  0  0  0
    3.5645   -6.1960   44.6270 O   0  0  0  0  0  0  0  0  0  0  0  0
    1.3763   -5.8968   45.0312 N   0  0  0  0  0  0  0  0  0  0  0  0
    0.2514   -5.1518   45.3445 C   0  0  0  0  0  0  0  0  0  0  0  0
   -0.7042   -6.1793   46.0530 C   0  0  0  0  0  0  0  0  0  0  0  0
   -0.6044   -6.1974   47.1986 O   0  0  0  0  0  0  0  0  0  0  0  0
   -1.4254   -6.9157   45.2590 N   0  0  0  0  0  0  0  0  0  0  0  0
   -1.3740   -7.0736   43.8974 C   0  0  0  0  0  0  0  0  0  0  0  0
    5.0798    0.0648   43.7925 C   0  0  0  0  0  0  0  0  0  0  0  0
   -2.6719   -7.4842   45.8691 C   0  0  0  0  0  0  0  0  0  0  0  0
   -2.3621   -8.6640   46.5787 C   0  0  0  0  0  0  0  0  0  0  0  0
   -1.4799   -9.1426   46.9106 C   0  0  0  0  0  0  0  0  0  0  0  0
   -1.2684  -10.4689   47.5692 C   0  0  0  0  0  0  0  0  0  0  0  0
   -3.6250   -9.3884   47.0871 C   0  0  0  0  0  0  0  0  0  0  0  0
   -3.5941  -10.5103   47.8212 C   0  0  0  0  0  0  0  0  0  0  0  0
   -2.3707  -11.0497   48.0990 C   0  0  0  0  0  0  0  0  0  0  0  0
   -1.1381   -0.5501   41.8350 C   0  0  0  0  0  0  0  0  0  0  0  0
   -2.2758   -1.2391   41.2195 C   0  0  0  0  0  0  0  0  0  0  0  0
   -3.3724   -0.6234   40.8720 O   0  0  0  0  0  0  0  0  0  0  0  0
   -2.3337   -2.4868   41.0760 O   0  0  0  0  0  0  0  0  0  0  0  0
    4.4808    0.0442   42.5294 C   0  0  0  0  0  0  0  0  0  0  0  0
    3.4627   -0.8737   42.2365 C   0  0  0  0  0  0  0  0  0  0  0  0
    3.5669   -2.0107   42.8010 C   0  0  0  0  0  0  0  0  0  0  0  0
  1  2  1  0
  2  3  1  0
  1  4  1  0
  5  3  1  6
  4  9  1  0
  5 13  1  0
 13 14  2  0
 13 15  1  0
 15 16  1  0
 16 17  1  0
 17 18  2  0
 17 19  1  0
 19 20  1  0
 19 22  1  0
 22 23  1  0
  9 29  1  0
 29 30  1  0
 30 31  2  0
 30 32  1  0
  5  6  1  0
  6  7  2  0
  8 10  2  0
 10 11  1  0
 11 12  2  0
 12  6  1  0
 23 24  2  0
 24 25  1  0
 25 28  2  0
 28 27  1  0
 27 26  2  0
 26 23  1  0
  7  8  1  0
  8 21  1  0
 21 33  2  0
 33 34  1  0
 34 35  2  0
 35  7  1  0
M  END
$$$$
O14757_PocketFlow_idx-in-all-generaetd-769
     RDKit          3D

 15 15  0  0  0  0  0  0  0  0999 V2000
   -0.6395   -2.0713   41.4947 C   0  0  0  0  0  0  0  0  0  0  0  0
   -0.2671   -3.2464   41.6546 C   0  0  0  0  0  0  0  0  0  0  0  0
   -2.0053   -1.6706   41.3987 C   0  0  0  0  0  0  0  0  0  0  0  0
   -2.8330   -2.6263   40.7760 C   0  0  0  0  0  0  0  0  0  0  0  0
    1.1099   -3.6129   41.9114 C   0  0  0  0  0  0  0  0  0  0  0  0
    1.9434   -2.5225   42.1864 C   0  0  0  0  0  0  0  0  0  0  0  0
    1.4810   -1.1988   42.1414 C   0  0  0  0  0  0  0  0  0  0  0  0
    0.1562   -0.9259   41.8221 C   0  0  0  0  0  0  0  0  0  0  0  0
    2.3214    0.0175   42.3259 C   0  0  0  0  0  0  0  0  0  0  0  0
    3.4227   -0.2253   41.5367 F   0  0  0  0  0  0  0  0  0  0  0  0
    2.8081    0.0269   43.6287 F   0  0  0  0  0  0  0  0  0  0  0  0
    1.8370    1.1477   42.0945 F   0  0  0  0  0  0  0  0  0  0  0  0
   -4.0089   -2.0988   40.1247 C   0  0  0  0  0  0  0  0  0  0  0  0
   -4.3527   -0.7451   40.3794 C   0  0  0  0  0  0  0  0  0  0  0  0
   -3.5426    0.1237   41.0141 C   0  0  0  0  0  0  0  0  0  0  0  0
  3  4  1  0
  7  9  1  0
  9 10  1  0
  9 11  1  0
  9 12  1  0
  4 13  1  0
 13 14  2  3
 14 15  1  0
  3  1  1  0
  1  2  2  0
  2  5  1  0
  5  6  2  0
  6  7  1  0
  7  8  2  0
  8  1  1  0
M  END
$$$$
O14757_PocketFlow_idx-in-all-generaetd-770
     RDKit          3D

 35 40  0  0  0  0  0  0  0  0999 V2000
   -0.6395   -2.0713   41.4947 C   0  0  0  0  0  0  0  0  0  0  0  0
   -0.2671   -3.2464   41.6546 C   0  0  0  0  0  0  0  0  0  0  0  0
    0.2407   -0.9706   41.5952 C   0  0  0  0  0  0  0  0  0  0  0  0
    1.6195   -1.2958   41.8767 C   0  0  0  0  0  0  0  0  0  0  0  0
    2.6583   -0.3517   42.0703 C   0  0  0  0  0  0  0  0  0  0  0  0
    3.9275   -0.7702   42.5387 C   0  0  0  0  0  0  0  0  0  0  0  0
    4.9444    0.0409   42.9168 C   0  0  0  0  0  0  0  0  0  0  0  0
    1.0282   -3.6847   42.0176 C   0  0  0  0  0  0  0  0  0  0  0  0
    1.9403   -2.6206   42.1877 C   0  0  0  0  0  0  0  0  0  0  0  0
   -1.9740   -1.7933   41.1166 N   0  0  0  0  0  0  0  0  0  0  0  0
    5.9833   -0.5502   43.6762 C   0  0  0  0  0  0  0  0  0  0  0  0
    5.8241   -1.8220   44.3305 C   0  0  0  0  0  0  0  0  0  0  0  0
    4.6975   -2.5716   43.9513 C   0  0  0  0  0  0  0  0  0  0  0  0
    3.7205   -2.0471   43.1935 C   0  0  0  0  0  0  0  0  0  0  0  0
    2.9677   -2.8656   42.8618 N   0  0  0  0  0  0  0  0  0  0  0  0
    6.9390   -2.2458   45.1988 C   0  0  0  0  0  0  0  0  0  0  0  0
    6.6961   -3.4668   46.0002 C   0  0  0  0  0  0  0  0  0  0  0  0
    5.5007   -3.9137   46.3735 C   0  0  0  0  0  0  0  0  0  0  0  0
    4.3100   -3.5116   45.9897 C   0  0  0  0  0  0  0  0  0  0  0  0
    3.9874   -2.9959   44.7825 C   0  0  2  0  0  0  0  0  0  0  0  0
    2.6756   -3.5665   44.3583 C   0  0  0  0  0  0  0  0  0  0  0  0
    5.6482   -4.7812   47.6355 C   0  0  0  0  0  0  0  0  0  0  0  0
    6.3942   -5.8669   47.6833 C   0  0  0  0  0  0  0  0  0  0  0  0
    6.4788   -6.7359   48.8108 C   0  0  0  0  0  0  0  0  0  0  0  0
    5.9960   -7.8780   48.7570 C   0  0  0  0  0  0  0  0  0  0  0  0
    5.3149   -8.3398   47.5861 C   0  0  0  0  0  0  0  0  0  0  0  0
    3.9936   -8.9062   47.7078 C   0  0  0  0  0  0  0  0  0  0  0  0
    3.2233   -9.0269   46.5094 C   0  0  0  0  0  0  0  0  0  0  0  0
    1.9988   -9.7583   46.5229 C   0  0  0  0  0  0  0  0  0  0  0  0
    1.5894  -10.3630   47.7084 C   0  0  0  0  0  0  0  0  0  0  0  0
    2.3194  -10.2720   48.8887 C   0  0  0  0  0  0  0  0  0  0  0  0
    3.5357   -9.5937   48.8792 C   0  0  0  0  0  0  0  0  0  0  0  0
   -2.6220   -0.5914   41.3094 C   0  0  0  0  0  0  0  0  0  0  0  0
   -3.8380   -0.4336   40.8156 N   0  0  0  0  0  0  0  0  0  0  0  0
    1.8911   -4.1929   44.6950 O   0  0  0  0  0  0  0  0  0  0  0  0
  4  5  1  0
  1 10  1  0
  9 15  1  0
 14 15  1  0
 12 16  1  0
 16 17  2  0
 17 18  1  0
 18 19  2  0
 13 20  1  0
 20 19  1  6
 15 21  1  0
 20 21  1  0
 18 22  1  0
 22 23  2  3
 23 24  1  0
 24 25  2  3
 25 26  1  0
 26 27  1  0
 10 33  1  0
 33 34  2  3
 21 35  2  0
  5  6  1  0
  1  2  2  0
  2  8  1  0
  8  9  2  0
  9  4  1  0
  4  3  2  0
  3  1  1  0
  6  7  2  0
  7 11  1  0
 11 12  2  0
 12 13  1  0
 13 14  2  0
 14  6  1  0
 27 28  2  0
 28 29  1  0
 29 30  2  0
 30 31  1  0
 31 32  2  0
 32 27  1  0
M  END
$$$$
O14757_PocketFlow_idx-in-all-generaetd-771
     RDKit          3D

 12 12  0  0  0  0  0  0  0  0999 V2000
    0.2881   -2.9111   42.4378 C   0  0  0  0  0  0  0  0  0  0  0  0
   -0.0650   -2.5021   41.5798 C   0  0  0  0  0  0  0  0  0  0  0  0
    1.5584   -2.5265   43.0884 C   0  0  0  0  0  0  0  0  0  0  0  0
    2.2571   -1.5118   42.4661 C   0  0  0  0  0  0  0  0  0  0  0  0
    1.6539   -0.8478   41.4018 C   0  0  0  0  0  0  0  0  0  0  0  0
    0.5161   -1.3208   40.9011 N   0  0  0  0  0  0  0  0  0  0  0  0
    3.5532   -1.1079   43.0463 C   0  0  2  0  0  0  0  0  0  0  0  0
    4.3890   -0.2310   42.4221 C   0  0  0  0  0  0  0  0  0  0  0  0
    4.1035   -1.9027   44.1401 C   0  0  0  0  0  0  0  0  0  0  0  0
    3.9985   -3.1672   44.4515 C   0  0  0  0  0  0  0  0  0  0  0  0
    4.7187   -3.7084   45.4917 C   0  0  0  0  0  0  0  0  0  0  0  0
    5.6632   -2.8869   46.0394 C   0  0  0  0  0  0  0  0  0  0  0  0
  4  7  1  0
  7  8  1  6
  7  9  1  0
  9 10  2  3
 10 11  1  0
 11 12  2  0
  1  2  2  0
  2  6  1  0
  6  5  2  0
  5  4  1  0
  4  3  2  0
  3  1  1  0
M  END
$$$$
O14757_PocketFlow_idx-in-all-generaetd-772
     RDKit          3D

 30 32  0  0  0  0  0  0  0  0999 V2000
    0.0138   -2.7927   42.5918 N   0  0  0  0  0  0  0  0  0  0  0  0
    1.1722   -3.1858   42.8673 C   0  0  0  0  0  0  0  0  0  0  0  0
    2.1754   -2.1627   42.4478 C   0  0  0  0  0  0  0  0  0  0  0  0
    3.4099   -2.0520   43.0024 C   0  0  0  0  0  0  0  0  0  0  0  0
    3.7542   -2.3886   44.0902 C   0  0  0  0  0  0  0  0  0  0  0  0
    2.9592   -3.5139   44.6647 C   0  0  0  0  0  0  0  0  0  0  0  0
    1.5730   -3.7322   44.1720 C   0  0  0  0  0  0  0  0  0  0  0  0
   -0.1216   -1.7213   41.8045 C   0  0  0  0  0  0  0  0  0  0  0  0
    1.3005   -1.3085   41.6438 C   0  0  2  0  0  0  0  0  0  0  0  0
    1.7857   -0.1186   41.0330 C   0  0  0  0  0  0  0  0  0  0  0  0
    1.5451   -1.9653   40.2176 C   0  0  1  0  0  0  0  0  0  0  0  0
    2.6860   -2.2937   41.4209 Cl  0  0  0  0  0  0  0  0  0  0  0  0
    2.2577   -1.5572   39.4670 O   0  0  0  0  0  0  0  0  0  0  0  0
    0.7645   -4.6597   44.9137 C   0  0  1  0  0  0  0  0  0  0  0  0
   -0.1190   -5.1909   44.3300 O   0  0  0  0  0  0  0  0  0  0  0  0
    1.2393   -5.2987   45.9347 F   0  0  0  0  0  0  0  0  0  0  0  0
    5.0777   -2.2006   44.7287 C   0  0  0  0  0  0  0  0  0  0  0  0
    5.7454   -3.1413   45.5802 C   0  0  0  0  0  0  0  0  0  0  0  0
    7.0612   -2.7550   45.9929 C   0  0  0  0  0  0  0  0  0  0  0  0
    7.6360   -1.5777   45.5723 C   0  0  0  0  0  0  0  0  0  0  0  0
    6.9716   -0.8062   44.6829 N   0  0  0  0  0  0  0  0  0  0  0  0
    5.7304   -1.0245   44.2677 C   0  0  0  0  0  0  0  0  0  0  0  0
    8.8985   -1.2477   45.9286 N   0  0  0  0  0  0  0  0  0  0  0  0
    7.8428   -3.6296   46.8613 C   0  0  0  0  0  0  0  0  0  0  0  0
    9.1326   -3.2487   47.2891 C   0  0  0  0  0  0  0  0  0  0  0  0
    9.6320   -1.9767   46.7875 C   0  0  0  0  0  0  0  0  0  0  0  0
   10.8535   -1.5025   47.2103 N   0  0  0  0  0  0  0  0  0  0  0  0
    0.8170   -3.1913   40.1202 C   0  0  0  0  0  0  0  0  0  0  0  0
   -0.9328   -0.6481   42.7403 C   0  0  0  0  0  0  0  0  0  0  0  0
   -2.0811   -0.1537   41.8728 C   0  0  0  0  0  0  0  0  0  0  0  0
  1  2  1  0
  1  8  2  3
  8  9  1  0
  9 10  1  6
  9 11  1  0
  3 12  1  0
 11 13  1  0
  7 14  1  0
 14 15  1  6
 14 16  1  0
  5 17  1  0
 26 27  1  0
 11 28  1  1
  8 29  1  0
 29 30  1  0
 17 18  2  0
 18 19  1  0
 20 21  1  0
 21 22  2  0
 22 17  1  0
  2  3  2  0
  3  4  1  0
  4  5  2  0
  5  6  1  0
  6  7  2  0
  7  2  1  0
 19 20  2  0
 20 23  1  0
 23 26  2  0
 26 25  1  0
 25 24  2  0
 24 19  1  0
M  END
$$$$
O14757_PocketFlow_idx-in-all-generaetd-773
     RDKit          3D

 35 37  0  0  0  0  0  0  0  0999 V2000
   -0.6395   -2.0713   41.4947 C   0  0  0  0  0  0  0  0  0  0  0  0
   -0.2671   -3.2464   41.6546 C   0  0  0  0  0  0  0  0  0  0  0  0
    0.2407   -0.9706   41.5952 C   0  0  0  0  0  0  0  0  0  0  0  0
    1.6195   -1.2958   41.8767 C   0  0  0  0  0  0  0  0  0  0  0  0
    1.9162   -2.6816   42.2016 C   0  0  0  0  0  0  0  0  0  0  0  0
    0.9422   -3.6324   42.1156 C   0  0  0  0  0  0  0  0  0  0  0  0
    2.6136   -0.2815   42.1191 C   0  0  0  0  0  0  0  0  0  0  0  0
    3.9096   -0.5773   42.5950 C   0  0  0  0  0  0  0  0  0  0  0  0
    4.9367    0.3662   42.6897 C   0  0  0  0  0  0  0  0  0  0  0  0
   -1.9685   -1.7782   41.0767 N   0  0  0  0  0  0  0  0  0  0  0  0
    4.1660   -1.8451   43.2136 C   0  0  0  0  0  0  0  0  0  0  0  0
    5.2550   -1.9601   44.1866 C   0  0  0  0  0  0  0  0  0  0  0  0
    5.0877   -2.0677   45.4625 C   0  0  0  0  0  0  0  0  0  0  0  0
    5.3382   -3.2891   46.0568 C   0  0  2  0  0  0  0  0  0  0  0  0
    4.4039   -4.0593   46.6886 C   0  0  0  0  0  0  0  0  0  0  0  0
    4.1242   -5.1428   45.9435 C   0  0  0  0  0  0  0  0  0  0  0  0
    2.8276   -5.1799   45.2807 C   0  0  0  0  0  0  0  0  0  0  0  0
    1.9361   -6.0369   45.7997 C   0  0  0  0  0  0  0  0  0  0  0  0
    1.6996   -7.1528   45.1243 N   0  0  0  0  0  0  0  0  0  0  0  0
    0.4975   -7.7555   44.9975 C   0  0  0  0  0  0  0  0  0  0  0  0
   -0.2672   -7.8472   46.1594 C   0  0  0  0  0  0  0  0  0  0  0  0
   -1.6285   -8.0080   45.9886 C   0  0  0  0  0  0  0  0  0  0  0  0
   -2.3814   -8.6466   46.9638 C   0  0  0  0  0  0  0  0  0  0  0  0
   -1.8301   -8.6760   48.2955 C   0  0  0  0  0  0  0  0  0  0  0  0
   -0.4606   -8.4289   48.4712 C   0  0  0  0  0  0  0  0  0  0  0  0
    0.3009   -7.9813   47.3811 C   0  0  0  0  0  0  0  0  0  0  0  0
   -2.3027   -7.7926   44.6818 C   0  0  0  0  0  0  0  0  0  0  0  0
   -3.6337   -8.1949   44.4305 C   0  0  0  0  0  0  0  0  0  0  0  0
   -4.5103   -7.9277   45.0720 C   0  0  0  0  0  0  0  0  0  0  0  0
   -5.8601   -7.9964   44.5358 C   0  0  0  0  0  0  0  0  0  0  0  0
   -6.0236   -8.2298   43.2167 C   0  0  0  0  0  0  0  0  0  0  0  0
   -4.8680   -8.4933   42.4275 C   0  0  0  0  0  0  0  0  0  0  0  0
   -3.6236   -8.3673   43.0427 C   0  0  0  0  0  0  0  0  0  0  0  0
    6.6918   -2.9866   47.0003 C   0  0  0  0  0  0  0  0  0  0  0  0
    7.1643   -4.0175   47.7392 C   0  0  0  0  0  0  0  0  0  0  0  0
  4  7  1  0
  7  8  2  3
  8  9  1  0
  1 10  1  0
  8 11  1  0
 11 12  1  0
 12 13  2  3
 13 14  1  0
 14 15  1  1
 15 16  1  0
 16 17  1  0
 17 18  1  0
 18 19  1  0
 19 20  1  0
 20 21  1  0
 22 27  1  0
 14 34  1  0
 34 35  2  0
 27 28  1  0
 28 29  2  0
 29 30  1  0
 30 31  2  0
 31 32  1  0
 32 33  2  0
 33 28  1  0
  1  2  2  0
  2  6  1  0
  6  5  2  0
  5  4  1  0
  4  3  2  0
  3  1  1  0
 21 22  1  0
 22 23  2  0
 23 24  1  0
 24 25  2  0
 25 26  1  0
 26 21  2  0
M  END
$$$$
O14757_PocketFlow_idx-in-all-generaetd-774
     RDKit          3D

 14 15  0  0  0  0  0  0  0  0999 V2000
    0.2881   -2.9111   42.4378 C   0  0  0  0  0  0  0  0  0  0  0  0
    1.3023   -2.0648   42.1981 C   0  0  0  0  0  0  0  0  0  0  0  0
    2.5313   -2.2887   42.6989 C   0  0  0  0  0  0  0  0  0  0  0  0
    2.7176   -3.3676   43.6275 C   0  0  0  0  0  0  0  0  0  0  0  0
    4.0171   -3.5875   44.2356 C   0  0  0  0  0  0  0  0  0  0  0  0
    0.5322   -4.0249   43.2664 C   0  0  0  0  0  0  0  0  0  0  0  0
    1.7078   -4.1293   43.9392 C   0  0  0  0  0  0  0  0  0  0  0  0
    4.2620   -4.6426   45.0838 C   0  0  0  0  0  0  0  0  0  0  0  0
    3.1489   -5.5739   45.2070 C   0  0  0  0  0  0  0  0  0  0  0  0
    1.9015   -5.3668   44.7354 C   0  0  0  0  0  0  0  0  0  0  0  0
   -0.8607   -2.7422   41.8288 F   0  0  0  0  0  0  0  0  0  0  0  0
    1.0815   -0.9428   41.2574 C   0  0  0  0  0  0  0  0  0  0  0  0
    1.9768    0.2315   41.6620 C   0  0  0  0  0  0  0  0  0  0  0  0
    3.1370    0.0884   42.2916 C   0  0  0  0  0  0  0  0  0  0  0  0
  1 11  1  0
  2 12  1  0
 12 13  1  0
 13 14  2  0
  4  5  1  0
  5  8  2  0
  8  9  1  0
  9 10  2  0
 10  7  1  0
  1  2  2  0
  2  3  1  0
  3  4  2  0
  4  7  1  0
  7  6  2  0
  6  1  1  0
M  END
$$$$
O14757_PocketFlow_idx-in-all-generaetd-775
     RDKit          3D

 10 10  0  0  0  0  0  0  0  0999 V2000
   -0.6395   -2.0713   41.4947 C   0  0  0  0  0  0  0  0  0  0  0  0
   -0.2671   -3.2464   41.6546 C   0  0  0  0  0  0  0  0  0  0  0  0
    0.2407   -0.9706   41.5952 C   0  0  0  0  0  0  0  0  0  0  0  0
    1.6195   -1.2958   41.8767 C   0  0  0  0  0  0  0  0  0  0  0  0
    1.8329   -2.3773   42.4466 C   0  0  0  0  0  0  0  0  0  0  0  0
    0.9080   -3.5340   42.3371 C   0  0  0  0  0  0  0  0  0  0  0  0
    2.5545   -0.1751   42.1299 C   0  0  0  0  0  0  0  0  0  0  0  0
    3.8831   -0.4500   42.5750 C   0  0  0  0  0  0  0  0  0  0  0  0
    4.1069   -1.6215   43.3628 C   0  0  0  0  0  0  0  0  0  0  0  0
    5.2534   -1.8839   44.0782 C   0  0  0  0  0  0  0  0  0  0  0  0
  4  7  1  0
  7  8  2  3
  8  9  1  0
  9 10  1  0
  1  2  2  0
  2  6  1  0
  6  5  2  0
  5  4  1  0
  4  3  2  0
  3  1  1  0
M  END
$$$$
O14757_PocketFlow_idx-in-all-generaetd-776
     RDKit          3D

 35 38  0  0  0  0  0  0  0  0999 V2000
   -0.6395   -2.0713   41.4947 C   0  0  0  0  0  0  0  0  0  0  0  0
    0.6719   -2.2449   41.7518 C   0  0  0  0  0  0  0  0  0  0  0  0
    1.5951   -1.1948   41.6106 C   0  0  0  0  0  0  0  0  0  0  0  0
    2.9587   -1.3961   42.0240 C   0  0  0  0  0  0  0  0  0  0  0  0
    3.8815   -0.3441   42.0598 C   0  0  0  0  0  0  0  0  0  0  0  0
    5.0972   -0.5585   42.8399 C   0  0  0  0  0  0  0  0  0  0  0  0
    5.2418   -1.6670   43.6610 C   0  0  0  0  0  0  0  0  0  0  0  0
    4.2343   -2.6445   43.6677 C   0  0  0  0  0  0  0  0  0  0  0  0
    3.0537   -2.4403   42.9427 C   0  0  0  0  0  0  0  0  0  0  0  0
   -1.1866   -0.7754   41.3003 C   0  0  0  0  0  0  0  0  0  0  0  0
   -2.5731   -0.7077   41.0331 C   0  0  0  0  0  0  0  0  0  0  0  0
    4.3833   -3.8404   44.4952 C   0  0  0  0  0  0  0  0  0  0  0  0
    4.9246   -3.8233   45.7075 N   0  0  0  0  0  0  0  0  0  0  0  0
    5.8545   -3.0178   46.1086 C   0  0  0  0  0  0  0  0  0  0  0  0
    6.4031   -3.3641   47.4453 C   0  0  0  0  0  0  0  0  0  0  0  0
    5.5845   -4.4984   47.9280 C   0  0  0  0  0  0  0  0  0  0  0  0
    4.7310   -4.8484   46.6707 C   0  0  0  0  0  0  0  0  0  0  0  0
   -3.2752   -1.8110   40.6457 C   0  0  0  0  0  0  0  0  0  0  0  0
   -2.6470   -3.0897   40.6301 C   0  0  0  0  0  0  0  0  0  0  0  0
   -1.4147   -3.1623   41.0673 C   0  0  0  0  0  0  0  0  0  0  0  0
    1.7533   -0.5752   40.2157 C   0  0  0  0  0  0  0  0  0  0  0  0
   -3.1548    0.5281   40.9692 O   0  0  0  0  0  0  0  0  0  0  0  0
    3.9054   -4.9174   44.0999 O   0  0  0  0  0  0  0  0  0  0  0  0
    5.8142   -5.2786   49.0605 C   0  0  0  0  0  0  0  0  0  0  0  0
    6.6764   -5.0060   49.8164 O   0  0  0  0  0  0  0  0  0  0  0  0
    5.0763   -6.4621   49.2379 N   0  0  0  0  0  0  0  0  0  0  0  0
    5.7249   -7.6421   49.8395 C   0  0  0  0  0  0  0  0  0  0  0  0
    4.7750   -8.5972   50.0546 C   0  0  0  0  0  0  0  0  0  0  0  0
    4.0179   -9.0491   48.9639 C   0  0  0  0  0  0  0  0  0  0  0  0
    2.8676   -9.8679   49.1477 C   0  0  0  0  0  0  0  0  0  0  0  0
    2.4352  -10.0868   50.4155 C   0  0  0  0  0  0  0  0  0  0  0  0
    3.1589   -9.6586   51.5747 C   0  0  0  0  0  0  0  0  0  0  0  0
    4.2978   -8.8682   51.3885 C   0  0  0  0  0  0  0  0  0  0  0  0
    1.2315  -10.9631   50.6369 C   0  0  0  0  0  0  0  0  0  0  0  0
    0.8955  -11.4273   51.7245 N   0  0  0  0  0  0  0  0  0  0  0  0
  1  2  1  0
  2  3  2  3
  3  4  1  0
  8 12  1  0
 12 13  1  0
 13 14  1  0
 14 15  2  0
 15 16  1  0
 13 17  1  0
 16 17  2  0
  3 21  1  0
 11 22  1  0
 12 23  2  0
 16 24  1  0
 24 25  2  0
 24 26  1  0
 26 27  1  0
 27 28  1  0
 31 34  1  0
 34 35  1  0
 28 29  2  0
 29 30  1  0
 30 31  2  0
 31 32  1  0
 32 33  2  0
 33 28  1  0
  1 10  2  0
 10 11  1  0
 11 18  2  0
 18 19  1  0
 19 20  2  0
 20  1  1  0
  4  5  2  0
  5  6  1  0
  6  7  2  0
  7  8  1  0
  8  9  2  0
  9  4  1  0
M  END
$$$$
O14757_PocketFlow_idx-in-all-generaetd-777
     RDKit          3D

 35 39  0  0  0  0  0  0  0  0999 V2000
   -0.6395   -2.0713   41.4947 C   0  0  0  0  0  0  0  0  0  0  0  0
    0.1859   -1.1027   41.5970 C   0  0  0  0  0  0  0  0  0  0  0  0
    1.5858   -1.4430   41.9548 C   0  0  0  0  0  0  0  0  0  0  0  0
    2.6622   -0.5501   42.0082 C   0  0  0  0  0  0  0  0  0  0  0  0
    3.8608   -0.8421   42.6622 C   0  0  0  0  0  0  0  0  0  0  0  0
    4.8744    0.0633   42.9841 C   0  0  0  0  0  0  0  0  0  0  0  0
   -0.2157   -3.3459   41.5109 N   0  0  0  0  0  0  0  0  0  0  0  0
    0.9638   -3.7644   41.9388 C   0  0  0  0  0  0  0  0  0  0  0  0
    1.8966   -2.7588   42.0640 C   0  0  0  0  0  0  0  0  0  0  0  0
   -1.9621   -1.7028   41.1371 N   0  0  0  0  0  0  0  0  0  0  0  0
    5.9717   -0.4387   43.6713 C   0  0  0  0  0  0  0  0  0  0  0  0
    5.9571   -1.6549   44.4052 C   0  0  0  0  0  0  0  0  0  0  0  0
    4.8778   -2.5101   44.1134 C   0  0  0  0  0  0  0  0  0  0  0  0
    3.8726   -2.0749   43.3737 C   0  0  0  0  0  0  0  0  0  0  0  0
    2.8068   -2.9804   42.9635 C   0  0  0  0  0  0  0  0  0  0  0  0
    7.0825   -1.9760   45.2541 C   0  0  0  0  0  0  0  0  0  0  0  0
    7.0160   -3.1960   46.0425 C   0  0  0  0  0  0  0  0  0  0  0  0
    8.0876   -3.4269   46.9259 C   0  0  0  0  0  0  0  0  0  0  0  0
    9.1282   -2.5276   47.1044 C   0  0  0  0  0  0  0  0  0  0  0  0
    8.1269   -1.0990   45.5889 C   0  0  0  0  0  0  0  0  0  0  0  0
    9.1151   -1.3169   46.4845 C   0  0  0  0  0  0  0  0  0  0  0  0
   -2.4939   -0.5026   41.2370 C   0  0  0  0  0  0  0  0  0  0  0  0
   -3.7744   -0.3165   40.8512 N   0  0  0  0  0  0  0  0  0  0  0  0
    8.0934   -4.7550   47.6289 C   0  0  0  0  0  0  0  0  0  0  0  0
    7.0254   -4.9250   48.4206 N   0  0  0  0  0  0  0  0  0  0  0  0
    6.0065   -5.7741   48.1985 C   0  0  0  0  0  0  0  0  0  0  0  0
    6.8431   -4.1422   49.6150 C   0  0  0  0  0  0  0  0  0  0  0  0
    8.1049   -3.8386   50.2908 C   0  0  0  0  0  0  0  0  0  0  0  0
    9.0535   -4.7405   50.5642 C   0  0  0  0  0  0  0  0  0  0  0  0
    8.9523   -5.7334   50.6655 C   0  0  0  0  0  0  0  0  0  0  0  0
   10.0812   -6.6688   51.0151 C   0  0  0  0  0  0  0  0  0  0  0  0
   11.2827   -6.0918   51.1993 C   0  0  0  0  0  0  0  0  0  0  0  0
   10.3542   -4.0542   50.9450 C   0  0  0  0  0  0  0  0  0  0  0  0
   11.4368   -4.7480   51.2341 C   0  0  0  0  0  0  0  0  0  0  0  0
    5.3744   -5.8939   47.1473 C   0  0  0  0  0  0  0  0  0  0  0  0
  3  4  1  0
  4  5  1  0
  1 10  1  0
  9 15  1  0
 14 15  1  0
 12 16  1  0
 10 22  1  0
 22 23  2  3
 18 24  1  0
 24 25  1  0
 25 26  1  0
 25 27  1  0
 27 28  1  0
 28 29  1  0
 26 35  1  0
  1  2  2  0
  2  3  1  0
  3  9  2  0
  9  8  1  0
  8  7  2  0
  7  1  1  0
 29 30  2  0
 30 31  1  0
 31 32  2  0
 32 34  1  0
 34 33  2  0
 33 29  1  0
  5  6  2  0
  6 11  1  0
 11 12  2  0
 12 13  1  0
 13 14  2  0
 14  5  1  0
 16 17  2  0
 17 18  1  0
 18 19  2  0
 19 21  1  0
 21 20  2  0
 20 16  1  0
M  END
$$$$
O14757_PocketFlow_idx-in-all-generaetd-778
     RDKit          3D

 20 21  0  0  0  0  0  0  0  0999 V2000
   -0.6395   -2.0713   41.4947 C   0  0  0  0  0  0  0  0  0  0  0  0
    0.6719   -2.2449   41.7518 C   0  0  0  0  0  0  0  0  0  0  0  0
    1.5951   -1.1948   41.6106 C   0  0  0  0  0  0  0  0  0  0  0  0
    2.8936   -1.2860   42.2441 C   0  0  0  0  0  0  0  0  0  0  0  0
    3.7940   -0.2219   42.2897 C   0  0  0  0  0  0  0  0  0  0  0  0
   -1.1202   -0.7267   41.4285 C   0  0  0  0  0  0  0  0  0  0  0  0
    5.0305   -0.3720   42.9271 C   0  0  0  0  0  0  0  0  0  0  0  0
    5.3171   -1.5195   43.6789 C   0  0  0  0  0  0  0  0  0  0  0  0
    4.3748   -2.5845   43.6784 C   0  0  0  0  0  0  0  0  0  0  0  0
    3.1565   -2.4475   43.0155 C   0  0  0  0  0  0  0  0  0  0  0  0
   -0.1451    0.2409   41.3707 N   0  0  0  0  0  0  0  0  0  0  0  0
    1.1476    0.0295   41.5486 C   0  0  0  0  0  0  0  0  0  0  0  0
    4.6450   -3.8027   44.4272 C   0  0  0  0  0  0  0  0  0  0  0  0
    4.0067   -4.0609   45.6375 C   0  0  1  0  0  0  0  0  0  0  0  0
    4.4576   -3.3187   46.7303 C   0  0  0  0  0  0  0  0  0  0  0  0
    2.8232   -4.8253   45.6550 C   0  0  0  0  0  0  0  0  0  0  0  0
    1.5557   -4.2306   45.7334 C   0  0  0  0  0  0  0  0  0  0  0  0
    0.3509   -4.9862   45.7291 C   0  0  0  0  0  0  0  0  0  0  0  0
    0.4393   -6.3763   45.5163 C   0  0  0  0  0  0  0  0  0  0  0  0
    1.6982   -6.9542   45.2752 C   0  0  0  0  0  0  0  0  0  0  0  0
  3  4  1  0
  9 13  1  0
 13 14  1  0
 14 15  1  6
 14 16  1  0
 16 17  2  3
 17 18  1  0
 18 19  2  3
 19 20  1  0
  4  5  2  0
  5  7  1  0
  7  8  2  0
  8  9  1  0
  9 10  2  0
 10  4  1  0
  1  2  2  0
  2  3  1  0
  3 12  2  0
 12 11  1  0
 11  6  2  0
  6  1  1  0
M  END
$$$$
O14757_PocketFlow_idx-in-all-generaetd-779
     RDKit          3D

 22 24  0  0  0  0  0  0  0  0999 V2000
    0.2881   -2.9111   42.4378 C   0  0  0  0  0  0  0  0  0  0  0  0
    1.1784   -3.4293   42.9321 C   0  0  0  0  0  0  0  0  0  0  0  0
    2.4696   -2.7231   42.8997 C   0  0  0  0  0  0  0  0  0  0  0  0
    3.6320   -3.1839   43.6508 C   0  0  0  0  0  0  0  0  0  0  0  0
    4.7810   -2.3542   43.7528 C   0  0  0  0  0  0  0  0  0  0  0  0
    0.3948   -1.7688   41.5591 C   0  0  0  0  0  0  0  0  0  0  0  0
    4.7418   -1.1156   43.0950 C   0  0  0  0  0  0  0  0  0  0  0  0
    3.5849   -0.7353   42.4357 C   0  0  0  0  0  0  0  0  0  0  0  0
    2.4711   -1.4319   42.4022 C   0  0  0  0  0  0  0  0  0  0  0  0
    1.4666   -1.0034   41.6356 C   0  0  0  0  0  0  0  0  0  0  0  0
    3.6893   -4.4478   44.3761 C   0  0  0  0  0  0  0  0  0  0  0  0
    3.1279   -4.6874   45.5735 N   0  0  0  0  0  0  0  0  0  0  0  0
    2.5830   -5.8144   45.9778 C   0  0  0  0  0  0  0  0  0  0  0  0
    1.7701   -6.4330   45.0023 C   0  0  0  0  0  0  0  0  0  0  0  0
    0.8555   -7.4514   45.5499 C   0  0  0  0  0  0  0  0  0  0  0  0
   -0.5081   -7.1697   45.5685 C   0  0  0  0  0  0  0  0  0  0  0  0
   -1.4576   -8.1199   46.0541 C   0  0  0  0  0  0  0  0  0  0  0  0
   -2.8415   -7.9035   45.8592 C   0  0  0  0  0  0  0  0  0  0  0  0
   -3.6925   -8.8562   46.2505 C   0  0  0  0  0  0  0  0  0  0  0  0
   -3.2471   -9.9331   47.0109 C   0  0  0  0  0  0  0  0  0  0  0  0
   -1.9532  -10.0497   47.3565 C   0  0  0  0  0  0  0  0  0  0  0  0
   -1.0201   -9.0769   46.8970 C   0  0  0  0  0  0  0  0  0  0  0  0
  4 11  1  0
 11 12  1  0
 12 13  1  0
 13 14  1  0
 14 15  2  3
 15 16  1  0
 16 17  1  0
 17 18  2  0
 18 19  1  0
 19 20  2  0
 20 21  1  0
 21 22  2  0
 22 17  1  0
  3  4  2  0
  4  5  1  0
  5  7  2  0
  7  8  1  0
  8  9  2  0
  1  2  2  0
  2  3  1  0
  3  9  1  0
  9 10  1  0
 10  6  2  0
  6  1  1  0
M  END
$$$$
O14757_PocketFlow_idx-in-all-generaetd-780
     RDKit          3D

 34 39  0  0  0  0  0  0  0  0999 V2000
   -0.6395   -2.0713   41.4947 C   0  0  0  0  0  0  0  0  0  0  0  0
    0.6719   -2.2449   41.7518 C   0  0  2  0  0  0  0  0  0  0  0  0
    1.1287   -3.3339   42.4778 C   0  0  0  0  0  0  0  0  0  0  0  0
    2.2706   -3.1945   43.3374 C   0  0  0  0  0  0  0  0  0  0  0  0
    2.5794   -4.1545   44.3183 C   0  0  0  0  0  0  0  0  0  0  0  0
    3.8011   -3.9870   45.0471 C   0  0  0  0  0  0  0  0  0  0  0  0
    4.1720   -4.8681   46.0793 C   0  0  0  0  0  0  0  0  0  0  0  0
    3.4512   -6.0704   46.2039 C   0  0  0  0  0  0  0  0  0  0  0  0
    2.2833   -6.2371   45.4432 C   0  0  0  0  0  0  0  0  0  0  0  0
    1.8066   -5.2972   44.5007 C   0  0  0  0  0  0  0  0  0  0  0  0
    3.1197   -2.0430   43.1090 C   0  0  0  0  0  0  0  0  0  0  0  0
    2.6334   -0.9711   42.3191 C   0  0  0  0  0  0  0  0  0  0  0  0
    1.3955   -1.0759   41.7396 C   0  0  0  0  0  0  0  0  0  0  0  0
   -1.3815   -1.0617   41.4360 O   0  0  0  0  0  0  0  0  0  0  0  0
   -1.4136   -3.2351   41.3863 O   0  0  0  0  0  0  0  0  0  0  0  0
    5.4303   -4.6902   46.8091 C   0  0  0  0  0  0  0  0  0  0  0  0
    5.4713   -3.7812   47.5757 N   0  0  0  0  0  0  0  0  0  0  0  0
    3.4037    0.1479   42.2435 N   0  0  0  0  0  0  0  0  0  0  0  0
    6.5967   -3.6691   48.5166 C   0  0  0  0  0  0  0  0  0  0  0  0
    7.4212   -4.4538   48.4327 C   0  0  0  0  0  0  0  0  0  0  0  0
    8.5994   -4.3401   49.3577 C   0  0  0  0  0  0  0  0  0  0  0  0
    8.5545   -3.3643   50.3540 C   0  0  0  0  0  0  0  0  0  0  0  0
    7.3311   -2.7507   50.5779 C   0  0  0  0  0  0  0  0  0  0  0  0
    6.4331   -2.8968   49.6922 C   0  0  0  0  0  0  0  0  0  0  0  0
    9.7038   -3.2554   51.3546 C   0  0  0  0  0  0  0  0  0  0  0  0
   10.6948   -2.3250   50.9393 C   0  0  0  0  0  0  0  0  0  0  0  0
   11.4302   -1.9897   51.7675 C   0  0  0  0  0  0  0  0  0  0  0  0
    9.7416   -3.8905   52.4959 C   0  0  0  0  0  0  0  0  0  0  0  0
   10.6889   -3.5780   53.5008 C   0  0  0  0  0  0  0  0  0  0  0  0
   11.6443   -2.5783   53.1164 C   0  0  0  0  0  0  0  0  0  0  0  0
    4.7539    0.1662   42.6736 C   0  0  0  0  0  0  0  0  0  0  0  0
    5.1234   -0.8402   43.5250 N   0  0  0  0  0  0  0  0  0  0  0  0
    4.4092   -1.8841   43.7394 C   0  0  0  0  0  0  0  0  0  0  0  0
    4.6046   -2.7648   44.7124 C   0  0  0  0  0  0  0  0  0  0  0  0
  2  1  1  1
  2  3  1  0
  3  4  1  0
  2 13  1  0
 12 13  1  0
  1 14  2  0
  1 15  1  0
  7 16  1  0
 16 17  1  0
 17 19  1  0
 22 25  1  0
  6  7  1  0
  7  8  2  0
  8  9  1  0
  9 10  2  0
 10  5  1  0
 11 12  2  0
 12 18  1  0
 18 31  2  0
 31 32  1  0
 32 33  2  0
 25 26  2  0
 26 27  1  0
 27 30  2  0
 30 29  1  0
 29 28  2  0
 28 25  1  0
 19 20  2  0
 20 21  1  0
 21 22  2  0
 22 23  1  0
 23 24  2  0
 24 19  1  0
  4  5  2  0
  5  6  1  0
  6 34  2  0
 34 33  1  0
 33 11  1  0
 11  4  1  0
M  END
$$$$
O14757_PocketFlow_idx-in-all-generaetd-781
     RDKit          3D

 31 34  0  0  0  0  0  0  0  0999 V2000
    0.2881   -2.9111   42.4378 C   0  0  0  0  0  0  0  0  0  0  0  0
   -0.0650   -2.5021   41.5798 C   0  0  0  0  0  0  0  0  0  0  0  0
    1.6221   -3.4772   42.5980 C   0  0  0  0  0  0  0  0  0  0  0  0
    2.0908   -4.0216   43.8699 C   0  0  2  0  0  0  0  0  0  0  0  0
    1.0527   -4.4695   44.7582 C   0  0  0  0  0  0  0  0  0  0  0  0
    1.4988   -5.1967   45.9121 C   0  0  0  0  0  0  0  0  0  0  0  0
    0.4508   -5.6809   46.5932 N   0  0  0  0  0  0  0  0  0  0  0  0
    0.8740   -1.8346   40.6251 C   0  0  0  0  0  0  0  0  0  0  0  0
    1.5969   -0.7041   41.1826 C   0  0  0  0  0  0  0  0  0  0  0  0
    2.6071   -0.9243   42.0885 C   0  0  0  0  0  0  0  0  0  0  0  0
    3.5106    0.0532   42.5787 C   0  0  0  0  0  0  0  0  0  0  0  0
    4.5816   -0.2638   43.3836 C   0  0  0  0  0  0  0  0  0  0  0  0
    4.7397   -1.5696   43.8271 C   0  0  0  0  0  0  0  0  0  0  0  0
    3.8361   -2.5466   43.4043 C   0  0  0  0  0  0  0  0  0  0  0  0
    2.9000   -2.2172   42.6005 C   0  0  0  0  0  0  0  0  0  0  0  0
    3.4130   -3.7839   44.2666 C   0  0  0  0  0  0  0  0  0  0  0  0
    5.9229   -1.9146   44.6824 C   0  0  0  0  0  0  0  0  0  0  0  0
    6.9712   -1.1382   44.9174 N   0  0  0  0  0  0  0  0  0  0  0  0
    6.0625   -3.2143   45.3646 C   0  0  0  0  0  0  0  0  0  0  0  0
    6.8580   -3.2304   46.4324 C   0  0  0  0  0  0  0  0  0  0  0  0
    7.8490   -2.1710   46.2480 C   0  0  2  0  0  0  0  0  0  0  0  0
   -1.4600   -2.5406   41.1039 C   0  0  0  0  0  0  0  0  0  0  0  0
    8.5325   -1.5093   47.0641 C   0  0  0  0  0  0  0  0  0  0  0  0
   -0.7537   -5.7649   46.0123 C   0  0  0  0  0  0  0  0  0  0  0  0
   -1.1138   -7.2205   45.6905 C   0  0  2  0  0  0  0  0  0  0  0  0
   -0.2196   -7.9621   45.8137 C   0  0  0  0  0  0  0  0  0  0  0  0
   -2.3471   -7.5136   45.0380 C   0  0  0  0  0  0  0  0  0  0  0  0
   -3.3416   -8.1266   45.7968 C   0  0  0  0  0  0  0  0  0  0  0  0
   -3.8404   -9.0165   45.4275 C   0  0  0  0  0  0  0  0  0  0  0  0
   -3.9822   -9.4292   44.0185 C   0  0  0  0  0  0  0  0  0  0  0  0
   -3.3405   -8.4551   43.1728 C   0  0  0  0  0  0  0  0  0  0  0  0
  1  2  1  0
  1  3  2  0
  3  4  1  0
  4  5  1  1
  5  6  1  0
  6  7  1  0
  2  8  2  0
  8  9  1  0
  9 10  1  0
  3 15  1  0
  4 16  1  0
 14 16  1  0
 13 17  1  0
 17 18  2  0
 17 19  1  0
 19 20  1  0
 18 21  1  0
 20 21  1  0
  2 22  1  0
 21 23  1  1
  7 24  1  0
 24 25  1  0
 25 26  1  6
 25 27  1  0
 27 28  2  3
 28 29  1  0
 29 30  2  3
 30 31  1  0
 10 11  2  0
 11 12  1  0
 12 13  2  0
 13 14  1  0
 14 15  2  0
 15 10  1  0
M  END
$$$$
O14757_PocketFlow_idx-in-all-generaetd-782
     RDKit          3D

 12 12  0  0  0  0  0  0  0  0999 V2000
   -0.8794   -1.9236   41.9357 O   0  0  0  0  0  0  0  0  0  0  0  0
    0.3182   -2.2442   41.7073 C   0  0  0  0  0  0  0  0  0  0  0  0
    0.6331   -3.7049   41.7547 C   0  0  0  0  0  0  0  0  0  0  0  0
    1.2769   -1.3708   41.3620 N   0  0  0  0  0  0  0  0  0  0  0  0
    1.1759   -0.0129   41.5140 C   0  0  0  0  0  0  0  0  0  0  0  0
   -0.0176   -4.2839   42.9664 C   0  0  0  0  0  0  0  0  0  0  0  0
    1.0406   -4.1208   43.9877 C   0  0  0  0  0  0  0  0  0  0  0  0
    0.8964   -4.8227   45.2111 C   0  0  0  0  0  0  0  0  0  0  0  0
    1.7327   -4.6015   46.2443 C   0  0  0  0  0  0  0  0  0  0  0  0
    3.0482   -4.0579   46.0365 C   0  0  0  0  0  0  0  0  0  0  0  0
    3.3056   -3.4313   44.7875 C   0  0  0  0  0  0  0  0  0  0  0  0
    2.3342   -3.5472   43.7408 C   0  0  0  0  0  0  0  0  0  0  0  0
  1  2  2  0
  2  3  1  0
  2  4  1  0
  4  5  1  0
  3  6  1  0
  6  7  1  0
  7  8  2  0
  8  9  1  0
  9 10  2  0
 10 11  1  0
 11 12  2  0
 12  7  1  0
M  END
$$$$
O14757_PocketFlow_idx-in-all-generaetd-783
     RDKit          3D

 35 37  0  0  0  0  0  0  0  0999 V2000
    0.2881   -2.9111   42.4378 C   0  0  0  0  0  0  0  0  0  0  0  0
    1.3023   -2.0648   42.1981 C   0  0  0  0  0  0  0  0  0  0  0  0
    1.5313   -1.1110   42.4802 C   0  0  0  0  0  0  0  0  0  0  0  0
    2.7418   -0.3292   42.1607 C   0  0  1  0  0  0  0  0  0  0  0  0
    3.0459    0.9587   42.3059 C   0  0  0  0  0  0  0  0  0  0  0  0
    0.2330   -4.2444   41.8186 C   0  0  0  0  0  0  0  0  0  0  0  0
    3.8159   -1.2673   41.9199 C   0  0  0  0  0  0  0  0  0  0  0  0
    5.1438   -0.7395   42.3644 C   0  0  0  0  0  0  0  0  0  0  0  0
    5.6721   -1.4324   43.5267 C   0  0  0  0  0  0  0  0  0  0  0  0
    6.2894   -0.8377   44.5987 C   0  0  0  0  0  0  0  0  0  0  0  0
    6.5865   -1.7797   45.6422 C   0  0  0  0  0  0  0  0  0  0  0  0
    5.8460   -3.0251   45.5213 C   0  0  0  0  0  0  0  0  0  0  0  0
    5.0442   -3.3969   44.5953 C   0  0  0  0  0  0  0  0  0  0  0  0
    4.9095   -2.5956   43.6524 C   0  0  0  0  0  0  0  0  0  0  0  0
    6.2393   -3.9530   46.7574 C   0  0  0  0  0  0  0  0  0  0  0  0
    5.1109   -4.5349   47.4305 C   0  0  0  0  0  0  0  0  0  0  0  0
    5.4625   -5.2266   48.5272 N   0  0  0  0  0  0  0  0  0  0  0  0
    4.0034   -4.5194   46.9344 O   0  0  0  0  0  0  0  0  0  0  0  0
   -0.5973   -5.1685   42.4644 C   0  0  0  0  0  0  0  0  0  0  0  0
    0.2081   -6.1957   42.8001 O   0  0  0  0  0  0  0  0  0  0  0  0
   -0.3246   -6.7693   44.0812 C   0  0  0  0  0  0  0  0  0  0  0  0
   -1.5871   -7.3152   44.1477 C   0  0  0  0  0  0  0  0  0  0  0  0
   -1.8789   -8.0270   45.3844 C   0  0  0  0  0  0  0  0  0  0  0  0
   -0.9099   -8.2363   46.3561 C   0  0  0  0  0  0  0  0  0  0  0  0
    0.3573   -7.6524   46.2589 C   0  0  0  0  0  0  0  0  0  0  0  0
    0.7150   -6.9571   45.1305 C   0  0  0  0  0  0  0  0  0  0  0  0
   -3.2018   -8.6260   45.5055 C   0  0  0  0  0  0  0  0  0  0  0  0
   -4.3005   -7.9060   45.0698 C   0  0  0  0  0  0  0  0  0  0  0  0
   -5.6008   -8.4396   45.1850 C   0  0  0  0  0  0  0  0  0  0  0  0
   -5.8055   -9.5904   45.9167 C   0  0  0  0  0  0  0  0  0  0  0  0
   -4.6851  -10.2586   46.4300 C   0  0  0  0  0  0  0  0  0  0  0  0
   -3.3643   -9.7992   46.2418 C   0  0  0  0  0  0  0  0  0  0  0  0
   -6.6095   -7.6201   44.7864 O   0  0  0  0  0  0  0  0  0  0  0  0
   -6.7646   -7.4072   43.4330 C   0  0  0  0  0  0  0  0  0  0  0  0
    2.0484   -6.3212   44.9967 C   0  0  0  0  0  0  0  0  0  0  0  0
  1  2  2  3
  2  3  1  0
  3  4  1  0
  4  5  1  1
  1  6  1  0
  4  7  1  0
  7  8  1  0
  8  9  1  0
 12 15  1  0
 15 16  1  0
 16 17  1  0
 16 18  2  0
  6 19  1  0
 19 20  1  0
 20 21  1  0
 23 27  1  0
 29 33  1  0
 33 34  1  0
 26 35  1  0
 27 28  2  0
 28 29  1  0
 29 30  2  0
 30 31  1  0
 31 32  2  0
 32 27  1  0
  9 10  2  0
 10 11  1  0
 11 12  2  0
 12 13  1  0
 13 14  2  0
 14  9  1  0
 21 22  2  0
 22 23  1  0
 23 24  2  0
 24 25  1  0
 25 26  2  0
 26 21  1  0
M  END
$$$$
O14757_PocketFlow_idx-in-all-generaetd-784
     RDKit          3D

 35 38  0  0  0  0  0  0  0  0999 V2000
   -0.6395   -2.0713   41.4947 C   0  0  0  0  0  0  0  0  0  0  0  0
   -0.2671   -3.2464   41.6546 C   0  0  0  0  0  0  0  0  0  0  0  0
    0.2407   -0.9706   41.5952 C   0  0  0  0  0  0  0  0  0  0  0  0
    1.6195   -1.2958   41.8767 C   0  0  0  0  0  0  0  0  0  0  0  0
    2.6583   -0.3517   42.0703 C   0  0  0  0  0  0  0  0  0  0  0  0
    3.9275   -0.7702   42.5387 C   0  0  0  0  0  0  0  0  0  0  0  0
    3.9444   -2.1081   43.0865 C   0  0  0  0  0  0  0  0  0  0  0  0
    2.8133   -2.9027   43.1780 C   0  0  0  0  0  0  0  0  0  0  0  0
    1.6416   -2.4473   42.6184 C   0  0  0  0  0  0  0  0  0  0  0  0
    0.7194   -3.4978   42.3799 C   0  0  0  0  0  0  0  0  0  0  0  0
    5.3064    0.1727   42.6082 Cl  0  0  0  0  0  0  0  0  0  0  0  0
   -2.0238   -1.6610   40.9649 C   0  0  0  0  0  0  0  0  0  0  0  0
   -2.6654   -0.5219   41.3070 N   0  0  0  0  0  0  0  0  0  0  0  0
   -2.7258   -2.4778   40.2273 O   0  0  0  0  0  0  0  0  0  0  0  0
    2.9322   -4.0469   44.0962 C   0  0  0  0  0  0  0  0  0  0  0  0
    3.1727   -4.1785   45.1082 N   0  0  0  0  0  0  0  0  0  0  0  0
    2.9185   -5.3222   45.8445 C   0  0  0  0  0  0  0  0  0  0  0  0
    3.4851   -6.2272   46.1000 C   0  0  0  0  0  0  0  0  0  0  0  0
    4.9498   -6.1548   46.0293 C   0  0  0  0  0  0  0  0  0  0  0  0
    1.4929   -5.3368   46.0309 F   0  0  0  0  0  0  0  0  0  0  0  0
    5.4742   -5.5339   47.3230 C   0  0  0  0  0  0  0  0  0  0  0  0
    5.8248   -6.3656   48.3245 C   0  0  0  0  0  0  0  0  0  0  0  0
    6.3281   -5.7090   49.5103 C   0  0  0  0  0  0  0  0  0  0  0  0
    6.6759   -4.3364   49.4724 C   0  0  0  0  0  0  0  0  0  0  0  0
    6.4558   -3.6607   48.2473 C   0  0  0  0  0  0  0  0  0  0  0  0
    5.8537   -4.2358   47.1751 C   0  0  0  0  0  0  0  0  0  0  0  0
    7.1939   -3.7133   50.4896 O   0  0  0  0  0  0  0  0  0  0  0  0
   -2.3803    0.4894   41.8206 C   0  0  0  0  0  0  0  0  0  0  0  0
    8.3560   -3.2314   50.4380 C   0  0  0  0  0  0  0  0  0  0  0  0
    8.7574   -2.3404   51.5141 C   0  0  0  0  0  0  0  0  0  0  0  0
   10.0737   -2.1458   51.7533 C   0  0  0  0  0  0  0  0  0  0  0  0
   11.0181   -2.3797   50.7608 C   0  0  0  0  0  0  0  0  0  0  0  0
   10.6413   -3.1235   49.6711 C   0  0  0  0  0  0  0  0  0  0  0  0
    9.3362   -3.5766   49.5527 C   0  0  0  0  0  0  0  0  0  0  0  0
   -4.0097   -0.4603   40.6679 C   0  0  0  0  0  0  0  0  0  0  0  0
  6 11  1  0
  1 12  1  0
 12 13  1  0
 12 14  2  0
  8 15  1  0
 15 16  1  0
 16 17  1  0
 17 18  2  3
 18 19  1  0
 17 20  1  0
 19 21  1  0
 24 27  1  0
 13 28  1  0
 27 29  1  0
 13 35  1  0
  1  2  2  0
  2 10  1  0
 10  9  2  0
  4  3  2  0
  3  1  1  0
 21 22  2  0
 22 23  1  0
 23 24  2  0
 24 25  1  0
 25 26  2  0
 26 21  1  0
 29 30  2  0
 30 31  1  0
 31 32  2  0
 32 33  1  0
 33 34  2  0
 34 29  1  0
  4  5  1  0
  5  6  2  0
  6  7  1  0
  7  8  2  0
  8  9  1  0
  9  4  1  0
M  END
$$$$
O14757_PocketFlow_idx-in-all-generaetd-785
     RDKit          3D

 35 39  0  0  0  0  0  0  0  0999 V2000
   -0.6395   -2.0713   41.4947 C   0  0  0  0  0  0  0  0  0  0  0  0
   -0.2671   -3.2464   41.6546 C   0  0  0  0  0  0  0  0  0  0  0  0
    0.2407   -0.9706   41.5952 C   0  0  0  0  0  0  0  0  0  0  0  0
    1.6195   -1.2958   41.8767 C   0  0  0  0  0  0  0  0  0  0  0  0
    1.9162   -2.6816   42.2016 C   0  0  0  0  0  0  0  0  0  0  0  0
    3.2242   -2.9142   42.7890 C   0  0  2  0  0  0  0  0  0  0  0  0
    0.9779   -3.6270   42.0792 C   0  0  0  0  0  0  0  0  0  0  0  0
    3.3044   -3.7917   43.8998 C   0  0  0  0  0  0  0  0  0  0  0  0
    2.5146   -4.6996   44.3672 C   0  0  0  0  0  0  0  0  0  0  0  0
    2.5319   -5.4069   45.1693 C   0  0  0  0  0  0  0  0  0  0  0  0
    3.7856   -5.4982   45.9727 C   0  0  0  0  0  0  0  0  0  0  0  0
    4.7401   -4.5245   45.7091 C   0  0  0  0  0  0  0  0  0  0  0  0
    4.5801   -3.6508   44.7017 C   0  0  0  0  0  0  0  0  0  0  0  0
   -2.0617   -1.7246   41.0583 C   0  0  0  0  0  0  0  0  0  0  0  0
    1.5641   -6.4593   45.6843 C   0  0  0  0  0  0  0  0  0  0  0  0
    1.2495   -6.6141   46.6819 O   0  0  0  0  0  0  0  0  0  0  0  0
    0.9423   -7.0420   44.5448 N   0  0  0  0  0  0  0  0  0  0  0  0
   -2.6595   -0.5830   41.3023 N   0  0  0  0  0  0  0  0  0  0  0  0
   -2.7588   -2.5812   40.2706 N   0  0  0  0  0  0  0  0  0  0  0  0
   -3.8729   -0.5735   40.6925 C   0  0  0  0  0  0  0  0  0  0  0  0
   -3.9491   -1.8061   40.1157 N   0  0  0  0  0  0  0  0  0  0  0  0
    2.4021   -0.1014   42.0756 C   0  0  0  0  0  0  0  0  0  0  0  0
    3.6994   -0.2209   42.4394 N   0  0  0  0  0  0  0  0  0  0  0  0
    4.1147   -1.5716   42.9322 C   0  0  0  0  0  0  0  0  0  0  0  0
    5.2635   -1.5295   43.4371 F   0  0  0  0  0  0  0  0  0  0  0  0
   -0.2770   -7.8089   44.7430 C   0  0  0  0  0  0  0  0  0  0  0  0
   -1.4507   -7.2271   44.0192 C   0  0  0  0  0  0  0  0  0  0  0  0
   -2.6289   -8.0462   44.1336 C   0  0  0  0  0  0  0  0  0  0  0  0
   -3.6326   -7.8877   43.2001 C   0  0  0  0  0  0  0  0  0  0  0  0
   -4.7166   -8.6176   43.3891 C   0  0  0  0  0  0  0  0  0  0  0  0
   -4.9384   -9.4610   44.4723 C   0  0  0  0  0  0  0  0  0  0  0  0
   -3.9604   -9.5521   45.4311 C   0  0  0  0  0  0  0  0  0  0  0  0
   -2.7954   -8.7857   45.3267 C   0  0  0  0  0  0  0  0  0  0  0  0
   -4.2184  -10.3377   46.6765 C   0  0  0  0  0  0  0  0  0  0  0  0
   -3.6194   -9.5437   48.1941 Br  0  0  0  0  0  0  0  0  0  0  0  0
  5  6  1  0
  6  8  1  1
  1 14  1  0
 10 15  1  0
 15 16  2  0
 15 17  1  0
 14 18  1  0
 14 19  2  0
 18 20  1  0
 19 21  1  0
 20 21  2  0
  4 22  1  0
 22 23  1  0
  6 24  1  0
 23 24  1  0
 24 25  1  0
 17 26  1  0
 26 27  1  0
 32 34  1  0
 34 35  1  0
 27 28  1  0
  1  2  2  0
  2  7  1  0
  7  5  2  0
  5  4  1  0
  4  3  2  0
  3  1  1  0
 28 29  2  0
 29 30  1  0
 30 31  2  0
 31 32  1  0
 32 33  2  0
 33 28  1  0
  8  9  2  0
  9 10  1  0
 10 11  2  0
 11 12  1  0
 12 13  2  0
 13  8  1  0
M  END
$$$$
O14757_PocketFlow_idx-in-all-generaetd-786
     RDKit          3D

 16 16  0  0  0  0  0  0  0  0999 V2000
   -0.6395   -2.0713   41.4947 C   0  0  0  0  0  0  0  0  0  0  0  0
    0.6719   -2.2449   41.7518 C   0  0  1  0  0  0  0  0  0  0  0  0
    1.1287   -3.3339   42.4778 C   0  0  0  0  0  0  0  0  0  0  0  0
    0.1404   -4.2568   42.9148 C   0  0  0  0  0  0  0  0  0  0  0  0
    0.5988   -5.3362   43.7192 C   0  0  0  0  0  0  0  0  0  0  0  0
    1.7859   -5.1846   44.4486 C   0  0  0  0  0  0  0  0  0  0  0  0
    2.6433   -4.0884   44.2089 C   0  0  0  0  0  0  0  0  0  0  0  0
    2.3251   -3.1142   43.3277 C   0  0  0  0  0  0  0  0  0  0  0  0
    1.6146   -1.3117   41.1962 C   0  0  0  0  0  0  0  0  0  0  0  0
    1.9711   -0.1318   42.0899 C   0  0  0  0  0  0  0  0  0  0  0  0
    3.3319    0.1226   42.4248 C   0  0  0  0  0  0  0  0  0  0  0  0
    4.2732   -0.8187   42.8613 C   0  0  0  0  0  0  0  0  0  0  0  0
    5.3788   -0.4384   43.6609 C   0  0  0  0  0  0  0  0  0  0  0  0
    4.0097   -3.8985   44.8112 C   0  0  0  0  0  0  0  0  0  0  0  0
    4.6175   -4.7281   45.3486 N   0  0  0  0  0  0  0  0  0  0  0  0
    4.5954   -2.7260   44.5844 O   0  0  0  0  0  0  0  0  0  0  0  0
  2  1  1  6
  2  9  1  0
  9 10  1  0
 10 11  1  0
 11 12  1  0
 12 13  2  0
  7 14  1  0
 14 15  1  0
 14 16  2  0
  2  3  1  0
  3  4  2  0
  4  5  1  0
  5  6  2  0
  6  7  1  0
  7  8  2  0
  8  3  1  0
M  END
$$$$
O14757_PocketFlow_idx-in-all-generaetd-787
     RDKit          3D

 21 23  0  0  0  0  0  0  0  0999 V2000
   -0.8794   -1.9236   41.9357 O   0  0  0  0  0  0  0  0  0  0  0  0
    0.3070   -1.6014   41.6735 C   0  0  0  0  0  0  0  0  0  0  0  0
    1.2548   -2.6723   41.5755 C   0  0  0  0  0  0  0  0  0  0  0  0
    1.4583   -3.1655   42.9015 C   0  0  0  0  0  0  0  0  0  0  0  0
    2.6592   -3.0225   43.5431 C   0  0  0  0  0  0  0  0  0  0  0  0
    3.2230   -3.6375   44.4935 C   0  0  0  0  0  0  0  0  0  0  0  0
    4.5074   -3.4175   45.0343 C   0  0  0  0  0  0  0  0  0  0  0  0
    5.1106   -4.0722   46.1311 C   0  0  0  0  0  0  0  0  0  0  0  0
    4.3502   -5.1358   46.6853 C   0  0  0  0  0  0  0  0  0  0  0  0
    2.5792   -4.7068   45.3283 C   0  0  0  0  0  0  0  0  0  0  0  0
    3.1388   -5.3529   46.3395 C   0  0  0  0  0  0  0  0  0  0  0  0
    3.5730   -2.0799   42.9183 N   0  0  0  0  0  0  0  0  0  0  0  0
    4.5643   -1.4169   43.4743 C   0  0  0  0  0  0  0  0  0  0  0  0
    5.2340   -2.2158   44.5053 C   0  0  0  0  0  0  0  0  0  0  0  0
    5.2879   -0.3939   42.8551 C   0  0  0  0  0  0  0  0  0  0  0  0
    0.5616   -0.3445   41.4018 O   0  0  0  0  0  0  0  0  0  0  0  0
    6.5167   -1.7758   45.0464 C   0  0  0  0  0  0  0  0  0  0  0  0
    1.0488   -5.1825   44.6610 Cl  0  0  0  0  0  0  0  0  0  0  0  0
    4.7437    0.2659   41.9471 O   0  0  0  0  0  0  0  0  0  0  0  0
    6.4549    0.0067   43.2222 O   0  0  0  0  0  0  0  0  0  0  0  0
    7.0025   -0.5624   44.6206 C   0  0  0  0  0  0  0  0  0  0  0  0
  1  2  1  0
  2  3  1  0
  3  4  1  0
 13 15  1  0
  2 16  2  0
 14 17  1  0
 10 18  1  0
 15 19  2  0
 15 20  1  0
 17 21  2  0
 20 21  1  0
  4  5  1  0
  5  6  2  0
  7 14  2  0
 14 13  1  0
 13 12  2  0
 12  5  1  0
  6  7  1  0
  7  8  1  0
  8  9  2  0
  9 11  1  0
 11 10  2  0
 10  6  1  0
M  END
$$$$
O14757_PocketFlow_idx-in-all-generaetd-788
     RDKit          3D

 15 16  0  0  0  0  0  0  0  0999 V2000
    0.2881   -2.9111   42.4378 C   0  0  0  0  0  0  0  0  0  0  0  0
   -0.0650   -2.5021   41.5798 C   0  0  0  0  0  0  0  0  0  0  0  0
    1.5111   -2.4518   43.1047 C   0  0  0  0  0  0  0  0  0  0  0  0
    2.1892   -1.4341   42.4770 C   0  0  0  0  0  0  0  0  0  0  0  0
    1.5990   -0.8333   41.3694 C   0  0  0  0  0  0  0  0  0  0  0  0
    0.4724   -1.3248   40.8538 C   0  0  0  0  0  0  0  0  0  0  0  0
    3.4529   -0.9652   43.0489 C   0  0  0  0  0  0  0  0  0  0  0  0
    4.2358   -0.0413   42.4732 C   0  0  0  0  0  0  0  0  0  0  0  0
    3.9408   -1.5131   44.3016 C   0  0  0  0  0  0  0  0  0  0  0  0
    5.0040   -1.7395   44.5136 C   0  0  0  0  0  0  0  0  0  0  0  0
    5.4836   -2.4415   45.7290 C   0  0  0  0  0  0  0  0  0  0  0  0
    6.8681   -2.6232   46.0329 C   0  0  0  0  0  0  0  0  0  0  0  0
    7.7568   -1.7803   45.3170 C   0  0  0  0  0  0  0  0  0  0  0  0
    7.2846   -0.8770   44.3568 C   0  0  0  0  0  0  0  0  0  0  0  0
    6.0741   -0.8545   44.0023 C   0  0  0  0  0  0  0  0  0  0  0  0
  4  7  1  0
  7  8  2  0
  7  9  1  0
  9 10  1  0
  1  2  2  0
  2  6  1  0
  6  5  2  0
  5  4  1  0
  4  3  2  0
  3  1  1  0
 10 11  2  0
 11 12  1  0
 12 13  2  0
 13 14  1  0
 14 15  2  0
 15 10  1  0
M  END
$$$$
O14757_PocketFlow_idx-in-all-generaetd-789
     RDKit          3D

 35 37  0  0  0  0  0  0  0  0999 V2000
   -0.6395   -2.0713   41.4947 C   0  0  0  0  0  0  0  0  0  0  0  0
   -0.2671   -3.2464   41.6546 C   0  0  0  0  0  0  0  0  0  0  0  0
    0.2277   -0.9875   41.6495 C   0  0  0  0  0  0  0  0  0  0  0  0
    1.5674   -1.3182   41.7554 C   0  0  0  0  0  0  0  0  0  0  0  0
    1.9373   -2.6644   42.1591 C   0  0  0  0  0  0  0  0  0  0  0  0
    0.8613   -3.3870   42.6381 C   0  0  0  0  0  0  0  0  0  0  0  0
    2.6023   -0.2580   41.8314 C   0  0  0  0  0  0  0  0  0  0  0  0
    3.4085    0.0344   43.0460 C   0  0  0  0  0  0  0  0  0  0  0  0
    4.8257    0.2857   42.8216 C   0  0  0  0  0  0  0  0  0  0  0  0
   -2.0829   -1.7852   41.1147 C   0  0  0  0  0  0  0  0  0  0  0  0
   -2.6766   -0.6304   41.3264 N   0  0  0  0  0  0  0  0  0  0  0  0
   -2.7768   -2.6178   40.2954 N   0  0  0  0  0  0  0  0  0  0  0  0
   -3.7879   -0.2008   40.8262 C   0  0  0  0  0  0  0  0  0  0  0  0
    5.5751   -0.6523   43.7372 C   0  0  0  0  0  0  0  0  0  0  0  0
    4.9654   -1.6364   44.5446 C   0  0  0  0  0  0  0  0  0  0  0  0
    5.6835   -2.0731   45.7037 C   0  0  0  0  0  0  0  0  0  0  0  0
    7.0554   -2.1621   45.5981 C   0  0  1  0  0  0  0  0  0  0  0  0
    7.7770   -1.0264   45.4009 C   0  0  0  0  0  0  0  0  0  0  0  0
   -3.9722   -2.3232   39.8758 C   0  0  0  0  0  0  0  0  0  0  0  0
   -4.3329    0.9710   41.0599 N   0  0  0  0  0  0  0  0  0  0  0  0
   -4.4935   -1.1772   40.0427 C   0  0  0  0  0  0  0  0  0  0  0  0
    7.7043   -3.4219   45.9633 C   0  0  0  0  0  0  0  0  0  0  0  0
    8.2076   -3.3931   47.3371 C   0  0  2  0  0  0  0  0  0  0  0  0
    9.4502   -2.9768   47.5990 C   0  0  0  0  0  0  0  0  0  0  0  0
   10.2577   -2.5710   46.9169 C   0  0  0  0  0  0  0  0  0  0  0  0
   11.6130   -2.0903   47.2808 C   0  0  0  0  0  0  0  0  0  0  0  0
   11.9160   -2.0707   48.6242 C   0  0  0  0  0  0  0  0  0  0  0  0
   10.9288   -2.5187   49.5598 C   0  0  0  0  0  0  0  0  0  0  0  0
    9.7012   -2.9280   49.0939 C   0  0  0  0  0  0  0  0  0  0  0  0
    7.2999   -4.0862   48.2790 C   0  0  0  0  0  0  0  0  0  0  0  0
    7.4193   -5.2473   48.6938 C   0  0  0  0  0  0  0  0  0  0  0  0
    6.2055   -5.9476   49.1898 C   0  0  0  0  0  0  0  0  0  0  0  0
    6.3477   -7.3448   49.4849 C   0  0  0  0  0  0  0  0  0  0  0  0
    7.4859   -7.8649   49.2882 C   0  0  0  0  0  0  0  0  0  0  0  0
    8.4814   -6.2382   48.5566 C   0  0  0  0  0  0  0  0  0  0  0  0
  4  7  1  0
  7  8  1  0
  8  9  1  0
  1 10  1  0
  9 14  1  0
 14 15  1  0
 15 16  1  0
 16 17  1  0
 17 18  1  1
 13 20  1  0
 17 22  1  0
 23 22  1  6
 23 24  1  0
 23 30  1  0
 30 31  1  0
 31 32  2  3
 32 33  1  0
 33 34  2  0
 31 35  1  0
  1  2  2  0
  2  6  1  0
  6  5  2  0
  5  4  1  0
  4  3  2  0
  3  1  1  0
 24 25  2  0
 25 26  1  0
 26 27  2  0
 27 28  1  0
 28 29  2  0
 29 24  1  0
 10 11  2  0
 11 13  1  0
 13 21  2  0
 21 19  1  0
 19 12  2  0
 12 10  1  0
M  END
$$$$
O14757_PocketFlow_idx-in-all-generaetd-790
     RDKit          3D

 19 21  0  0  0  0  0  0  0  0999 V2000
   -0.6395   -2.0713   41.4947 C   0  0  0  0  0  0  0  0  0  0  0  0
    0.1859   -1.1027   41.5970 C   0  0  0  0  0  0  0  0  0  0  0  0
    1.5858   -1.4431   41.9548 C   0  0  0  0  0  0  0  0  0  0  0  0
   -0.3290   -3.4217   41.4987 C   0  0  0  0  0  0  0  0  0  0  0  0
    1.8802   -2.7764   42.3577 C   0  0  0  0  0  0  0  0  0  0  0  0
    0.7703   -3.5423   42.7250 C   0  0  0  0  0  0  0  0  0  0  0  0
    2.6480   -0.4517   42.0258 C   0  0  0  0  0  0  0  0  0  0  0  0
    2.5749    0.9202   41.8320 C   0  0  0  0  0  0  0  0  0  0  0  0
    3.9865   -0.9939   42.2990 C   0  0  0  0  0  0  0  0  0  0  0  0
    5.0185   -0.0871   42.7346 C   0  0  0  0  0  0  0  0  0  0  0  0
   -2.0807   -1.7365   41.1600 C   0  0  0  0  0  0  0  0  0  0  0  0
    6.0888   -0.7583   43.4448 C   0  0  0  0  0  0  0  0  0  0  0  0
    5.7914   -2.0268   44.1719 C   0  0  0  0  0  0  0  0  0  0  0  0
    6.6086   -2.5146   45.2430 C   0  0  0  0  0  0  0  0  0  0  0  0
    6.2157   -3.6218   45.9103 C   0  0  0  0  0  0  0  0  0  0  0  0
    4.9201   -4.1511   45.6472 C   0  0  0  0  0  0  0  0  0  0  0  0
    4.1358   -3.6593   44.6597 C   0  0  0  0  0  0  0  0  0  0  0  0
    4.5218   -2.4785   43.9796 C   0  0  0  0  0  0  0  0  0  0  0  0
    3.7241   -1.9639   43.0772 N   0  0  0  0  0  0  0  0  0  0  0  0
  3  7  1  0
  7  8  2  0
  7  9  1  0
  1 11  1  0
 13 14  1  0
 14 15  2  0
 15 16  1  0
 16 17  2  0
 17 18  1  0
  1  2  2  0
  2  3  1  0
  3  5  2  0
  5  6  1  0
  6  4  2  0
  4  1  1  0
  9 10  2  0
 10 12  1  0
 12 13  2  0
 13 18  1  0
 18 19  2  0
 19  9  1  0
M  END
$$$$
O14757_PocketFlow_idx-in-all-generaetd-791
     RDKit          3D

  6  6  0  0  0  0  0  0  0  0999 V2000
   -0.6395   -2.0713   41.4947 C   0  0  0  0  0  0  0  0  0  0  0  0
   -0.2671   -3.2464   41.6546 C   0  0  0  0  0  0  0  0  0  0  0  0
    0.2407   -0.9706   41.5952 C   0  0  0  0  0  0  0  0  0  0  0  0
    1.6195   -1.2958   41.8767 C   0  0  0  0  0  0  0  0  0  0  0  0
    1.9162   -2.6816   42.2016 C   0  0  0  0  0  0  0  0  0  0  0  0
    0.9422   -3.6324   42.1156 C   0  0  0  0  0  0  0  0  0  0  0  0
  1  2  2  0
  2  6  1  0
  6  5  2  0
  5  4  1  0
  4  3  2  0
  3  1  1  0
M  END
$$$$
O14757_PocketFlow_idx-in-all-generaetd-792
     RDKit          3D

 31 36  0  0  0  0  0  0  0  0999 V2000
    0.2881   -2.9111   42.4378 C   0  0  0  0  0  0  0  0  0  0  0  0
   -0.0650   -2.5021   41.5798 C   0  0  0  0  0  0  0  0  0  0  0  0
    1.5584   -2.5265   43.0885 C   0  0  0  0  0  0  0  0  0  0  0  0
    2.2471   -3.1944   44.1996 C   0  0  0  0  0  0  0  0  0  0  0  0
    3.5140   -2.9109   44.5638 C   0  0  0  0  0  0  0  0  0  0  0  0
    4.2251   -3.6883   45.5589 C   0  0  0  0  0  0  0  0  0  0  0  0
    3.5014   -4.6836   46.2210 C   0  0  0  0  0  0  0  0  0  0  0  0
    0.3814   -1.1794   41.0637 C   0  0  0  0  0  0  0  0  0  0  0  0
    1.5193   -0.6078   41.6883 C   0  0  0  0  0  0  0  0  0  0  0  0
    2.1423   -1.3261   42.6743 C   0  0  0  0  0  0  0  0  0  0  0  0
    1.8113   -4.3675   44.9417 C   0  0  0  0  0  0  0  0  0  0  0  0
    2.3118   -4.9356   45.9724 C   0  0  0  0  0  0  0  0  0  0  0  0
    5.6445   -3.2592   45.9023 C   0  0  0  0  0  0  0  0  0  0  0  0
    6.2757   -2.1839   45.2417 C   0  0  0  0  0  0  0  0  0  0  0  0
    6.3765   -3.9221   46.9654 C   0  0  0  0  0  0  0  0  0  0  0  0
    7.6669   -3.5985   47.2571 C   0  0  0  0  0  0  0  0  0  0  0  0
    5.6746   -1.4079   44.2374 C   0  0  0  0  0  0  0  0  0  0  0  0
    4.2891   -1.8045   43.8930 C   0  0  0  0  0  0  0  0  0  0  0  0
    3.7884   -1.0926   42.8554 C   0  0  0  0  0  0  0  0  0  0  0  0
    8.2840   -4.1250   48.4165 C   0  0  0  0  0  0  0  0  0  0  0  0
    7.5109   -4.9719   49.2148 C   0  0  0  0  0  0  0  0  0  0  0  0
    6.1776   -5.2277   48.9634 C   0  0  0  0  0  0  0  0  0  0  0  0
    5.6259   -4.6578   47.8932 C   0  0  0  0  0  0  0  0  0  0  0  0
    0.3065   -4.7414   44.5623 C   0  0  0  0  0  0  0  0  0  0  0  0
    0.3554   -5.9026   44.5561 O   0  0  0  0  0  0  0  0  0  0  0  0
   -0.6427   -6.7329   44.8237 C   0  0  0  0  0  0  0  0  0  0  0  0
   -1.6095   -7.0842   43.9286 C   0  0  0  0  0  0  0  0  0  0  0  0
   -2.5712   -8.1045   44.2897 C   0  0  0  0  0  0  0  0  0  0  0  0
   -2.5664   -8.5723   45.6149 C   0  0  0  0  0  0  0  0  0  0  0  0
   -1.6337   -8.2445   46.5387 C   0  0  0  0  0  0  0  0  0  0  0  0
   -0.6207   -7.2903   46.1821 C   0  0  0  0  0  0  0  0  0  0  0  0
  3  4  1  0
 13 15  1  0
 10 19  1  0
 18 19  1  0
 11 24  1  0
 24 25  1  0
 25 26  1  0
 15 16  2  0
 16 20  1  0
 20 21  2  0
 21 22  1  0
 22 23  2  0
 23 15  1  0
  6 13  1  0
 13 14  2  0
 14 17  1  0
 17 18  2  0
 18  5  1  0
  1  2  2  0
  2  8  1  0
  8  9  2  0
  9 10  1  0
 10  3  2  0
  3  1  1  0
  4  5  2  0
  5  6  1  0
  6  7  2  0
  7 12  1  0
 12 11  2  0
 11  4  1  0
 26 27  2  0
 27 28  1  0
 28 29  2  0
 29 30  1  0
 30 31  2  0
 31 26  1  0
M  END
$$$$
O14757_PocketFlow_idx-in-all-generaetd-793
     RDKit          3D

 19 21  0  0  0  0  0  0  0  0999 V2000
   -0.6395   -2.0713   41.4947 C   0  0  0  0  0  0  0  0  0  0  0  0
    0.1859   -1.1027   41.5970 C   0  0  0  0  0  0  0  0  0  0  0  0
    1.5836   -1.3270   41.4670 C   0  0  0  0  0  0  0  0  0  0  0  0
   -0.2462   -3.3905   41.2409 C   0  0  0  0  0  0  0  0  0  0  0  0
    2.0075   -2.6977   41.3341 C   0  0  0  0  0  0  0  0  0  0  0  0
    1.0655   -3.6470   41.1373 C   0  0  0  0  0  0  0  0  0  0  0  0
    2.5048   -0.3416   41.6826 N   0  0  0  0  0  0  0  0  0  0  0  0
    3.5415   -0.3915   42.5684 C   0  0  0  0  0  0  0  0  0  0  0  0
    4.5903    0.5763   42.4791 C   0  0  0  0  0  0  0  0  0  0  0  0
    3.6991   -1.4748   43.4460 C   0  0  0  0  0  0  0  0  0  0  0  0
    4.8349   -1.4962   44.3229 C   0  0  0  0  0  0  0  0  0  0  0  0
    5.9021   -0.6678   44.1551 C   0  0  0  0  0  0  0  0  0  0  0  0
    5.6873    0.4184   43.3486 C   0  0  0  0  0  0  0  0  0  0  0  0
    4.8659   -2.7153   45.2562 C   0  0  0  0  0  0  0  0  0  0  0  0
    5.7250   -2.7181   46.3516 C   0  0  0  0  0  0  0  0  0  0  0  0
    4.0376   -3.8108   44.9954 C   0  0  0  0  0  0  0  0  0  0  0  0
    5.6820   -3.8102   47.2292 C   0  0  0  0  0  0  0  0  0  0  0  0
    4.0225   -4.8943   45.8648 C   0  0  0  0  0  0  0  0  0  0  0  0
    4.8427   -4.9108   46.9729 C   0  0  0  0  0  0  0  0  0  0  0  0
  3  7  1  0
  7  8  1  0
 11 14  1  0
  1  2  2  0
  2  3  1  0
  3  5  2  0
  5  6  1  0
  6  4  2  0
  4  1  1  0
 14 15  2  0
 15 17  1  0
 17 19  2  0
 19 18  1  0
 18 16  2  0
 16 14  1  0
  8  9  2  0
  9 13  1  0
 13 12  2  0
 12 11  1  0
 11 10  2  0
 10  8  1  0
M  END
$$$$
O14757_PocketFlow_idx-in-all-generaetd-794
     RDKit          3D

 19 19  0  0  0  0  0  0  0  0999 V2000
   -0.6395   -2.0713   41.4947 C   0  0  2  0  0  0  0  0  0  0  0  0
    0.1859   -1.1027   41.5970 C   0  0  0  0  0  0  0  0  0  0  0  0
    1.5836   -1.3270   41.4670 C   0  0  0  0  0  0  0  0  0  0  0  0
   -2.0616   -1.8375   41.5032 C   0  0  0  0  0  0  0  0  0  0  0  0
    2.5703   -0.3987   41.8488 C   0  0  0  0  0  0  0  0  0  0  0  0
    3.3092   -0.4680   42.8641 C   0  0  0  0  0  0  0  0  0  0  0  0
    4.5554   -1.1037   42.9628 C   0  0  0  0  0  0  0  0  0  0  0  0
    5.3268   -1.1182   44.1750 C   0  0  0  0  0  0  0  0  0  0  0  0
    6.4659   -1.8849   44.3625 C   0  0  0  0  0  0  0  0  0  0  0  0
   -2.4404   -0.5101   41.2199 C   0  0  0  0  0  0  0  0  0  0  0  0
   -3.8331   -0.2374   41.1792 C   0  0  0  0  0  0  0  0  0  0  0  0
   -0.0692   -3.4153   41.5912 C   0  0  0  0  0  0  0  0  0  0  0  0
   -1.1264   -4.7090   41.6488 Cl  0  0  0  0  0  0  0  0  0  0  0  0
    6.7188   -2.5247   45.6213 C   0  0  0  0  0  0  0  0  0  0  0  0
    5.6258   -3.1114   46.3436 C   0  0  0  0  0  0  0  0  0  0  0  0
    5.8111   -4.1906   47.1976 C   0  0  0  0  0  0  0  0  0  0  0  0
    7.0618   -4.3943   47.7644 C   0  0  0  0  0  0  0  0  0  0  0  0
    8.2083   -3.7901   47.1420 C   0  0  0  0  0  0  0  0  0  0  0  0
    8.0443   -2.9692   46.0543 C   0  0  0  0  0  0  0  0  0  0  0  0
  1  2  1  0
  2  3  2  3
  1  4  1  0
  3  5  1  0
  5  6  2  3
  6  7  1  0
  7  8  1  0
  8  9  2  3
  4 10  2  3
 10 11  1  0
  1 12  1  1
 12 13  1  0
  9 14  1  0
 14 15  2  0
 15 16  1  0
 16 17  2  0
 17 18  1  0
 18 19  2  0
 19 14  1  0
M  END
$$$$
O14757_PocketFlow_idx-in-all-generaetd-795
     RDKit          3D

 25 26  0  0  0  0  0  0  0  0999 V2000
   -0.8794   -1.9236   41.9357 O   0  0  0  0  0  0  0  0  0  0  0  0
    0.3070   -1.6014   41.6735 C   0  0  0  0  0  0  0  0  0  0  0  0
    1.3011   -2.6668   41.5732 C   0  0  0  0  0  0  0  0  0  0  0  0
    0.7697   -0.3845   41.2866 O   0  0  0  0  0  0  0  0  0  0  0  0
    0.6275   -3.9068   41.8925 C   0  0  0  0  0  0  0  0  0  0  0  0
    0.3810   -4.3247   43.2633 C   0  0  0  0  0  0  0  0  0  0  0  0
    1.4889   -4.9086   43.9371 C   0  0  0  0  0  0  0  0  0  0  0  0
    1.1933   -5.6838   45.0788 C   0  0  0  0  0  0  0  0  0  0  0  0
    2.2529   -6.2863   45.7582 C   0  0  0  0  0  0  0  0  0  0  0  0
    2.3352   -7.4612   46.1092 C   0  0  0  0  0  0  0  0  0  0  0  0
    3.5432   -5.4148   45.6738 C   0  0  0  0  0  0  0  0  0  0  0  0
    3.6696   -4.3373   44.8090 C   0  0  0  0  0  0  0  0  0  0  0  0
    4.8405   -3.5626   44.7929 C   0  0  0  0  0  0  0  0  0  0  0  0
    2.6225   -4.1264   44.0083 C   0  0  0  0  0  0  0  0  0  0  0  0
    4.8935   -2.2225   44.2586 C   0  0  0  0  0  0  0  0  0  0  0  0
    5.8552   -1.3201   44.6336 C   0  0  0  0  0  0  0  0  0  0  0  0
    5.7900   -0.0823   43.9370 C   0  0  0  0  0  0  0  0  0  0  0  0
    4.7736    0.1374   42.9535 C   0  0  0  0  0  0  0  0  0  0  0  0
    3.8322   -0.7923   42.7370 C   0  0  0  0  0  0  0  0  0  0  0  0
    3.9477   -1.9594   43.3342 C   0  0  0  0  0  0  0  0  0  0  0  0
    3.5049   -8.3221   46.1560 C   0  0  0  0  0  0  0  0  0  0  0  0
    3.4479   -9.6402   46.7365 C   0  0  0  0  0  0  0  0  0  0  0  0
    2.1691  -10.0853   47.1280 C   0  0  0  0  0  0  0  0  0  0  0  0
    1.0058   -8.3157   46.6885 P   0  0  0  0  0  0  0  0  0  0  0  0
    1.5949  -11.1070   47.6326 C   0  0  0  0  0  0  0  0  0  0  0  0
  1  2  2  0
  2  3  1  0
  2  4  1  0
  3  5  1  0
  5  6  1  0
  6  7  1  0
 12 13  1  0
 13 15  1  0
 10 21  1  0
 21 22  2  3
 22 23  1  0
 10 24  1  0
 23 25  1  0
 10  9  1  0
 15 16  2  0
 16 17  1  0
 17 18  2  0
 18 19  1  0
 19 20  2  0
 20 15  1  0
  7  8  2  0
  8  9  1  0
  9 11  2  0
 11 12  1  0
 12 14  2  0
 14  7  1  0
M  END
$$$$
O14757_PocketFlow_idx-in-all-generaetd-796
     RDKit          3D

 10 10  0  0  0  0  0  0  0  0999 V2000
   -0.8794   -1.9236   41.9357 O   0  0  0  0  0  0  0  0  0  0  0  0
    0.3070   -1.6014   41.6735 C   0  0  0  0  0  0  0  0  0  0  0  0
    1.2548   -2.6723   41.5755 C   0  0  0  0  0  0  0  0  0  0  0  0
    2.4147   -2.3743   42.2522 C   0  0  0  0  0  0  0  0  0  0  0  0
    2.9772   -3.1604   43.2831 C   0  0  0  0  0  0  0  0  0  0  0  0
    2.3103   -4.1399   43.9654 C   0  0  0  0  0  0  0  0  0  0  0  0
    2.9681   -4.8955   44.9926 C   0  0  0  0  0  0  0  0  0  0  0  0
    4.2998   -4.5221   45.2843 C   0  0  0  0  0  0  0  0  0  0  0  0
    4.9321   -3.4513   44.6701 C   0  0  0  0  0  0  0  0  0  0  0  0
    4.3109   -2.7588   43.6948 C   0  0  0  0  0  0  0  0  0  0  0  0
  1  2  1  0
  2  3  1  0
  3  4  1  0
  4  5  1  0
  5  6  2  0
  6  7  1  0
  7  8  2  0
  8  9  1  0
  9 10  2  0
 10  5  1  0
M  END
$$$$
O14757_PocketFlow_idx-in-all-generaetd-797
     RDKit          3D

 19 20  0  0  0  0  0  0  0  0999 V2000
   -0.6395   -2.0713   41.4947 C   0  0  0  0  0  0  0  0  0  0  0  0
   -0.2671   -3.2464   41.6546 C   0  0  0  0  0  0  0  0  0  0  0  0
    0.2407   -0.9706   41.5952 C   0  0  0  0  0  0  0  0  0  0  0  0
    1.6195   -1.2958   41.8767 C   0  0  0  0  0  0  0  0  0  0  0  0
    1.9162   -2.6816   42.2016 C   0  0  0  0  0  0  0  0  0  0  0  0
    0.9422   -3.6324   42.1156 C   0  0  0  0  0  0  0  0  0  0  0  0
    2.6088   -0.2775   42.1300 C   0  0  1  0  0  0  0  0  0  0  0  0
    2.5071    1.0156   41.8230 C   0  0  0  0  0  0  0  0  0  0  0  0
    3.8012   -0.6799   42.9263 C   0  0  0  0  0  0  0  0  0  0  0  0
    4.0478   -1.7391   43.7229 C   0  0  0  0  0  0  0  0  0  0  0  0
    5.2772   -1.7742   44.4680 C   0  0  0  0  0  0  0  0  0  0  0  0
    5.4960   -2.7589   45.4745 C   0  0  0  0  0  0  0  0  0  0  0  0
    6.6614   -2.7646   46.2940 C   0  0  0  0  0  0  0  0  0  0  0  0
    7.6682   -1.7889   45.8904 C   0  0  0  0  0  0  0  0  0  0  0  0
    7.4269   -0.8542   44.8539 C   0  0  0  0  0  0  0  0  0  0  0  0
    6.2818   -0.8579   44.1550 C   0  0  0  0  0  0  0  0  0  0  0  0
    6.9339   -3.7087   47.2759 C   0  0  0  0  0  0  0  0  0  0  0  0
    5.8122   -4.3649   47.9360 C   0  0  0  0  0  0  0  0  0  0  0  0
    6.1245   -5.3040   48.9876 C   0  0  0  0  0  0  0  0  0  0  0  0
  4  7  1  0
  7  8  1  1
  7  9  1  0
  9 10  2  3
 10 11  1  0
 13 17  1  0
 17 18  2  3
 18 19  1  0
 11 12  2  0
 12 13  1  0
 13 14  2  0
 14 15  1  0
 15 16  2  0
 16 11  1  0
  1  2  2  0
  2  6  1  0
  6  5  2  0
  5  4  1  0
  4  3  2  0
  3  1  1  0
M  END
$$$$
O14757_PocketFlow_idx-in-all-generaetd-798
     RDKit          3D

 29 31  0  0  0  0  0  0  0  0999 V2000
   -0.6395   -2.0713   41.4947 C   0  0  2  0  0  0  0  0  0  0  0  0
   -0.2671   -3.2464   41.6546 C   0  0  0  0  0  0  0  0  0  0  0  0
    0.2277   -0.9875   41.6495 C   0  0  0  0  0  0  0  0  0  0  0  0
    1.6284   -1.2752   41.8841 C   0  0  1  0  0  0  0  0  0  0  0  0
    2.6642   -0.3505   42.1208 C   0  0  0  0  0  0  0  0  0  0  0  0
    3.9055   -0.7607   42.4273 C   0  0  2  0  0  0  0  0  0  0  0  0
    4.0073   -2.0746   43.0509 C   0  0  0  0  0  0  0  0  0  0  0  0
    3.1890   -2.5055   43.7738 C   0  0  0  0  0  0  0  0  0  0  0  0
    1.7612   -2.5744   43.5114 C   0  0  2  0  0  0  0  0  0  0  0  0
    1.1231   -3.5564   44.2193 C   0  0  0  0  0  0  0  0  0  0  0  0
    1.7138   -2.4195   42.7057 N   0  0  0  0  0  0  0  0  0  0  0  0
    0.8812   -3.4727   42.0711 C   0  0  0  0  0  0  0  0  0  0  0  0
    4.9457    0.0043   42.2600 F   0  0  0  0  0  0  0  0  0  0  0  0
    1.8488   -4.6011   45.0764 C   0  0  0  0  0  0  0  0  0  0  0  0
    1.0910   -5.4623   45.8719 C   0  0  0  0  0  0  0  0  0  0  0  0
   -0.2838   -5.3497   45.6269 C   0  0  0  0  0  0  0  0  0  0  0  0
   -0.9978   -6.3566   46.4175 C   0  0  0  0  0  0  0  0  0  0  0  0
   -1.0057   -7.7379   45.9120 C   0  0  2  0  0  0  0  0  0  0  0  0
   -0.0320   -8.2975   45.8584 C   0  0  0  0  0  0  0  0  0  0  0  0
   -2.2326   -8.2619   45.3501 C   0  0  0  0  0  0  0  0  0  0  0  0
   -2.6385   -8.0603   43.9345 C   0  0  0  0  0  0  0  0  0  0  0  0
   -3.0949   -9.0971   46.0842 C   0  0  0  0  0  0  0  0  0  0  0  0
   -4.2909   -9.5645   45.5660 C   0  0  0  0  0  0  0  0  0  0  0  0
   -3.8186   -8.5550   43.4450 C   0  0  0  0  0  0  0  0  0  0  0  0
   -4.6547   -9.2713   44.2845 C   0  0  0  0  0  0  0  0  0  0  0  0
   -2.0614   -1.6567   41.1901 C   0  0  0  0  0  0  0  0  0  0  0  0
   -2.9022   -2.5589   40.8861 O   0  0  0  0  0  0  0  0  0  0  0  0
   -2.4980   -0.3898   41.3545 N   0  0  0  0  0  0  0  0  0  0  0  0
   -3.7990    0.0886   40.9970 C   0  0  0  0  0  0  0  0  0  0  0  0
  1  3  1  0
  4  5  1  1
  5  6  1  0
  6  7  1  0
  7  8  1  0
  9  8  1  6
  9 10  1  0
  4 11  1  0
  9 11  1  0
  2 12  1  0
 11 12  1  0
  6 13  1  1
 10 14  2  3
 14 15  1  0
 15 16  2  3
 16 17  1  0
 17 18  1  0
 18 19  1  6
 18 20  1  0
  1 26  1  1
 26 27  2  0
 26 28  1  0
 28 29  1  0
  4  3  1  0
  1  2  1  0
 20 21  2  0
 21 24  1  0
 24 25  2  0
 25 23  1  0
 23 22  2  0
 22 20  1  0
M  END
$$$$
O14757_PocketFlow_idx-in-all-generaetd-799
     RDKit          3D

 18 19  0  0  0  0  0  0  0  0999 V2000
   -0.6395   -2.0713   41.4947 C   0  0  0  0  0  0  0  0  0  0  0  0
   -0.2671   -3.2464   41.6546 C   0  0  0  0  0  0  0  0  0  0  0  0
    0.2277   -0.9875   41.6495 C   0  0  0  0  0  0  0  0  0  0  0  0
    1.6284   -1.2752   41.8841 C   0  0  0  0  0  0  0  0  0  0  0  0
    1.8971   -2.6873   42.1685 C   0  0  0  0  0  0  0  0  0  0  0  0
    0.9380   -3.6379   42.0922 C   0  0  0  0  0  0  0  0  0  0  0  0
    2.4263   -0.1961   42.1670 C   0  0  0  0  0  0  0  0  0  0  0  0
    3.8393   -0.4723   42.2655 C   0  0  0  0  0  0  0  0  0  0  0  0
    4.6075   -0.2415   43.4204 C   0  0  0  0  0  0  0  0  0  0  0  0
    5.0714   -1.2511   44.2225 C   0  0  0  0  0  0  0  0  0  0  0  0
    4.4218   -2.4413   44.4150 C   0  0  0  0  0  0  0  0  0  0  0  0
    5.0449   -3.3659   45.3761 C   0  0  0  0  0  0  0  0  0  0  0  0
    6.2828   -3.0656   45.9313 C   0  0  0  0  0  0  0  0  0  0  0  0
    6.9764   -1.8714   45.6307 C   0  0  0  0  0  0  0  0  0  0  0  0
    6.4561   -0.9939   44.8071 C   0  0  0  0  0  0  0  0  0  0  0  0
   -1.9516   -1.6164   41.0682 O   0  0  0  0  0  0  0  0  0  0  0  0
    4.3625   -4.5972   45.7049 C   0  0  0  0  0  0  0  0  0  0  0  0
    3.3552   -4.4782   46.4585 N   0  0  0  0  0  0  0  0  0  0  0  0
  4  7  1  0
  7  8  2  3
  8  9  1  0
  1 16  1  0
 12 17  1  0
 17 18  1  0
  9 10  1  0
  1  2  2  0
  2  6  1  0
  6  5  2  0
  5  4  1  0
  4  3  2  0
  3  1  1  0
 10 11  2  0
 11 12  1  0
 12 13  2  0
 13 14  1  0
 14 15  2  0
 15 10  1  0
M  END
$$$$
O14757_PocketFlow_idx-in-all-generaetd-800
     RDKit          3D

 22 24  0  0  0  0  0  0  0  0999 V2000
   -0.6395   -2.0713   41.4947 C   0  0  0  0  0  0  0  0  0  0  0  0
    0.6719   -2.2449   41.7518 C   0  0  0  0  0  0  0  0  0  0  0  0
    1.5951   -1.1948   41.6106 C   0  0  0  0  0  0  0  0  0  0  0  0
    2.1924   -0.6388   42.6886 C   0  0  2  0  0  0  0  0  0  0  0  0
    3.3977    0.2661   42.4110 C   0  0  0  0  0  0  0  0  0  0  0  0
   -1.2083   -0.9106   41.9878 C   0  0  0  0  0  0  0  0  0  0  0  0
   -2.5727   -0.6851   41.5128 C   0  0  0  0  0  0  0  0  0  0  0  0
   -3.1419    0.4368   41.8578 F   0  0  0  0  0  0  0  0  0  0  0  0
   -3.2095   -1.5942   40.7094 C   0  0  0  0  0  0  0  0  0  0  0  0
   -2.6188   -2.7716   40.4224 N   0  0  0  0  0  0  0  0  0  0  0  0
   -1.3834   -2.9832   40.8295 C   0  0  0  0  0  0  0  0  0  0  0  0
    4.5753    0.0471   43.1656 C   0  0  0  0  0  0  0  0  0  0  0  0
    4.8352   -1.3772   43.4979 C   0  0  1  0  0  0  0  0  0  0  0  0
    5.8349   -1.6809   44.4919 C   0  0  0  0  0  0  0  0  0  0  0  0
    5.7267   -2.8384   45.3441 C   0  0  0  0  0  0  0  0  0  0  0  0
    4.5375   -3.0328   46.0023 C   0  0  0  0  0  0  0  0  0  0  0  0
    3.5011   -3.3926   45.4251 C   0  0  0  0  0  0  0  0  0  0  0  0
    2.8897   -2.7098   44.1947 C   0  0  2  0  0  0  0  0  0  0  0  0
    3.4823   -1.9390   43.9533 C   0  0  1  0  0  0  0  0  0  0  0  0
    2.5364   -0.9577   43.3169 N   0  0  0  0  0  0  0  0  0  0  0  0
    1.5848   -2.3374   43.5042 C   0  0  0  0  0  0  0  0  0  0  0  0
    3.7648   -1.3205   45.1709 O   0  0  0  0  0  0  0  0  0  0  0  0
  1  2  1  0
  2  3  1  0
  4  3  1  6
  4  5  1  0
  7  8  1  0
  5 12  1  0
 13 12  1  1
 13 14  1  0
 14 15  1  0
 15 16  1  0
 16 17  2  0
 17 18  1  0
 13 19  1  0
 18 19  1  0
  4 20  1  0
 18 21  1  1
 20 21  1  0
 19 22  1  1
  1  6  2  0
  6  7  1  0
  7  9  2  0
  9 10  1  0
 10 11  2  0
 11  1  1  0
M  END
$$$$
O14757_PocketFlow_idx-in-all-generaetd-801
     RDKit          3D

 11 11  0  0  0  0  0  0  0  0999 V2000
   -0.6395   -2.0713   41.4947 C   0  0  0  0  0  0  0  0  0  0  0  0
   -0.2671   -3.2464   41.6546 C   0  0  0  0  0  0  0  0  0  0  0  0
    0.2407   -0.9706   41.5952 C   0  0  0  0  0  0  0  0  0  0  0  0
    1.6195   -1.2958   41.8767 C   0  0  0  0  0  0  0  0  0  0  0  0
    1.9162   -2.6816   42.2016 C   0  0  0  0  0  0  0  0  0  0  0  0
    0.9422   -3.6324   42.1156 C   0  0  0  0  0  0  0  0  0  0  0  0
    2.4522   -0.1918   42.1376 C   0  0  0  0  0  0  0  0  0  0  0  0
    3.7906   -0.4191   42.2910 N   0  0  0  0  0  0  0  0  0  0  0  0
    4.6381    0.4581   42.8793 C   0  0  0  0  0  0  0  0  0  0  0  0
   -1.9784   -1.7968   41.0767 N   0  0  0  0  0  0  0  0  0  0  0  0
   -2.7848   -2.6934   40.5693 C   0  0  0  0  0  0  0  0  0  0  0  0
  4  7  1  0
  7  8  1  0
  8  9  1  0
  1 10  1  0
 10 11  2  0
  1  2  2  0
  2  6  1  0
  6  5  2  0
  5  4  1  0
  4  3  2  0
  3  1  1  0
M  END
$$$$
O14757_PocketFlow_idx-in-all-generaetd-802
     RDKit          3D

 17 18  0  0  0  0  0  0  0  0999 V2000
   -0.6395   -2.0713   41.4947 C   0  0  0  0  0  0  0  0  0  0  0  0
    0.1859   -1.1027   41.5970 C   0  0  0  0  0  0  0  0  0  0  0  0
   -0.2410   -3.3795   41.5297 C   0  0  0  0  0  0  0  0  0  0  0  0
    1.6125   -1.3641   41.8466 C   0  0  0  0  0  0  0  0  0  0  0  0
    2.5720   -0.3568   42.0335 C   0  0  0  0  0  0  0  0  0  0  0  0
    3.8647   -0.6704   42.4195 C   0  0  0  0  0  0  0  0  0  0  0  0
    4.1194   -1.9335   43.0710 C   0  0  0  0  0  0  0  0  0  0  0  0
    3.0073   -2.8553   43.1980 C   0  0  0  0  0  0  0  0  0  0  0  0
    1.8134   -2.5001   42.6426 C   0  0  0  0  0  0  0  0  0  0  0  0
    0.8483   -3.5926   42.4125 C   0  0  0  0  0  0  0  0  0  0  0  0
    4.9287    0.1775   42.4441 N   0  0  0  0  0  0  0  0  0  0  0  0
   -2.1023   -1.7480   41.3001 C   0  0  0  0  0  0  0  0  0  0  0  0
   -2.5086   -0.5706   41.4956 O   0  0  0  0  0  0  0  0  0  0  0  0
   -2.9925   -2.6628   41.2452 O   0  0  0  0  0  0  0  0  0  0  0  0
    3.1475   -3.9071   44.2184 C   0  0  0  0  0  0  0  0  0  0  0  0
    4.3961   -4.2667   44.7029 C   0  0  0  0  0  0  0  0  0  0  0  0
    4.3696   -5.3423   45.6707 C   0  0  0  0  0  0  0  0  0  0  0  0
  6 11  1  0
  1 12  1  0
 12 13  2  0
 12 14  1  0
  8 15  1  0
 15 16  2  3
 16 17  1  0
  1  2  2  0
  2  4  1  0
  9 10  1  0
 10  3  2  0
  3  1  1  0
  4  5  2  0
  5  6  1  0
  6  7  2  0
  7  8  1  0
  8  9  2  0
  9  4  1  0
M  END
$$$$
O14757_PocketFlow_idx-in-all-generaetd-803
     RDKit          3D

 33 35  0  0  0  0  0  0  0  0999 V2000
   -0.6395   -2.0713   41.4947 C   0  0  1  0  0  0  0  0  0  0  0  0
    0.6719   -2.2449   41.7518 C   0  0  0  0  0  0  0  0  0  0  0  0
    1.5951   -1.1948   41.6106 C   0  0  0  0  0  0  0  0  0  0  0  0
    2.9587   -1.3961   42.0240 C   0  0  0  0  0  0  0  0  0  0  0  0
    3.8815   -0.3441   42.0598 C   0  0  0  0  0  0  0  0  0  0  0  0
   -1.5492   -3.1120   41.4053 C   0  0  0  0  0  0  0  0  0  0  0  0
   -0.9108   -4.3541   41.3985 N   0  0  0  0  0  0  0  0  0  0  0  0
    5.1035   -0.5716   42.7950 C   0  0  0  0  0  0  0  0  0  0  0  0
    5.2415   -1.7498   43.5926 C   0  0  0  0  0  0  0  0  0  0  0  0
    4.2233   -2.7238   43.5676 C   0  0  0  0  0  0  0  0  0  0  0  0
    3.0503   -2.5041   42.9107 C   0  0  0  0  0  0  0  0  0  0  0  0
    4.3782   -3.9347   44.3971 C   0  0  0  0  0  0  0  0  0  0  0  0
    4.9486   -3.9140   45.6825 C   0  0  0  0  0  0  0  0  0  0  0  0
    5.5826   -2.7530   46.2666 C   0  0  0  0  0  0  0  0  0  0  0  0
    6.4302   -2.9096   47.3551 C   0  0  0  0  0  0  0  0  0  0  0  0
    6.4445   -4.1896   48.0290 C   0  0  0  0  0  0  0  0  0  0  0  0
    5.6540   -5.2658   47.5393 C   0  0  0  0  0  0  0  0  0  0  0  0
    5.0308   -5.1507   46.3943 C   0  0  0  0  0  0  0  0  0  0  0  0
   -2.8023   -2.9807   40.8941 N   0  0  0  0  0  0  0  0  0  0  0  0
    7.1460   -4.2250   49.3574 C   0  0  0  0  0  0  0  0  0  0  0  0
    8.3645   -3.8084   49.4515 N   0  0  0  0  0  0  0  0  0  0  0  0
    8.7952   -3.1028   50.4857 C   0  0  0  0  0  0  0  0  0  0  0  0
    7.9597   -3.0757   51.5668 C   0  0  0  0  0  0  0  0  0  0  0  0
   10.0835   -2.4088   50.4192 C   0  0  0  0  0  0  0  0  0  0  0  0
   -1.3310   -0.7220   41.6909 C   0  0  0  0  0  0  0  0  0  0  0  0
   10.8584   -2.2657   51.1885 C   0  0  0  0  0  0  0  0  0  0  0  0
    8.0730   -2.2503   52.3802 N   0  0  0  0  0  0  0  0  0  0  0  0
   10.4035   -1.5935   52.5670 C   0  0  0  0  0  0  0  0  0  0  0  0
    9.1388   -1.4305   52.7543 C   0  0  0  0  0  0  0  0  0  0  0  0
    9.2764   -4.2799   48.4393 C   0  0  0  0  0  0  0  0  0  0  0  0
    9.6612   -3.4585   47.4498 C   0  0  0  0  0  0  0  0  0  0  0  0
    9.1321   -2.6376   46.7890 C   0  0  0  0  0  0  0  0  0  0  0  0
    9.8163   -1.6864   45.8874 C   0  0  0  0  0  0  0  0  0  0  0  0
  1  2  1  0
  2  3  2  3
  3  4  1  0
  1  6  1  0
  6  7  1  0
 10 12  1  0
  6 19  1  0
 16 20  1  0
 20 21  1  0
 21 22  1  0
 22 23  1  0
 22 24  1  0
  1 25  1  1
 24 26  2  0
 23 27  1  0
 26 28  1  0
 27 29  1  0
 28 29  1  0
 21 30  1  0
 30 31  2  3
 31 32  1  0
 32 33  2  0
 12 13  1  0
 13 14  2  0
 14 15  1  0
 15 16  2  0
 16 17  1  0
 17 18  2  0
 18 13  1  0
  4  5  2  0
  5  8  1  0
  8  9  2  0
  9 10  1  0
 10 11  2  0
 11  4  1  0
M  END
$$$$
O14757_PocketFlow_idx-in-all-generaetd-804
     RDKit          3D

 35 40  0  0  0  0  0  0  0  0999 V2000
   -0.6395   -2.0713   41.4947 C   0  0  0  0  0  0  0  0  0  0  0  0
   -0.2671   -3.2464   41.6546 C   0  0  0  0  0  0  0  0  0  0  0  0
    0.2277   -0.9875   41.6495 C   0  0  0  0  0  0  0  0  0  0  0  0
    1.6284   -1.2752   41.8841 C   0  0  0  0  0  0  0  0  0  0  0  0
    2.6421   -0.3335   42.0825 C   0  0  0  0  0  0  0  0  0  0  0  0
    3.8980   -0.6935   42.5215 C   0  0  0  0  0  0  0  0  0  0  0  0
    4.0537   -1.9942   43.1141 C   0  0  0  0  0  0  0  0  0  0  0  0
    2.9321   -2.8679   43.2074 C   0  0  0  0  0  0  0  0  0  0  0  0
    1.7161   -2.4129   42.6763 C   0  0  0  0  0  0  0  0  0  0  0  0
    0.7745   -3.4965   42.4071 C   0  0  0  0  0  0  0  0  0  0  0  0
    5.0923   -0.0720   42.6012 N   0  0  0  0  0  0  0  0  0  0  0  0
   -2.0396   -1.6840   41.0617 C   0  0  0  0  0  0  0  0  0  0  0  0
   -2.8284   -2.6133   40.5088 N   0  0  0  0  0  0  0  0  0  0  0  0
   -2.4902   -0.3683   41.1450 N   0  0  0  0  0  0  0  0  0  0  0  0
   -3.7753   -0.0491   40.9330 C   0  0  0  0  0  0  0  0  0  0  0  0
   -4.0902   -2.2533   40.2052 C   0  0  0  0  0  0  0  0  0  0  0  0
   -4.5375   -0.9949   40.3716 N   0  0  0  0  0  0  0  0  0  0  0  0
    2.9784   -3.9273   44.2271 C   0  0  0  0  0  0  0  0  0  0  0  0
    1.9531   -4.3173   45.0084 C   0  0  0  0  0  0  0  0  0  0  0  0
    1.9748   -5.3294   45.9045 C   0  0  0  0  0  0  0  0  0  0  0  0
    3.1410   -6.1091   45.8348 C   0  0  0  0  0  0  0  0  0  0  0  0
    4.1046   -4.8586   44.4268 C   0  0  0  0  0  0  0  0  0  0  0  0
    4.2212   -5.8090   45.1300 C   0  0  0  0  0  0  0  0  0  0  0  0
    0.9079   -5.6545   46.5520 F   0  0  0  0  0  0  0  0  0  0  0  0
   -4.0685    1.2182   41.1015 N   0  0  0  0  0  0  0  0  0  0  0  0
    5.6274    0.1620   43.8975 C   0  0  0  0  0  0  0  0  0  0  0  0
    6.0009   -1.1704   44.5358 C   0  0  0  0  0  0  0  0  0  0  0  0
    4.8626   -2.1802   44.3850 C   0  0  0  0  0  0  0  0  0  0  0  0
    7.1177   -1.4444   45.2477 C   0  0  0  0  0  0  0  0  0  0  0  0
    7.3020   -2.6371   46.0100 C   0  0  0  0  0  0  0  0  0  0  0  0
    8.5001   -2.9470   46.6444 C   0  0  0  0  0  0  0  0  0  0  0  0
    8.6835   -4.1380   47.4185 C   0  0  0  0  0  0  0  0  0  0  0  0
    7.4663   -4.7367   47.8792 C   0  0  0  0  0  0  0  0  0  0  0  0
    6.2332   -4.3164   47.4403 C   0  0  0  0  0  0  0  0  0  0  0  0
    6.1388   -3.2363   46.5595 C   0  0  0  0  0  0  0  0  0  0  0  0
  1 12  1  0
  8 18  1  0
 20 24  1  0
 15 25  1  0
 27 29  1  0
 29 30  1  0
 30 31  2  0
 31 32  1  0
 32 33  2  0
 33 34  1  0
 34 35  2  0
 35 30  1  0
  7 28  1  0
 28 27  2  0
 27 26  1  0
 26 11  2  0
 11  6  1  0
 12 13  2  0
 13 16  1  0
 16 17  2  0
 17 15  1  0
 15 14  2  0
 14 12  1  0
 18 19  2  0
 19 20  1  0
 20 21  2  0
 21 23  1  0
 23 22  2  0
 22 18  1  0
  1  2  2  0
  2 10  1  0
 10  9  2  0
  4  3  2  0
  3  1  1  0
  4  5  1  0
  5  6  2  0
  6  7  1  0
  7  8  2  0
  8  9  1  0
  9  4  1  0
M  END
$$$$
O14757_PocketFlow_idx-in-all-generaetd-805
     RDKit          3D

 32 35  0  0  0  0  0  0  0  0999 V2000
   -0.6395   -2.0713   41.4947 C   0  0  0  0  0  0  0  0  0  0  0  0
    0.1859   -1.1027   41.5970 C   0  0  0  0  0  0  0  0  0  0  0  0
   -0.2410   -3.3795   41.5297 C   0  0  0  0  0  0  0  0  0  0  0  0
    1.6125   -1.3642   41.8466 C   0  0  0  0  0  0  0  0  0  0  0  0
    1.9568   -2.7213   42.1561 C   0  0  0  0  0  0  0  0  0  0  0  0
    0.9568   -3.6932   42.0424 C   0  0  0  0  0  0  0  0  0  0  0  0
    2.5419   -0.3107   42.1030 C   0  0  0  0  0  0  0  0  0  0  0  0
    3.8498   -0.5462   42.5716 C   0  0  0  0  0  0  0  0  0  0  0  0
    4.1740   -1.7502   43.2541 C   0  0  0  0  0  0  0  0  0  0  0  0
    3.1315   -2.8668   43.0447 C   0  0  0  0  0  0  0  0  0  0  0  0
    5.3214   -2.0117   43.9959 C   0  0  0  0  0  0  0  0  0  0  0  0
    5.3160   -1.8991   45.3793 C   0  0  0  0  0  0  0  0  0  0  0  0
    4.2364   -1.5969   46.0871 C   0  0  0  0  0  0  0  0  0  0  0  0
    6.6168   -2.3722   45.9877 C   0  0  0  0  0  0  0  0  0  0  0  0
    7.8261   -1.7636   45.7597 C   0  0  0  0  0  0  0  0  0  0  0  0
    8.9967   -2.1814   46.3399 C   0  0  0  0  0  0  0  0  0  0  0  0
    8.9796   -3.2964   47.1636 C   0  0  0  0  0  0  0  0  0  0  0  0
    6.6993   -3.4925   46.8759 C   0  0  0  0  0  0  0  0  0  0  0  0
    7.8234   -3.9263   47.4479 C   0  0  0  0  0  0  0  0  0  0  0  0
   -2.0551   -1.7525   41.0409 C   0  0  2  0  0  0  0  0  0  0  0  0
   -2.8656   -2.6644   40.5459 N   0  0  0  0  0  0  0  0  0  0  0  0
   -2.3551   -0.5158   40.9080 F   0  0  0  0  0  0  0  0  0  0  0  0
    4.6781    0.4264   42.7192 F   0  0  0  0  0  0  0  0  0  0  0  0
   10.2876   -3.7334   47.7316 C   0  0  0  0  0  0  0  0  0  0  0  0
   10.7622   -3.0669   48.5897 N   0  0  0  0  0  0  0  0  0  0  0  0
   10.9788   -2.8085   49.5448 C   0  0  0  0  0  0  0  0  0  0  0  0
   10.5875   -2.0975   50.4444 C   0  0  0  0  0  0  0  0  0  0  0  0
   10.9213   -1.8771   51.8555 C   0  0  0  0  0  0  0  0  0  0  0  0
   10.2810   -0.9415   52.7677 C   0  0  0  0  0  0  0  0  0  0  0  0
    9.1781   -0.3437   52.3932 C   0  0  0  0  0  0  0  0  0  0  0  0
    8.7215   -0.5964   51.0608 C   0  0  0  0  0  0  0  0  0  0  0  0
    9.3110   -1.2942   50.2329 C   0  0  0  0  0  0  0  0  0  0  0  0
  9 11  1  0
 11 12  1  0
 12 13  2  0
 12 14  1  0
  1 20  1  0
 20 21  1  6
 20 22  1  0
  8 23  1  0
 17 24  1  0
 24 25  1  0
 25 26  1  0
 26 27  1  0
  1  2  2  0
  2  4  1  0
  5  6  1  0
  6  3  2  0
  3  1  1  0
  4  5  2  0
  5 10  1  0
 10  9  2  0
  9  8  1  0
  8  7  2  0
  7  4  1  0
 27 28  2  0
 28 29  1  0
 29 30  2  0
 30 31  1  0
 31 32  2  0
 32 27  1  0
 14 15  2  0
 15 16  1  0
 16 17  2  0
 17 19  1  0
 19 18  2  0
 18 14  1  0
M  END
$$$$
O14757_PocketFlow_idx-in-all-generaetd-806
     RDKit          3D

 34 37  0  0  0  0  0  0  0  0999 V2000
   -0.6395   -2.0713   41.4947 C   0  0  0  0  0  0  0  0  0  0  0  0
   -0.2671   -3.2464   41.6546 C   0  0  0  0  0  0  0  0  0  0  0  0
    0.2407   -0.9706   41.5952 C   0  0  0  0  0  0  0  0  0  0  0  0
    1.6195   -1.2958   41.8767 C   0  0  0  0  0  0  0  0  0  0  0  0
    1.9162   -2.6816   42.2016 C   0  0  0  0  0  0  0  0  0  0  0  0
    0.9422   -3.6324   42.1156 C   0  0  0  0  0  0  0  0  0  0  0  0
    2.7441   -0.4311   42.1842 C   0  0  0  0  0  0  0  0  0  0  0  0
    3.9659   -0.7440   42.6462 C   0  0  0  0  0  0  0  0  0  0  0  0
    4.3539   -0.8751   43.8463 C   0  0  0  0  0  0  0  0  0  0  0  0
    5.6831   -1.3349   44.2772 C   0  0  0  0  0  0  0  0  0  0  0  0
    5.8571   -2.1331   45.3158 C   0  0  0  0  0  0  0  0  0  0  0  0
    4.8222   -2.5889   46.1344 C   0  0  0  0  0  0  0  0  0  0  0  0
    3.4845   -2.1764   45.7234 C   0  0  0  0  0  0  0  0  0  0  0  0
    3.3482   -1.4793   44.6033 C   0  0  0  0  0  0  0  0  0  0  0  0
    7.2774   -2.5020   45.7813 C   0  0  0  0  0  0  0  0  0  0  0  0
    8.3578   -1.6285   45.8802 C   0  0  0  0  0  0  0  0  0  0  0  0
    9.5417   -1.9918   46.4377 C   0  0  0  0  0  0  0  0  0  0  0  0
    9.7504   -3.2600   46.9343 C   0  0  0  0  0  0  0  0  0  0  0  0
    8.6515   -4.1822   46.8073 C   0  0  0  0  0  0  0  0  0  0  0  0
    7.4533   -3.8148   46.3142 C   0  0  0  0  0  0  0  0  0  0  0  0
   -1.8782   -1.7631   41.0500 F   0  0  0  0  0  0  0  0  0  0  0  0
    4.9840   -3.5679   47.5406 Cl  0  0  0  0  0  0  0  0  0  0  0  0
    2.3741    0.8497   41.9992 O   0  0  0  0  0  0  0  0  0  0  0  0
   11.0501   -3.6195   47.4472 C   0  0  0  0  0  0  0  0  0  0  0  0
   11.3373   -3.5666   48.6238 C   0  0  0  0  0  0  0  0  0  0  0  0
   12.5799   -3.8611   49.1461 C   0  0  0  0  0  0  0  0  0  0  0  0
   11.7687   -4.6196   46.6871 C   0  0  0  0  0  0  0  0  0  0  0  0
   13.0656   -5.0144   47.0596 C   0  0  0  0  0  0  0  0  0  0  0  0
   13.4411   -4.6856   48.3639 C   0  0  0  0  0  0  0  0  0  0  0  0
   10.6108   -2.5506   49.5429 C   0  0  0  0  0  0  0  0  0  0  0  0
    9.8620   -3.1475   50.5028 C   0  0  0  0  0  0  0  0  0  0  0  0
    8.9788   -2.3086   51.2517 C   0  0  0  0  0  0  0  0  0  0  0  0
    7.8247   -2.8913   51.8628 C   0  0  0  0  0  0  0  0  0  0  0  0
    6.8632   -2.9252   50.9347 C   0  0  0  0  0  0  0  0  0  0  0  0
  4  7  1  0
  7  8  1  0
  8  9  1  0
 11 15  1  0
  1 21  1  0
 12 22  1  0
  7 23  2  0
 18 24  1  0
 25 30  1  0
 30 31  1  0
 31 32  2  3
 32 33  1  0
 33 34  1  0
 15 16  2  0
 16 17  1  0
 17 18  2  0
 18 19  1  0
 19 20  2  0
 20 15  1  0
  1  2  2  0
  2  6  1  0
  6  5  2  0
  5  4  1  0
  4  3  2  0
  3  1  1  0
 24 25  2  0
 25 26  1  0
 26 29  2  0
 29 28  1  0
 28 27  2  0
 27 24  1  0
  9 10  2  0
 10 11  1  0
 11 12  2  0
 12 13  1  0
 13 14  2  0
 14  9  1  0
M  END
$$$$
O14757_PocketFlow_idx-in-all-generaetd-807
     RDKit          3D

 21 22  0  0  0  0  0  0  0  0999 V2000
    0.2881   -2.9111   42.4378 C   0  0  0  0  0  0  0  0  0  0  0  0
    1.3023   -2.0648   42.1981 C   0  0  0  0  0  0  0  0  0  0  0  0
    2.5313   -2.2887   42.6989 C   0  0  0  0  0  0  0  0  0  0  0  0
    2.7176   -3.3676   43.6275 C   0  0  0  0  0  0  0  0  0  0  0  0
    4.0171   -3.5875   44.2356 C   0  0  0  0  0  0  0  0  0  0  0  0
    0.5322   -4.0249   43.2664 C   0  0  0  0  0  0  0  0  0  0  0  0
    1.7078   -4.1293   43.9392 C   0  0  0  0  0  0  0  0  0  0  0  0
    4.3275   -3.0073   45.5057 C   0  0  0  0  0  0  0  0  0  0  0  0
    5.2140   -3.5983   46.4267 C   0  0  0  0  0  0  0  0  0  0  0  0
   -0.8106   -2.6136   41.5916 N   0  0  0  0  0  0  0  0  0  0  0  0
   -1.0344   -1.4110   41.4405 O   0  0  0  0  0  0  0  0  0  0  0  0
    6.4951   -3.3407   46.7675 C   0  0  0  0  0  0  0  0  0  0  0  0
    7.2248   -2.3506   45.9951 C   0  0  0  0  0  0  0  0  0  0  0  0
    8.5552   -2.0746   46.3175 C   0  0  0  0  0  0  0  0  0  0  0  0
    9.2023   -2.7772   47.3247 C   0  0  0  0  0  0  0  0  0  0  0  0
    7.2047   -3.9144   47.8404 C   0  0  0  0  0  0  0  0  0  0  0  0
    8.5093   -3.6572   48.1488 C   0  0  0  0  0  0  0  0  0  0  0  0
    1.8414   -5.2982   44.8672 C   0  0  0  0  0  0  0  0  0  0  0  0
    1.2365   -6.3453   44.6349 O   0  0  0  0  0  0  0  0  0  0  0  0
    4.5615   -4.7617   47.1350 C   0  0  0  0  0  0  0  0  0  0  0  0
    5.3919   -5.4553   48.1021 C   0  0  0  0  0  0  0  0  0  0  0  0
  4  5  1  0
  5  8  1  0
  8  9  2  3
  1 10  1  0
 10 11  2  0
  9 12  1  0
  7 18  1  0
 18 19  2  0
  9 20  1  0
 20 21  1  0
 12 13  2  0
 13 14  1  0
 14 15  2  0
 15 17  1  0
 17 16  2  0
 16 12  1  0
  1  2  2  0
  2  3  1  0
  3  4  2  0
  4  7  1  0
  7  6  2  0
  6  1  1  0
M  END
$$$$
O14757_PocketFlow_idx-in-all-generaetd-808
     RDKit          3D

 11 11  0  0  0  0  0  0  0  0999 V2000
   -0.8794   -1.9236   41.9357 O   0  0  0  0  0  0  0  0  0  0  0  0
    0.3182   -2.2442   41.7073 C   0  0  0  0  0  0  0  0  0  0  0  0
    1.3036   -2.2273   42.6607 C   0  0  0  0  0  0  0  0  0  0  0  0
    1.1462   -3.3063   43.6719 C   0  0  0  0  0  0  0  0  0  0  0  0
    0.0239   -3.9097   44.0309 C   0  0  0  0  0  0  0  0  0  0  0  0
    0.2274   -4.8382   45.2054 C   0  0  0  0  0  0  0  0  0  0  0  0
   -0.7592   -5.5723   45.6651 C   0  0  0  0  0  0  0  0  0  0  0  0
    2.4892   -3.6606   44.3080 C   0  0  0  0  0  0  0  0  0  0  0  0
    2.5629   -4.6049   45.3105 C   0  0  0  0  0  0  0  0  0  0  0  0
    1.4507   -5.1537   45.7138 C   0  0  0  0  0  0  0  0  0  0  0  0
   -1.7443   -5.2662   46.0330 O   0  0  0  0  0  0  0  0  0  0  0  0
  1  2  1  0
  2  3  1  0
  3  4  1  0
  6  7  1  0
  7 11  2  0
  4  5  2  0
  5  6  1  0
  6 10  2  0
 10  9  1  0
  9  8  2  0
  8  4  1  0
M  END
$$$$
O14757_PocketFlow_idx-in-all-generaetd-809
     RDKit          3D

 35 38  0  0  0  0  0  0  0  0999 V2000
   -0.6395   -2.0713   41.4947 C   0  0  0  0  0  0  0  0  0  0  0  0
   -0.2671   -3.2464   41.6546 C   0  0  0  0  0  0  0  0  0  0  0  0
    0.2407   -0.9706   41.5952 C   0  0  0  0  0  0  0  0  0  0  0  0
    1.6195   -1.2958   41.8767 C   0  0  0  0  0  0  0  0  0  0  0  0
    1.9162   -2.6816   42.2016 C   0  0  0  0  0  0  0  0  0  0  0  0
    0.9422   -3.6324   42.1156 C   0  0  0  0  0  0  0  0  0  0  0  0
    2.6088   -0.2775   42.1300 C   0  0  0  0  0  0  0  0  0  0  0  0
    3.9059   -0.5876   42.5995 C   0  0  0  0  0  0  0  0  0  0  0  0
    4.9047    0.3979   42.7294 C   0  0  0  0  0  0  0  0  0  0  0  0
   -2.0638   -1.7598   41.0547 C   0  0  0  0  0  0  0  0  0  0  0  0
   -2.6842   -0.6155   41.3277 N   0  0  0  0  0  0  0  0  0  0  0  0
   -2.7510   -2.6045   40.2586 N   0  0  0  0  0  0  0  0  0  0  0  0
   -3.8821   -0.5882   40.6889 C   0  0  0  0  0  0  0  0  0  0  0  0
   -3.9473   -1.8369   40.1132 N   0  0  0  0  0  0  0  0  0  0  0  0
    4.2120   -1.8792   43.0912 C   0  0  0  0  0  0  0  0  0  0  0  0
    4.9406   -2.0386   44.3161 C   0  0  1  0  0  0  0  0  0  0  0  0
    5.0432   -3.2647   44.9870 C   0  0  0  0  0  0  0  0  0  0  0  0
    4.2083   -4.3197   44.8273 C   0  0  0  0  0  0  0  0  0  0  0  0
    4.1624   -5.3663   45.7751 C   0  0  0  0  0  0  0  0  0  0  0  0
    4.9433   -5.2323   46.9522 C   0  0  0  0  0  0  0  0  0  0  0  0
    5.7405   -4.1182   47.2023 C   0  0  0  0  0  0  0  0  0  0  0  0
    5.7698   -3.1006   46.2896 C   0  0  0  0  0  0  0  0  0  0  0  0
    5.8371   -0.9299   44.6729 C   0  0  0  0  0  0  0  0  0  0  0  0
    5.7262    0.2849   43.8514 N   0  0  0  0  0  0  0  0  0  0  0  0
    6.5468   -4.0876   48.4373 C   0  0  0  0  0  0  0  0  0  0  0  0
    7.3059   -3.2579   48.6418 O   0  0  0  0  0  0  0  0  0  0  0  0
    6.1933   -5.0086   49.4564 N   0  0  0  0  0  0  0  0  0  0  0  0
    3.3399   -6.5205   45.5039 C   0  0  0  0  0  0  0  0  0  0  0  0
    2.0346   -6.4325   45.7754 N   0  0  0  0  0  0  0  0  0  0  0  0
    1.1330   -7.3949   45.6039 C   0  0  0  0  0  0  0  0  0  0  0  0
   -0.3144   -6.9938   45.6260 C   0  0  0  0  0  0  0  0  0  0  0  0
   -1.1051   -7.5431   46.3969 C   0  0  0  0  0  0  0  0  0  0  0  0
   -2.5208   -7.2069   46.2879 C   0  0  0  0  0  0  0  0  0  0  0  0
   -3.0629   -7.0985   45.0720 C   0  0  0  0  0  0  0  0  0  0  0  0
   -2.1161   -7.3029   43.8998 C   0  0  0  0  0  0  0  0  0  0  0  0
  4  7  1  0
  7  8  2  3
  8  9  1  0
  1 10  1  0
 10 11  1  0
 10 12  2  0
 11 13  1  0
 12 14  1  0
 13 14  1  0
  8 15  1  0
 15 16  1  0
 16 17  1  6
 16 23  1  0
  9 24  1  0
 23 24  1  0
 21 25  1  0
 25 26  2  0
 25 27  1  0
 19 28  1  0
 28 29  1  0
 29 30  1  0
 30 31  1  0
 31 32  2  3
 32 33  1  0
 33 34  2  3
 34 35  1  0
 17 18  2  0
 18 19  1  0
 19 20  2  0
 20 21  1  0
 21 22  2  0
 22 17  1  0
  1  2  2  0
  2  6  1  0
  6  5  2  0
  5  4  1  0
  4  3  2  0
  3  1  1  0
M  END
$$$$
O14757_PocketFlow_idx-in-all-generaetd-810
     RDKit          3D

 16 17  0  0  0  0  0  0  0  0999 V2000
   -0.6395   -2.0713   41.4947 C   0  0  0  0  0  0  0  0  0  0  0  0
    0.1859   -1.1027   41.5970 C   0  0  0  0  0  0  0  0  0  0  0  0
   -0.2410   -3.3795   41.5297 C   0  0  0  0  0  0  0  0  0  0  0  0
    1.6125   -1.3642   41.8466 C   0  0  0  0  0  0  0  0  0  0  0  0
    1.9568   -2.7213   42.1561 C   0  0  0  0  0  0  0  0  0  0  0  0
    0.9568   -3.6932   42.0424 C   0  0  0  0  0  0  0  0  0  0  0  0
    2.3828   -0.2295   42.1464 C   0  0  0  0  0  0  0  0  0  0  0  0
    3.8047   -0.4618   42.2957 C   0  0  0  0  0  0  0  0  0  0  0  0
    4.6628    0.5990   42.7732 C   0  0  0  0  0  0  0  0  0  0  0  0
   -2.0886   -1.8599   41.0548 C   0  0  0  0  0  0  0  0  0  0  0  0
   -3.1236   -1.6419   40.9373 N   0  0  0  0  0  0  0  0  0  0  0  0
    5.9324    0.1352   43.2004 C   0  0  0  0  0  0  0  0  0  0  0  0
    5.9906   -1.2287   43.7884 C   0  0  0  0  0  0  0  0  0  0  0  0
    4.9413   -2.1458   43.6159 C   0  0  0  0  0  0  0  0  0  0  0  0
    3.8579   -1.7735   43.1448 C   0  0  0  0  0  0  0  0  0  0  0  0
    3.0824   -2.8400   42.8186 N   0  0  0  0  0  0  0  0  0  0  0  0
  4  7  1  0
  1 10  1  0
 10 11  3  0
 15 16  1  0
  7  8  1  0
  1  2  2  0
  2  4  1  0
  4  5  2  0
  5  6  1  0
  6  3  2  0
  3  1  1  0
  8  9  2  0
  9 12  1  0
 12 13  2  0
 13 14  1  0
 14 15  2  0
 15  8  1  0
M  END
$$$$
O14757_PocketFlow_idx-in-all-generaetd-811
     RDKit          3D

 17 17  0  0  0  0  0  0  0  0999 V2000
   -0.6395   -2.0713   41.4947 C   0  0  0  0  0  0  0  0  0  0  0  0
    0.6719   -2.2449   41.7518 C   0  0  0  0  0  0  0  0  0  0  0  0
    1.5951   -1.1948   41.6106 C   0  0  0  0  0  0  0  0  0  0  0  0
    2.8936   -1.2860   42.2441 C   0  0  0  0  0  0  0  0  0  0  0  0
    3.7940   -0.2219   42.2897 C   0  0  0  0  0  0  0  0  0  0  0  0
   -1.5784   -3.1018   41.3985 C   0  0  0  0  0  0  0  0  0  0  0  0
    4.9967   -0.3723   43.0615 C   0  0  0  0  0  0  0  0  0  0  0  0
    5.2691   -1.5132   43.7867 C   0  0  0  0  0  0  0  0  0  0  0  0
    4.3008   -2.5888   43.7317 C   0  0  0  0  0  0  0  0  0  0  0  0
    3.1152   -2.4074   43.0118 C   0  0  0  0  0  0  0  0  0  0  0  0
   -0.9276   -4.3457   41.4020 N   0  0  0  0  0  0  0  0  0  0  0  0
    4.5269   -3.8283   44.4584 C   0  0  0  0  0  0  0  0  0  0  0  0
    3.9992   -4.1953   45.4415 N   0  0  0  0  0  0  0  0  0  0  0  0
    4.1716   -3.6100   46.6206 C   0  0  0  0  0  0  0  0  0  0  0  0
    2.5542   -4.5531   45.3026 C   0  0  0  0  0  0  0  0  0  0  0  0
    2.3146   -5.8745   45.2238 C   0  0  0  0  0  0  0  0  0  0  0  0
    3.3199   -6.8060   45.0431 C   0  0  0  0  0  0  0  0  0  0  0  0
  1  2  1  0
  2  3  1  0
  3  4  1  0
  1  6  2  3
  6 11  1  0
  9 12  1  0
 12 13  1  0
 13 14  1  0
 13 15  1  0
 15 16  2  3
 16 17  1  0
  4  5  2  0
  5  7  1  0
  7  8  2  0
  8  9  1  0
  9 10  2  0
 10  4  1  0
M  END
$$$$
O14757_PocketFlow_idx-in-all-generaetd-812
     RDKit          3D

 35 38  0  0  0  0  0  0  0  0999 V2000
   -0.6395   -2.0713   41.4947 C   0  0  0  0  0  0  0  0  0  0  0  0
    0.6719   -2.2449   41.7518 C   0  0  0  0  0  0  0  0  0  0  0  0
    1.5951   -1.1948   41.6106 C   0  0  0  0  0  0  0  0  0  0  0  0
    2.9587   -1.3961   42.0240 C   0  0  0  0  0  0  0  0  0  0  0  0
    3.1652   -2.3460   43.1085 C   0  0  0  0  0  0  0  0  0  0  0  0
    4.5010   -2.4269   43.6771 C   0  0  0  0  0  0  0  0  0  0  0  0
    4.6828   -3.3864   44.7249 C   0  0  0  0  0  0  0  0  0  0  0  0
    3.6177   -4.3183   44.9719 C   0  0  0  0  0  0  0  0  0  0  0  0
    2.4149   -4.2162   44.3461 C   0  0  0  0  0  0  0  0  0  0  0  0
    2.1572   -3.2260   43.4208 C   0  0  0  0  0  0  0  0  0  0  0  0
    0.8810   -3.1540   42.8526 C   0  0  0  0  0  0  0  0  0  0  0  0
   -1.3913   -3.0603   41.0968 O   0  0  0  0  0  0  0  0  0  0  0  0
   -1.2293   -0.8604   41.3706 O   0  0  0  0  0  0  0  0  0  0  0  0
    5.9587   -3.4193   45.4239 C   0  0  0  0  0  0  0  0  0  0  0  0
    6.1132   -2.5995   46.6069 C   0  0  0  0  0  0  0  0  0  0  0  0
    7.2640   -2.9222   47.3793 C   0  0  0  0  0  0  0  0  0  0  0  0
    8.4658   -2.5140   46.8297 C   0  0  2  0  0  0  0  0  0  0  0  0
    8.6419   -1.5518   45.9272 C   0  0  0  0  0  0  0  0  0  0  0  0
    9.6447   -3.3766   47.1729 C   0  0  0  0  0  0  0  0  0  0  0  0
   10.8553   -2.9282   46.9442 C   0  0  0  0  0  0  0  0  0  0  0  0
    1.3652   -5.1684   44.7559 C   0  0  0  0  0  0  0  0  0  0  0  0
    1.5080   -6.4705   44.5487 C   0  0  0  0  0  0  0  0  0  0  0  0
    0.4504   -7.3858   44.9260 C   0  0  0  0  0  0  0  0  0  0  0  0
   -0.8100   -6.8462   45.3457 C   0  0  0  0  0  0  0  0  0  0  0  0
   -1.8324   -7.7837   45.6107 C   0  0  0  0  0  0  0  0  0  0  0  0
   -3.0209   -7.7286   44.8697 C   0  0  0  0  0  0  0  0  0  0  0  0
   -4.0668   -8.6501   45.0556 C   0  0  0  0  0  0  0  0  0  0  0  0
   -4.0305   -9.4591   46.2113 C   0  0  0  0  0  0  0  0  0  0  0  0
   -2.9044   -9.4565   47.0077 C   0  0  0  0  0  0  0  0  0  0  0  0
   -1.8350   -8.5897   46.7529 C   0  0  0  0  0  0  0  0  0  0  0  0
    0.1171   -4.6656   45.2723 C   0  0  0  0  0  0  0  0  0  0  0  0
   -0.8516   -5.5199   45.6369 N   0  0  0  0  0  0  0  0  0  0  0  0
   11.9183   -3.7873   46.8641 C   0  0  0  0  0  0  0  0  0  0  0  0
   13.1739   -3.3370   46.5683 C   0  0  0  0  0  0  0  0  0  0  0  0
   13.3428   -1.9548   46.2483 C   0  0  0  0  0  0  0  0  0  0  0  0
  1  2  1  0
  1 12  2  0
  1 13  1  0
  7 14  1  0
 14 15  1  0
 15 16  1  0
 16 17  1  0
 17 18  1  6
 17 19  1  0
 19 20  1  0
  9 21  1  0
 24 25  1  0
 20 33  2  3
 33 34  1  0
 34 35  2  0
 21 22  2  0
 22 23  1  0
 23 24  2  0
 24 32  1  0
 32 31  2  0
 31 21  1  0
 25 26  2  0
 26 27  1  0
 27 28  2  0
 28 29  1  0
 29 30  2  0
 30 25  1  0
  2  3  2  0
  3  4  1  0
  4  5  2  0
 10 11  2  0
 11  2  1  0
  5  6  1  0
  6  7  2  0
  7  8  1  0
  8  9  2  0
  9 10  1  0
 10  5  1  0
M  END
$$$$
O14757_PocketFlow_idx-in-all-generaetd-813
     RDKit          3D

 35 36  0  0  0  0  0  0  0  0999 V2000
   -0.6395   -2.0713   41.4947 C   0  0  0  0  0  0  0  0  0  0  0  0
    0.6719   -2.2449   41.7518 C   0  0  0  0  0  0  0  0  0  0  0  0
    1.5951   -1.1948   41.6106 C   0  0  0  0  0  0  0  0  0  0  0  0
    2.8936   -1.2860   42.2441 C   0  0  0  0  0  0  0  0  0  0  0  0
    3.2021   -2.2591   43.1862 C   0  0  0  0  0  0  0  0  0  0  0  0
    2.3250   -3.3058   43.5164 C   0  0  0  0  0  0  0  0  0  0  0  0
    1.0065   -3.1691   42.8514 C   0  0  0  0  0  0  0  0  0  0  0  0
    2.5704   -4.3117   44.4913 C   0  0  0  0  0  0  0  0  0  0  0  0
    3.8200   -4.5623   44.9264 C   0  0  0  0  0  0  0  0  0  0  0  0
    4.0000   -5.5089   45.9852 C   0  0  0  0  0  0  0  0  0  0  0  0
    1.4961   -4.6432   45.3857 C   0  0  0  0  0  0  0  0  0  0  0  0
    0.7496   -5.5484   45.1787 C   0  0  0  0  0  0  0  0  0  0  0  0
   -0.2219   -6.0833   46.1064 C   0  0  0  0  0  0  0  0  0  0  0  0
   -0.4781   -7.4347   46.1439 C   0  0  0  0  0  0  0  0  0  0  0  0
   -0.4592   -8.1076   47.1955 C   0  0  0  0  0  0  0  0  0  0  0  0
   -0.1289   -9.3008   47.4149 C   0  0  0  0  0  0  0  0  0  0  0  0
   -1.3265   -1.0110   41.4373 O   0  0  0  0  0  0  0  0  0  0  0  0
   -1.3256   -3.1448   41.0648 O   0  0  0  0  0  0  0  0  0  0  0  0
    0.3037   -5.8184   43.9193 O   0  0  0  0  0  0  0  0  0  0  0  0
   -0.1470  -10.0255   48.6070 C   0  0  0  0  0  0  0  0  0  0  0  0
   -0.8361   -9.4990   49.6050 C   0  0  0  0  0  0  0  0  0  0  0  0
   -1.6367   -8.3531   49.3320 C   0  0  0  0  0  0  0  0  0  0  0  0
   -1.4563   -7.6534   48.1615 C   0  0  0  0  0  0  0  0  0  0  0  0
    4.8473   -5.2641   46.9953 O   0  0  0  0  0  0  0  0  0  0  0  0
    5.2723   -4.0218   47.1763 C   0  0  0  0  0  0  0  0  0  0  0  0
    6.6274   -3.9265   47.7524 C   0  0  2  0  0  0  0  0  0  0  0  0
    6.7387   -4.3528   49.3604 Cl  0  0  0  0  0  0  0  0  0  0  0  0
    7.4207   -2.7575   47.4632 C   0  0  0  0  0  0  0  0  0  0  0  0
    8.0692   -2.9785   46.2728 C   0  0  0  0  0  0  0  0  0  0  0  0
    8.5805   -1.8138   45.7603 C   0  0  0  0  0  0  0  0  0  0  0  0
    4.0537   -0.0538   42.0236 Cl  0  0  0  0  0  0  0  0  0  0  0  0
    8.9153   -0.6485   46.4205 C   0  0  0  0  0  0  0  0  0  0  0  0
    9.6909   -0.8300   47.3313 C   0  0  0  0  0  0  0  0  0  0  0  0
   10.4433   -1.6995   47.7859 C   0  0  0  0  0  0  0  0  0  0  0  0
   11.1846   -1.8038   48.5900 C   0  0  0  0  0  0  0  0  0  0  0  0
  1  2  1  0
  6  8  1  0
  8  9  2  3
  9 10  1  0
  8 11  1  0
 11 12  1  0
 12 13  1  0
 13 14  1  0
 14 15  1  0
  1 17  1  0
  1 18  2  0
 12 19  2  0
 10 24  1  0
 24 25  1  0
 25 26  1  0
 26 27  1  1
 26 28  1  0
 28 29  1  0
 29 30  2  3
  4 31  1  0
 30 32  1  0
 32 33  1  0
 33 34  2  3
 34 35  1  0
  2  3  2  0
  3  4  1  0
  4  5  2  0
  5  6  1  0
  6  7  2  0
  7  2  1  0
 15 16  2  0
 16 20  1  0
 20 21  2  0
 21 22  1  0
 22 23  2  0
 23 15  1  0
M  END
$$$$
O14757_PocketFlow_idx-in-all-generaetd-814
     RDKit          3D

 18 19  0  0  0  0  0  0  0  0999 V2000
    0.2881   -2.9111   42.4378 C   0  0  0  0  0  0  0  0  0  0  0  0
   -0.0650   -2.5021   41.5798 C   0  0  0  0  0  0  0  0  0  0  0  0
    1.6108   -3.5167   42.6657 C   0  0  0  0  0  0  0  0  0  0  0  0
    2.5982   -2.5638   42.1593 C   0  0  0  0  0  0  0  0  0  0  0  0
    2.2020   -1.4972   41.3694 C   0  0  0  0  0  0  0  0  0  0  0  0
    0.8372   -1.4538   41.0422 C   0  0  0  0  0  0  0  0  0  0  0  0
    2.0046   -4.3809   43.7785 C   0  0  0  0  0  0  0  0  0  0  0  0
    3.1313   -4.5021   44.3965 C   0  0  0  0  0  0  0  0  0  0  0  0
    4.1313   -3.4145   44.3162 C   0  0  0  0  0  0  0  0  0  0  0  0
    5.2659   -3.4673   45.2180 C   0  0  0  0  0  0  0  0  0  0  0  0
    6.2901   -2.4813   45.1775 C   0  0  0  0  0  0  0  0  0  0  0  0
    6.1123   -1.3730   44.2929 C   0  0  0  0  0  0  0  0  0  0  0  0
    4.9876   -1.2791   43.5571 C   0  0  1  0  0  0  0  0  0  0  0  0
    3.9990   -2.2525   43.6030 C   0  0  2  0  0  0  0  0  0  0  0  0
    3.4937   -1.4559   44.1469 O   0  0  0  0  0  0  0  0  0  0  0  0
    3.6791   -2.4906   42.8192 F   0  0  0  0  0  0  0  0  0  0  0  0
    2.9212   -3.2702   41.0628 F   0  0  0  0  0  0  0  0  0  0  0  0
    5.0356   -0.1076   43.1622 C   0  0  0  0  0  0  0  0  0  0  0  0
  3  7  1  0
  7  8  2  3
  8  9  1  0
  9 10  2  0
 10 11  1  0
 11 12  2  0
 12 13  1  0
  9 14  1  0
 13 14  1  0
 14 15  1  1
 14 16  1  0
  4 17  1  0
 13 18  1  1
  1  2  2  0
  2  6  1  0
  6  5  2  0
  5  4  1  0
  4  3  2  0
  3  1  1  0
M  END
$$$$
O14757_PocketFlow_idx-in-all-generaetd-815
     RDKit          3D

 35 38  0  0  0  0  0  0  0  0999 V2000
   -0.6395   -2.0713   41.4947 C   0  0  0  0  0  0  0  0  0  0  0  0
   -0.2671   -3.2464   41.6546 C   0  0  0  0  0  0  0  0  0  0  0  0
    0.2277   -0.9875   41.6495 C   0  0  0  0  0  0  0  0  0  0  0  0
    1.6284   -1.2752   41.8841 C   0  0  0  0  0  0  0  0  0  0  0  0
    1.8653   -2.2309   42.5437 C   0  0  0  0  0  0  0  0  0  0  0  0
    0.9379   -3.5018   42.3865 C   0  0  0  0  0  0  0  0  0  0  0  0
    3.0865   -2.6273   43.2402 C   0  0  0  0  0  0  0  0  0  0  0  0
    4.0500   -1.6457   43.3949 C   0  0  0  0  0  0  0  0  0  0  0  0
    5.1909   -1.7255   44.2356 C   0  0  0  0  0  0  0  0  0  0  0  0
    5.3617   -2.8695   44.9956 C   0  0  0  0  0  0  0  0  0  0  0  0
    3.2979   -3.7436   44.1146 C   0  0  0  0  0  0  0  0  0  0  0  0
    4.4099   -3.8616   44.9689 C   0  0  0  0  0  0  0  0  0  0  0  0
    6.6136   -2.9733   45.8285 C   0  0  0  0  0  0  0  0  0  0  0  0
    7.6389   -2.0306   45.7343 C   0  0  0  0  0  0  0  0  0  0  0  0
    8.7656   -2.2152   46.4917 C   0  0  0  0  0  0  0  0  0  0  0  0
    8.9296   -3.2955   47.3366 C   0  0  0  0  0  0  0  0  0  0  0  0
    6.8733   -4.0380   46.7386 C   0  0  0  0  0  0  0  0  0  0  0  0
    7.9500   -4.1904   47.4481 C   0  0  0  0  0  0  0  0  0  0  0  0
   -1.8558   -1.8257   41.0299 F   0  0  0  0  0  0  0  0  0  0  0  0
    8.0808   -5.3040   48.4202 C   0  0  0  0  0  0  0  0  0  0  0  0
    7.0746   -5.3706   49.3639 C   0  0  0  0  0  0  0  0  0  0  0  0
    6.5878   -4.3001   49.7853 O   0  0  0  0  0  0  0  0  0  0  0  0
    6.1514   -6.4307   49.2688 N   0  0  0  0  0  0  0  0  0  0  0  0
    5.0124   -6.5115   50.2307 C   0  0  0  0  0  0  0  0  0  0  0  0
    6.3733   -7.6202   48.5255 C   0  0  0  0  0  0  0  0  0  0  0  0
    5.1745   -8.3822   48.1972 C   0  0  0  0  0  0  0  0  0  0  0  0
    5.3087   -9.8333   47.9587 C   0  0  0  0  0  0  0  0  0  0  0  0
    6.4351  -10.2763   47.8365 C   0  0  0  0  0  0  0  0  0  0  0  0
    7.6702   -9.5548   47.9498 C   0  0  0  0  0  0  0  0  0  0  0  0
    7.5670   -8.3241   48.5158 C   0  0  0  0  0  0  0  0  0  0  0  0
    4.0576  -10.4874   47.5861 C   0  0  0  0  0  0  0  0  0  0  0  0
    4.1402  -11.6705   47.6420 F   0  0  0  0  0  0  0  0  0  0  0  0
    3.1218  -10.1194   48.5359 F   0  0  0  0  0  0  0  0  0  0  0  0
    3.5492  -10.0685   46.3757 F   0  0  0  0  0  0  0  0  0  0  0  0
    2.3569   -4.6751   44.1506 O   0  0  0  0  0  0  0  0  0  0  0  0
  5  7  1  0
 10 13  1  0
  1 19  1  0
 18 20  1  0
 20 21  1  0
 21 22  2  0
 21 23  1  0
 23 24  1  0
 23 25  1  0
 27 31  1  0
 31 32  1  0
 31 33  1  0
 31 34  1  0
 11 35  1  0
  7  8  2  0
  8  9  1  0
  9 10  2  0
 10 12  1  0
 12 11  2  0
 11  7  1  0
  1  2  2  0
  2  6  1  0
  6  5  2  0
  5  4  1  0
  4  3  2  0
  3  1  1  0
 13 14  2  0
 14 15  1  0
 15 16  2  0
 16 18  1  0
 18 17  2  0
 17 13  1  0
 25 26  2  0
 26 27  1  0
 27 28  2  0
 28 29  1  0
 29 30  2  0
 30 25  1  0
M  END
$$$$
O14757_PocketFlow_idx-in-all-generaetd-816
     RDKit          3D

 14 15  0  0  0  0  0  0  0  0999 V2000
   -0.6395   -2.0713   41.4947 C   0  0  0  0  0  0  0  0  0  0  0  0
   -0.2671   -3.2464   41.6546 C   0  0  0  0  0  0  0  0  0  0  0  0
    0.2407   -0.9706   41.5952 C   0  0  0  0  0  0  0  0  0  0  0  0
    1.6195   -1.2958   41.8767 C   0  0  0  0  0  0  0  0  0  0  0  0
    1.9162   -2.6816   42.2016 C   0  0  0  0  0  0  0  0  0  0  0  0
    0.9422   -3.6324   42.1156 C   0  0  0  0  0  0  0  0  0  0  0  0
    2.6088   -0.2775   42.1300 C   0  0  0  0  0  0  0  0  0  0  0  0
    2.5071    1.0156   41.8230 C   0  0  0  0  0  0  0  0  0  0  0  0
    3.9432   -0.7768   42.5732 C   0  0  0  0  0  0  0  0  0  0  0  0
    4.9635    0.2147   42.8979 C   0  0  0  0  0  0  0  0  0  0  0  0
    6.0726   -0.4526   43.5658 C   0  0  0  0  0  0  0  0  0  0  0  0
    5.8906   -1.6238   44.3598 C   0  0  0  0  0  0  0  0  0  0  0  0
    4.7907   -2.4381   44.0938 C   0  0  0  0  0  0  0  0  0  0  0  0
    3.8363   -1.9731   43.3583 C   0  0  0  0  0  0  0  0  0  0  0  0
  4  7  1  0
  7  8  2  0
  7  9  1  0
  1  2  2  0
  2  6  1  0
  6  5  2  0
  5  4  1  0
  4  3  2  0
  3  1  1  0
  9 10  2  0
 10 11  1  0
 11 12  2  0
 12 13  1  0
 13 14  2  0
 14  9  1  0
M  END
$$$$
O14757_PocketFlow_idx-in-all-generaetd-817
     RDKit          3D

 25 28  0  0  0  0  0  0  0  0999 V2000
   -0.6395   -2.0713   41.4947 C   0  0  0  0  0  0  0  0  0  0  0  0
    0.1859   -1.1027   41.5970 C   0  0  0  0  0  0  0  0  0  0  0  0
    1.5858   -1.4430   41.9548 C   0  0  2  0  0  0  0  0  0  0  0  0
    2.6622   -0.5501   42.0082 C   0  0  0  0  0  0  0  0  0  0  0  0
    3.8608   -0.8421   42.6622 C   0  0  0  0  0  0  0  0  0  0  0  0
    3.9909   -2.0719   43.3605 C   0  0  0  0  0  0  0  0  0  0  0  0
    5.1640   -2.3526   44.1505 C   0  0  0  0  0  0  0  0  0  0  0  0
   -0.1950   -3.3431   41.5415 N   0  0  0  0  0  0  0  0  0  0  0  0
    6.0669   -1.3698   44.4221 C   0  0  0  0  0  0  0  0  0  0  0  0
    5.9047   -0.1454   43.7178 C   0  0  0  0  0  0  0  0  0  0  0  0
    4.8234    0.1481   42.9508 C   0  0  0  0  0  0  0  0  0  0  0  0
    1.6206   -2.8869   41.9114 C   0  0  0  0  0  0  0  0  0  0  0  0
   -1.9821   -1.8880   41.2151 N   0  0  0  0  0  0  0  0  0  0  0  0
    7.2525   -1.5980   45.2371 C   0  0  0  0  0  0  0  0  0  0  0  0
    7.3437   -2.7971   46.0394 C   0  0  0  0  0  0  0  0  0  0  0  0
    8.5106   -3.0633   46.7433 C   0  0  0  0  0  0  0  0  0  0  0  0
    8.6615   -4.2941   47.4677 C   0  0  0  0  0  0  0  0  0  0  0  0
    7.9396   -4.5587   48.3228 C   0  0  0  0  0  0  0  0  0  0  0  0
    7.9214   -5.7105   49.1030 C   0  0  0  0  0  0  0  0  0  0  0  0
    6.8545   -6.0299   50.0434 C   0  0  0  0  0  0  0  0  0  0  0  0
    5.6600   -6.1153   49.4107 C   0  0  0  0  0  0  0  0  0  0  0  0
    5.4126   -5.0469   48.4205 C   0  0  0  0  0  0  0  0  0  0  0  0
    6.5312   -4.5417   47.6763 C   0  0  0  0  0  0  0  0  0  0  0  0
    6.2186   -3.4752   46.7332 C   0  0  0  0  0  0  0  0  0  0  0  0
    9.1495   -5.2472   50.1179 C   0  0  0  0  0  0  0  0  0  0  0  0
  1  2  1  0
  2  3  1  0
  3  4  1  6
  4  5  1  0
  1  8  1  0
  3 12  1  0
  8 12  2  0
  1 13  2  3
  9 14  1  0
 19 25  1  0
 14 15  1  0
 18 19  1  0
 19 20  2  0
 20 21  1  0
 21 22  2  0
 22 23  1  0
 15 16  2  0
 16 17  1  0
 17 18  2  0
 18 23  1  0
 23 24  2  0
 24 15  1  0
  5  6  2  0
  6  7  1  0
  7  9  2  0
  9 10  1  0
 10 11  2  0
 11  5  1  0
M  END
$$$$
O14757_PocketFlow_idx-in-all-generaetd-818
     RDKit          3D

 16 18  0  0  0  0  0  0  0  0999 V2000
   -0.6395   -2.0713   41.4947 C   0  0  0  0  0  0  0  0  0  0  0  0
   -0.2671   -3.2464   41.6546 C   0  0  0  0  0  0  0  0  0  0  0  0
    0.2407   -0.9706   41.5952 C   0  0  0  0  0  0  0  0  0  0  0  0
    1.6195   -1.2958   41.8767 C   0  0  0  0  0  0  0  0  0  0  0  0
    1.9162   -2.6816   42.2016 C   0  0  0  0  0  0  0  0  0  0  0  0
    0.9422   -3.6324   42.1156 C   0  0  0  0  0  0  0  0  0  0  0  0
    2.6088   -0.2775   42.1300 C   0  0  0  0  0  0  0  0  0  0  0  0
    3.9059   -0.5876   42.5995 C   0  0  0  0  0  0  0  0  0  0  0  0
    4.1036   -1.8148   43.2659 C   0  0  0  0  0  0  0  0  0  0  0  0
    3.0813   -2.8841   43.0555 C   0  0  0  0  0  0  0  0  0  0  0  0
    5.2952   -2.1464   43.9843 C   0  0  0  0  0  0  0  0  0  0  0  0
    6.1893   -1.1202   44.3386 C   0  0  0  0  0  0  0  0  0  0  0  0
    7.3008   -1.3664   45.2223 C   0  0  0  0  0  0  0  0  0  0  0  0
    7.2228   -2.4416   46.0655 C   0  0  0  0  0  0  0  0  0  0  0  0
    6.1485   -3.4264   45.8248 C   0  0  0  0  0  0  0  0  0  0  0  0
    5.1587   -3.1999   44.9334 C   0  0  0  0  0  0  0  0  0  0  0  0
  9 11  1  0
 11 12  2  0
 12 13  1  0
 13 14  2  0
 14 15  1  0
 15 16  2  0
 16 11  1  0
  5 10  1  0
 10  9  2  0
  9  8  1  0
  8  7  2  0
  7  4  1  0
  1  2  2  0
  2  6  1  0
  6  5  2  0
  5  4  1  0
  4  3  2  0
  3  1  1  0
M  END
$$$$
O14757_PocketFlow_idx-in-all-generaetd-819
     RDKit          3D

 21 23  0  0  0  0  0  0  0  0999 V2000
   -0.6395   -2.0713   41.4947 C   0  0  0  0  0  0  0  0  0  0  0  0
    0.6719   -2.2449   41.7518 C   0  0  0  0  0  0  0  0  0  0  0  0
    1.5951   -1.1948   41.6106 C   0  0  0  0  0  0  0  0  0  0  0  0
    2.9587   -1.3961   42.0240 C   0  0  0  0  0  0  0  0  0  0  0  0
    3.1652   -2.3460   43.1085 C   0  0  0  0  0  0  0  0  0  0  0  0
    2.2115   -3.3199   43.4243 C   0  0  0  0  0  0  0  0  0  0  0  0
    0.9094   -3.1578   42.8194 C   0  0  0  0  0  0  0  0  0  0  0  0
    4.4667   -2.5092   43.7281 C   0  0  0  0  0  0  0  0  0  0  0  0
    5.3774   -1.4371   43.8700 C   0  0  0  0  0  0  0  0  0  0  0  0
    5.1106   -0.2330   43.4894 N   0  0  0  0  0  0  0  0  0  0  0  0
    6.5597   -1.6588   44.7237 C   0  0  0  0  0  0  0  0  0  0  0  0
   -1.6957   -2.0501   41.1472 N   0  0  0  0  0  0  0  0  0  0  0  0
    6.6358   -2.7401   45.6296 C   0  0  0  0  0  0  0  0  0  0  0  0
    7.7381   -2.9628   46.4584 C   0  0  0  0  0  0  0  0  0  0  0  0
    7.7710   -4.1123   47.2594 C   0  0  0  0  0  0  0  0  0  0  0  0
    8.9049   -4.4386   48.0354 C   0  0  0  0  0  0  0  0  0  0  0  0
    8.9535   -2.2411   46.4129 C   0  0  0  0  0  0  0  0  0  0  0  0
   10.0691   -2.5340   47.1820 C   0  0  0  0  0  0  0  0  0  0  0  0
   10.0360   -3.6105   48.0104 C   0  0  0  0  0  0  0  0  0  0  0  0
    5.5225   -3.6038   45.7156 C   0  0  0  0  0  0  0  0  0  0  0  0
    4.4403   -3.4456   44.7712 C   0  0  0  0  0  0  0  0  0  0  0  0
  1  2  1  0
  5  8  1  0
  9 10  1  0
  1 12  3  0
 13 14  1  0
  8  9  2  0
  9 11  1  0
 11 13  2  0
 13 20  1  0
 20 21  2  0
 21  8  1  0
  2  3  2  0
  3  4  1  0
  4  5  2  0
  5  6  1  0
  6  7  2  0
  7  2  1  0
 14 15  2  0
 15 16  1  0
 16 19  2  0
 19 18  1  0
 18 17  2  0
 17 14  1  0
M  END
$$$$
O14757_PocketFlow_idx-in-all-generaetd-820
     RDKit          3D

 35 37  0  0  0  0  0  0  0  0999 V2000
   -0.6395   -2.0713   41.4947 C   0  0  0  0  0  0  0  0  0  0  0  0
    0.6719   -2.2449   41.7518 C   0  0  0  0  0  0  0  0  0  0  0  0
    1.5951   -1.1948   41.6106 C   0  0  0  0  0  0  0  0  0  0  0  0
    2.1924   -0.6388   42.6886 C   0  0  0  0  0  0  0  0  0  0  0  0
    3.7016   -0.6558   42.7316 C   0  0  0  0  0  0  0  0  0  0  0  0
    4.3544   -1.6425   43.4824 C   0  0  0  0  0  0  0  0  0  0  0  0
    5.4648   -1.2387   44.2870 C   0  0  0  0  0  0  0  0  0  0  0  0
    6.0060   -2.1615   45.2073 C   0  0  0  0  0  0  0  0  0  0  0  0
    5.5024   -3.4477   45.4282 C   0  0  0  0  0  0  0  0  0  0  0  0
    4.3340   -3.7511   44.6438 C   0  0  0  0  0  0  0  0  0  0  0  0
    3.7327   -2.8406   43.7775 C   0  0  0  0  0  0  0  0  0  0  0  0
    3.7445   -5.1024   44.8718 C   0  0  0  0  0  0  0  0  0  0  0  0
    2.5735   -5.3150   45.4549 N   0  0  0  0  0  0  0  0  0  0  0  0
    1.7729   -6.3943   45.1513 C   0  0  0  0  0  0  0  0  0  0  0  0
    0.4173   -6.3435   45.6610 C   0  0  0  0  0  0  0  0  0  0  0  0
   -0.4982   -7.3817   45.4963 C   0  0  0  0  0  0  0  0  0  0  0  0
   -1.8825   -7.1160   45.1239 C   0  0  0  0  0  0  0  0  0  0  0  0
   -2.6741   -8.3276   45.1115 C   0  0  1  0  0  0  0  0  0  0  0  0
   -2.8563   -9.0888   46.2041 C   0  0  0  0  0  0  0  0  0  0  0  0
   -1.6063   -9.4727   46.8408 C   0  0  0  0  0  0  0  0  0  0  0  0
   -0.5430   -8.3543   46.8057 C   0  0  0  0  0  0  0  0  0  0  0  0
   -1.1854   -0.8411   41.4500 C   0  0  0  0  0  0  0  0  0  0  0  0
    4.4305    0.2143   42.0975 O   0  0  0  0  0  0  0  0  0  0  0  0
   -3.4918   -8.5591   43.8816 C   0  0  0  0  0  0  0  0  0  0  0  0
   -3.5324   -7.5324   42.8408 C   0  0  0  0  0  0  0  0  0  0  0  0
   -4.9622   -8.8064   44.2791 C   0  0  0  0  0  0  0  0  0  0  0  0
   -2.6308   -0.7225   41.3678 C   0  0  0  0  0  0  0  0  0  0  0  0
   -3.1619   -1.2679   40.2521 C   0  0  0  0  0  0  0  0  0  0  0  0
   -2.8466   -2.7252   40.1680 C   0  0  0  0  0  0  0  0  0  0  0  0
   -1.4722   -2.9695   40.5816 C   0  0  0  0  0  0  0  0  0  0  0  0
    2.2139   -7.3593   44.6017 O   0  0  0  0  0  0  0  0  0  0  0  0
    7.3358   -1.8030   45.8554 C   0  0  0  0  0  0  0  0  0  0  0  0
    7.8605   -2.6183   46.7509 N   0  0  0  0  0  0  0  0  0  0  0  0
    7.3385   -3.6372   47.3501 C   0  0  0  0  0  0  0  0  0  0  0  0
    6.0817   -4.0882   47.3739 C   0  0  0  0  0  0  0  0  0  0  0  0
  1  2  1  0
  2  3  1  0
  3  4  1  0
  4  5  1  0
  5  6  1  0
 10 12  1  0
 12 13  1  0
 13 14  1  0
 14 15  1  0
 15 16  2  3
 16 17  1  0
 17 18  1  0
 18 19  1  0
 19 20  1  0
 16 21  1  0
 20 21  1  0
  5 23  2  0
 18 24  1  1
 24 25  1  0
 24 26  1  0
 14 31  2  0
  8 32  1  0
 32 33  1  0
 33 34  1  0
 34 35  2  0
  1 22  2  0
 22 27  1  0
 27 28  2  0
 28 29  1  0
 29 30  2  0
 30  1  1  0
  6  7  2  0
  7  8  1  0
  8  9  2  0
  9 10  1  0
 10 11  2  0
 11  6  1  0
M  END
$$$$
O14757_PocketFlow_idx-in-all-generaetd-821
     RDKit          3D

 24 25  0  0  0  0  0  0  0  0999 V2000
    0.2881   -2.9111   42.4378 C   0  0  2  0  0  0  0  0  0  0  0  0
    1.1784   -3.4293   42.9321 C   0  0  0  0  0  0  0  0  0  0  0  0
    1.1643   -4.3749   43.9960 C   0  0  0  0  0  0  0  0  0  0  0  0
    1.8790   -4.1402   45.1620 C   0  0  0  0  0  0  0  0  0  0  0  0
   -0.9438   -3.4865   42.1413 C   0  0  0  0  0  0  0  0  0  0  0  0
   -1.0011   -4.6636   42.6391 F   0  0  0  0  0  0  0  0  0  0  0  0
    1.7273   -5.0258   46.3194 C   0  0  0  0  0  0  0  0  0  0  0  0
   -1.2973   -3.6493   40.8114 F   0  0  0  0  0  0  0  0  0  0  0  0
    0.5778   -5.9020   46.2513 C   0  0  0  0  0  0  0  0  0  0  0  0
   -0.1376   -6.0854   45.0292 C   0  0  0  0  0  0  0  0  0  0  0  0
    0.1005   -5.2864   43.9690 C   0  0  0  0  0  0  0  0  0  0  0  0
    0.4207   -6.2075   43.0091 F   0  0  0  0  0  0  0  0  0  0  0  0
    0.4427   -1.5624   41.6481 C   0  0  0  0  0  0  0  0  0  0  0  0
    1.6831   -0.8347   41.6471 C   0  0  0  0  0  0  0  0  0  0  0  0
    2.8032   -1.2701   42.2875 C   0  0  0  0  0  0  0  0  0  0  0  0
    3.9665   -0.6004   42.3032 C   0  0  0  0  0  0  0  0  0  0  0  0
    5.0260   -1.0077   43.2107 C   0  0  0  0  0  0  0  0  0  0  0  0
    4.6314   -1.5266   44.3433 C   0  0  0  0  0  0  0  0  0  0  0  0
    5.6372   -1.9470   45.3193 C   0  0  0  0  0  0  0  0  0  0  0  0
    5.2977   -2.8048   46.4065 C   0  0  0  0  0  0  0  0  0  0  0  0
    6.1729   -2.9642   47.4822 C   0  0  0  0  0  0  0  0  0  0  0  0
    7.5473   -2.7827   47.3152 C   0  0  0  0  0  0  0  0  0  0  0  0
    8.0365   -2.5782   46.2854 C   0  0  0  0  0  0  0  0  0  0  0  0
    7.0804   -1.8881   45.0277 C   0  0  0  0  0  0  0  0  0  0  0  0
  1  2  1  6
  2  3  1  0
  1  5  1  0
  5  6  1  0
  5  8  1  0
 11 12  1  0
  1 13  1  0
 13 14  2  3
 14 15  1  0
 15 16  1  0
 16 17  1  0
 17 18  2  3
 18 19  1  0
 19 20  2  0
 20 21  1  0
 21 22  2  0
 22 23  1  0
 23 24  2  0
 24 19  1  0
  3  4  2  0
  4  7  1  0
  7  9  2  0
  9 10  1  0
 10 11  2  0
 11  3  1  0
M  END
$$$$
O14757_PocketFlow_idx-in-all-generaetd-822
     RDKit          3D

  6  6  0  0  0  0  0  0  0  0999 V2000
   -0.6395   -2.0713   41.4947 C   0  0  0  0  0  0  0  0  0  0  0  0
    0.1859   -1.1027   41.5970 C   0  0  0  0  0  0  0  0  0  0  0  0
   -0.2410   -3.3795   41.5297 C   0  0  0  0  0  0  0  0  0  0  0  0
    1.6125   -1.3641   41.8466 C   0  0  0  0  0  0  0  0  0  0  0  0
    1.9568   -2.7213   42.1561 C   0  0  0  0  0  0  0  0  0  0  0  0
    0.9568   -3.6932   42.0424 C   0  0  0  0  0  0  0  0  0  0  0  0
  1  2  2  0
  2  4  1  0
  4  5  2  0
  5  6  1  0
  6  3  2  0
  3  1  1  0
M  END
$$$$
O14757_PocketFlow_idx-in-all-generaetd-823
     RDKit          3D

 35 39  0  0  0  0  0  0  0  0999 V2000
   -0.6395   -2.0713   41.4947 C   0  0  0  0  0  0  0  0  0  0  0  0
    0.1859   -1.1027   41.5970 C   0  0  0  0  0  0  0  0  0  0  0  0
   -0.2410   -3.3795   41.5297 C   0  0  0  0  0  0  0  0  0  0  0  0
    1.6125   -1.3641   41.8466 C   0  0  0  0  0  0  0  0  0  0  0  0
    1.9568   -2.7213   42.1561 C   0  0  0  0  0  0  0  0  0  0  0  0
    0.9568   -3.6932   42.0424 C   0  0  0  0  0  0  0  0  0  0  0  0
    2.5419   -0.3107   42.1030 C   0  0  0  0  0  0  0  0  0  0  0  0
    3.8498   -0.5462   42.5716 C   0  0  0  0  0  0  0  0  0  0  0  0
    4.8026    0.5078   42.7751 C   0  0  0  0  0  0  0  0  0  0  0  0
   -2.0827   -1.8332   41.0599 C   0  0  0  0  0  0  0  0  0  0  0  0
   -2.6200   -0.7249   41.3736 O   0  0  0  0  0  0  0  0  0  0  0  0
   -2.7441   -2.7033   40.4694 O   0  0  0  0  0  0  0  0  0  0  0  0
    4.2447   -1.8532   42.9935 C   0  0  0  0  0  0  0  0  0  0  0  0
    5.3653   -1.9040   43.9291 C   0  0  0  0  0  0  0  0  0  0  0  0
    6.1838   -0.8932   44.2137 C   0  0  0  0  0  0  0  0  0  0  0  0
    5.8477    0.2860   43.6379 N   0  0  0  0  0  0  0  0  0  0  0  0
    7.2625   -1.0518   44.9131 N   0  0  0  0  0  0  0  0  0  0  0  0
    7.5187   -2.2142   45.7254 C   0  0  0  0  0  0  0  0  0  0  0  0
    6.5011   -3.2779   45.6546 C   0  0  0  0  0  0  0  0  0  0  0  0
    5.4702   -3.1498   44.7583 C   0  0  0  0  0  0  0  0  0  0  0  0
    8.6432   -2.2864   46.5707 C   0  0  0  0  0  0  0  0  0  0  0  0
    9.6262   -1.2778   46.6688 C   0  0  0  0  0  0  0  0  0  0  0  0
   10.7149   -1.3511   47.4696 C   0  0  0  0  0  0  0  0  0  0  0  0
   10.8808   -2.4643   48.2852 C   0  0  0  0  0  0  0  0  0  0  0  0
    8.8582   -3.4237   47.4258 C   0  0  0  0  0  0  0  0  0  0  0  0
    9.9551   -3.5278   48.2471 C   0  0  0  0  0  0  0  0  0  0  0  0
   10.0980   -4.7561   49.0598 C   0  0  0  0  0  0  0  0  0  0  0  0
    9.6935   -4.7236   50.2722 C   0  0  0  0  0  0  0  0  0  0  0  0
    9.2047   -5.8539   50.9006 C   0  0  0  0  0  0  0  0  0  0  0  0
    9.2292   -7.0687   50.2556 C   0  0  0  0  0  0  0  0  0  0  0  0
    9.6440   -7.0715   48.9230 C   0  0  0  0  0  0  0  0  0  0  0  0
   10.0184   -5.9102   48.2450 C   0  0  0  0  0  0  0  0  0  0  0  0
   10.3572   -5.9655   46.8602 C   0  0  0  0  0  0  0  0  0  0  0  0
   10.3888   -7.1897   46.1604 C   0  0  0  0  0  0  0  0  0  0  0  0
   11.0488   -4.9112   46.1176 C   0  0  0  0  0  0  0  0  0  0  0  0
  4  7  1  0
  1 10  1  0
 10 11  2  0
 10 12  1  0
 18 21  1  0
 26 27  1  0
 32 33  1  0
 33 34  2  0
 33 35  1  0
  7  8  1  0
  8  9  2  0
  9 16  1  0
 16 15  2  0
 14 13  2  0
 13  8  1  0
  1  2  2  0
  2  4  1  0
  4  5  2  0
  5  6  1  0
  6  3  2  0
  3  1  1  0
 21 22  2  0
 22 23  1  0
 23 24  2  0
 24 26  1  0
 26 25  2  0
 25 21  1  0
 27 28  2  0
 28 29  1  0
 29 30  2  0
 30 31  1  0
 31 32  2  0
 32 27  1  0
 14 15  1  0
 15 17  1  0
 17 18  2  0
 18 19  1  0
 19 20  2  0
 20 14  1  0
M  END
$$$$
O14757_PocketFlow_idx-in-all-generaetd-824
     RDKit          3D

  7  7  0  0  0  0  0  0  0  0999 V2000
   -0.8794   -1.9236   41.9357 O   0  0  0  0  0  0  0  0  0  0  0  0
    0.3070   -1.6014   41.6735 C   0  0  0  0  0  0  0  0  0  0  0  0
    0.8076   -0.3104   41.6588 C   0  0  0  0  0  0  0  0  0  0  0  0
    2.1617   -0.1430   41.5642 C   0  0  0  0  0  0  0  0  0  0  0  0
    3.0186   -1.2162   41.8562 C   0  0  0  0  0  0  0  0  0  0  0  0
    2.4453   -2.4294   42.2584 C   0  0  0  0  0  0  0  0  0  0  0  0
    1.0999   -2.5846   42.3063 C   0  0  0  0  0  0  0  0  0  0  0  0
  1  2  1  0
  2  3  2  0
  3  4  1  0
  4  5  2  0
  5  6  1  0
  6  7  2  0
  7  2  1  0
M  END
$$$$
O14757_PocketFlow_idx-in-all-generaetd-825
     RDKit          3D

 16 18  0  0  0  0  0  0  0  0999 V2000
    0.2881   -2.9111   42.4378 C   0  0  0  0  0  0  0  0  0  0  0  0
    1.1784   -3.4293   42.9321 C   0  0  0  0  0  0  0  0  0  0  0  0
    1.2340   -4.4107   43.9123 C   0  0  0  0  0  0  0  0  0  0  0  0
    2.2208   -4.4317   44.9351 C   0  0  0  0  0  0  0  0  0  0  0  0
    3.3567   -3.5729   44.7214 C   0  0  0  0  0  0  0  0  0  0  0  0
    3.3959   -2.6565   43.7337 C   0  0  0  0  0  0  0  0  0  0  0  0
    2.3097   -2.5040   42.9181 C   0  0  2  0  0  0  0  0  0  0  0  0
    0.5959   -1.7448   41.7158 N   0  0  0  0  0  0  0  0  0  0  0  0
    1.8947   -1.5445   42.0794 C   0  0  0  0  0  0  0  0  0  0  0  0
    4.5686   -1.7359   43.6371 C   0  0  0  0  0  0  0  0  0  0  0  0
    5.6038   -1.7703   44.5503 C   0  0  0  0  0  0  0  0  0  0  0  0
    5.6044   -2.8805   45.5187 C   0  0  0  0  0  0  0  0  0  0  0  0
    4.4769   -3.7185   45.6899 C   0  0  0  0  0  0  0  0  0  0  0  0
    6.8096   -2.9888   46.3772 C   0  0  0  0  0  0  0  0  0  0  0  0
    7.9916   -2.2198   46.1783 C   0  0  0  0  0  0  0  0  0  0  0  0
    9.1343   -2.3917   46.9686 C   0  0  0  0  0  0  0  0  0  0  0  0
  1  2  2  0
  2  3  1  0
  3  4  1  0
  4  5  1  0
  2  7  1  0
  6  7  1  0
  1  8  1  0
  7  9  1  1
  8  9  2  0
 12 14  1  0
 14 15  2  3
 15 16  1  0
  5  6  2  0
  6 10  1  0
 10 11  2  0
 11 12  1  0
 12 13  2  0
 13  5  1  0
M  END
$$$$
O14757_PocketFlow_idx-in-all-generaetd-826
     RDKit          3D

 18 19  0  0  0  0  0  0  0  0999 V2000
   -0.6395   -2.0713   41.4947 C   0  0  0  0  0  0  0  0  0  0  0  0
    0.1859   -1.1027   41.5970 C   0  0  0  0  0  0  0  0  0  0  0  0
   -0.2410   -3.3795   41.5297 C   0  0  0  0  0  0  0  0  0  0  0  0
    1.6125   -1.3641   41.8466 C   0  0  0  0  0  0  0  0  0  0  0  0
    2.5720   -0.3568   42.0335 C   0  0  0  0  0  0  0  0  0  0  0  0
    3.8647   -0.6704   42.4195 C   0  0  0  0  0  0  0  0  0  0  0  0
    4.8224    0.2982   42.7827 C   0  0  0  0  0  0  0  0  0  0  0  0
    1.0714   -3.7341   41.8674 C   0  0  0  0  0  0  0  0  0  0  0  0
    1.9515   -2.6785   42.0173 C   0  0  0  0  0  0  0  0  0  0  0  0
   -2.1060   -1.8325   41.1578 C   0  0  0  0  0  0  0  0  0  0  0  0
   -2.5964   -0.7019   41.5082 O   0  0  0  0  0  0  0  0  0  0  0  0
   -2.7570   -2.6233   40.3874 O   0  0  0  0  0  0  0  0  0  0  0  0
    5.9851   -0.2803   43.4397 C   0  0  0  0  0  0  0  0  0  0  0  0
    5.8937   -1.4841   44.1946 C   0  0  0  0  0  0  0  0  0  0  0  0
    4.8002   -2.3422   43.9318 C   0  0  0  0  0  0  0  0  0  0  0  0
    4.7399   -3.5636   44.5775 C   0  0  0  0  0  0  0  0  0  0  0  0
    3.7932   -1.9050   43.1418 C   0  0  0  0  0  0  0  0  0  0  0  0
    3.0574   -2.8664   42.7367 N   0  0  0  0  0  0  0  0  0  0  0  0
  4  5  1  0
  5  6  1  0
  1 10  1  0
 10 11  2  0
 10 12  1  0
 15 16  1  0
 17 18  1  0
  6  7  2  0
  7 13  1  0
 13 14  2  0
 14 15  1  0
 15 17  2  0
 17  6  1  0
  1  2  2  0
  2  4  1  0
  4  9  2  0
  9  8  1  0
  8  3  2  0
  3  1  1  0
M  END
$$$$
O14757_PocketFlow_idx-in-all-generaetd-827
     RDKit          3D

 29 32  0  0  0  0  0  0  0  0999 V2000
   -0.6395   -2.0713   41.4947 C   0  0  0  0  0  0  0  0  0  0  0  0
   -0.2671   -3.2464   41.6546 C   0  0  0  0  0  0  0  0  0  0  0  0
    0.2277   -0.9875   41.6495 C   0  0  0  0  0  0  0  0  0  0  0  0
    1.6284   -1.2752   41.8841 C   0  0  0  0  0  0  0  0  0  0  0  0
    1.9209   -2.6657   42.2361 C   0  0  0  0  0  0  0  0  0  0  0  0
    0.9459   -3.6290   42.1337 C   0  0  0  0  0  0  0  0  0  0  0  0
    2.6899   -0.4606   42.1200 C   0  0  0  0  0  0  0  0  0  0  0  0
    3.9564   -0.7006   42.6118 C   0  0  0  0  0  0  0  0  0  0  0  0
    5.0082    0.1954   42.7608 C   0  0  0  0  0  0  0  0  0  0  0  0
   -2.0636   -1.7449   41.0627 C   0  0  0  0  0  0  0  0  0  0  0  0
   -2.8210   -2.6742   40.5410 N   0  0  0  0  0  0  0  0  0  0  0  0
   -2.5283   -0.5702   41.2286 F   0  0  0  0  0  0  0  0  0  0  0  0
    4.1723   -1.9985   43.1926 C   0  0  0  0  0  0  0  0  0  0  0  0
    3.1429   -2.9344   42.9460 C   0  0  0  0  0  0  0  0  0  0  0  0
    5.6087    0.4449   43.7139 O   0  0  0  0  0  0  0  0  0  0  0  0
    5.0001    1.0672   41.7603 O   0  0  0  0  0  0  0  0  0  0  0  0
    5.2916   -2.3837   43.7538 N   0  0  0  0  0  0  0  0  0  0  0  0
    5.3080   -3.3376   44.8394 C   0  0  0  0  0  0  0  0  0  0  0  0
    6.3531   -3.1366   45.7803 C   0  0  0  0  0  0  0  0  0  0  0  0
    6.4617   -3.8930   46.9222 C   0  0  0  0  0  0  0  0  0  0  0  0
    5.2747   -4.6534   47.2435 C   0  0  0  0  0  0  0  0  0  0  0  0
    4.1970   -4.6715   46.3910 C   0  0  0  0  0  0  0  0  0  0  0  0
    4.1944   -3.9530   45.2516 C   0  0  0  0  0  0  0  0  0  0  0  0
    7.6268   -3.8053   47.8061 C   0  0  0  0  0  0  0  0  0  0  0  0
    8.7521   -3.2063   47.3783 C   0  0  0  0  0  0  0  0  0  0  0  0
    9.9453   -3.2119   48.1453 C   0  0  0  0  0  0  0  0  0  0  0  0
    9.9128   -3.7265   49.4146 C   0  0  0  0  0  0  0  0  0  0  0  0
    7.6052   -4.2971   49.1413 C   0  0  0  0  0  0  0  0  0  0  0  0
    8.7028   -4.2329   49.9657 C   0  0  0  0  0  0  0  0  0  0  0  0
  8  9  1  0
  1 10  1  0
 10 11  1  0
 10 12  1  0
  9 15  1  0
  9 16  2  0
 13 17  1  0
 17 18  1  0
 20 24  1  0
 18 19  2  0
 19 20  1  0
 20 21  2  0
 21 22  1  0
 22 23  2  0
 23 18  1  0
  1  2  2  0
  2  6  1  0
  6  5  2  0
  4  3  2  0
  3  1  1  0
 24 25  2  0
 25 26  1  0
 26 27  2  0
 27 29  1  0
 29 28  2  0
 28 24  1  0
  4  5  1  0
  5 14  1  0
 14 13  2  0
 13  8  1  0
  8  7  2  0
  7  4  1  0
M  END
$$$$
O14757_PocketFlow_idx-in-all-generaetd-828
     RDKit          3D

 18 19  0  0  0  0  0  0  0  0999 V2000
   -0.6395   -2.0713   41.4947 C   0  0  0  0  0  0  0  0  0  0  0  0
    0.6719   -2.2449   41.7518 C   0  0  0  0  0  0  0  0  0  0  0  0
    1.5951   -1.1948   41.6106 C   0  0  0  0  0  0  0  0  0  0  0  0
    2.8936   -1.2860   42.2441 C   0  0  0  0  0  0  0  0  0  0  0  0
    3.7940   -0.2219   42.2897 C   0  0  0  0  0  0  0  0  0  0  0  0
   -1.8003   -3.2021   41.2070 Cl  0  0  0  0  0  0  0  0  0  0  0  0
    4.9849   -0.3612   43.1108 C   0  0  0  0  0  0  0  0  0  0  0  0
    5.2409   -1.5123   43.8324 C   0  0  0  0  0  0  0  0  0  0  0  0
    4.3039   -2.6016   43.7288 C   0  0  0  0  0  0  0  0  0  0  0  0
    3.1143   -2.4265   43.0003 C   0  0  0  0  0  0  0  0  0  0  0  0
    6.4516   -1.6440   44.6373 C   0  0  0  0  0  0  0  0  0  0  0  0
    6.5606   -2.6814   45.6714 C   0  0  0  0  0  0  0  0  0  0  0  0
    5.5478   -3.5309   46.0389 C   0  0  0  0  0  0  0  0  0  0  0  0
    5.6558   -4.2093   47.2979 C   0  0  0  0  0  0  0  0  0  0  0  0
    6.7135   -3.8957   48.1383 C   0  0  0  0  0  0  0  0  0  0  0  0
    7.7784   -3.1577   47.7401 C   0  0  0  0  0  0  0  0  0  0  0  0
    7.7267   -2.3962   46.5487 C   0  0  0  0  0  0  0  0  0  0  0  0
   -1.0849   -0.6470   41.4673 C   0  0  0  0  0  0  0  0  0  0  0  0
  1  2  1  0
  2  3  1  0
  3  4  1  0
  1  6  1  0
  8 11  1  0
  1 18  1  0
 11 12  1  0
 12 13  2  0
 13 14  1  0
 14 15  2  0
 15 16  1  0
 16 17  2  0
 17 12  1  0
  4  5  2  0
  5  7  1  0
  7  8  2  0
  8  9  1  0
  9 10  2  0
 10  4  1  0
M  END
$$$$
O14757_PocketFlow_idx-in-all-generaetd-829
     RDKit          3D

 31 35  0  0  0  0  0  0  0  0999 V2000
   -0.6395   -2.0713   41.4947 C   0  0  0  0  0  0  0  0  0  0  0  0
   -0.2671   -3.2464   41.6546 C   0  0  0  0  0  0  0  0  0  0  0  0
    0.2407   -0.9706   41.5952 C   0  0  0  0  0  0  0  0  0  0  0  0
    1.5531   -1.3393   41.8399 C   0  0  0  0  0  0  0  0  0  0  0  0
    1.9123   -2.6863   42.1918 C   0  0  0  0  0  0  0  0  0  0  0  0
    3.2175   -2.9195   42.7686 C   0  0  0  0  0  0  0  0  0  0  0  0
    0.9717   -3.6498   42.0518 C   0  0  0  0  0  0  0  0  0  0  0  0
    3.9799   -1.7947   43.1878 C   0  0  1  0  0  0  0  0  0  0  0  0
    5.1009   -1.9627   44.0288 C   0  0  0  0  0  0  0  0  0  0  0  0
    5.9036   -0.8456   44.2974 C   0  0  0  0  0  0  0  0  0  0  0  0
   -2.0711   -1.7459   41.0651 C   0  0  0  0  0  0  0  0  0  0  0  0
    6.9874   -1.0692   45.0473 N   0  0  0  0  0  0  0  0  0  0  0  0
    7.1350   -2.3902   45.5384 C   0  0  0  0  0  0  0  0  0  0  0  0
    5.6828   -3.0700   44.7353 C   0  0  0  0  0  0  0  0  0  0  0  0
    7.8778   -3.1181   46.3390 C   0  0  0  0  0  0  0  0  0  0  0  0
    9.1164   -2.7182   46.5746 C   0  0  0  0  0  0  0  0  0  0  0  0
   10.0217   -3.5105   47.3961 C   0  0  0  0  0  0  0  0  0  0  0  0
    7.5005   -4.2795   46.9374 C   0  0  0  0  0  0  0  0  0  0  0  0
    8.2660   -5.0521   47.8036 C   0  0  0  0  0  0  0  0  0  0  0  0
    9.5749   -4.6033   48.0366 C   0  0  0  0  0  0  0  0  0  0  0  0
   -2.8081   -2.6845   40.5424 N   0  0  0  0  0  0  0  0  0  0  0  0
   -2.5592   -0.5632   41.2498 O   0  0  0  0  0  0  0  0  0  0  0  0
    3.7554   -0.5113   42.6139 C   0  0  0  0  0  0  0  0  0  0  0  0
    2.4688   -0.2300   42.0656 C   0  0  0  0  0  0  0  0  0  0  0  0
    4.5424    0.5211   42.7891 O   0  0  0  0  0  0  0  0  0  0  0  0
   10.4828   -5.4050   48.9118 C   0  0  0  0  0  0  0  0  0  0  0  0
   10.9330   -6.3895   48.4990 C   0  0  0  0  0  0  0  0  0  0  0  0
   11.6855   -7.1752   49.1652 C   0  0  0  0  0  0  0  0  0  0  0  0
   12.0181   -6.8495   50.5274 C   0  0  0  0  0  0  0  0  0  0  0  0
   10.6054   -4.8714   50.2316 C   0  0  0  0  0  0  0  0  0  0  0  0
   11.3910   -5.6701   51.1124 C   0  0  0  0  0  0  0  0  0  0  0  0
  5  6  1  0
  8  9  1  6
  9 10  1  0
  1 11  1  0
 10 12  1  0
 12 13  2  0
  9 14  1  0
 13 14  1  0
 13 15  1  0
 11 21  1  0
 11 22  2  0
  8 23  1  0
  4 24  1  0
 23 24  1  0
 23 25  2  0
 20 26  1  0
  8  6  1  0
  1  2  2  0
  2  7  1  0
  7  5  2  0
  5  4  1  0
  4  3  2  0
  3  1  1  0
 15 16  2  0
 16 17  1  0
 17 20  2  0
 20 19  1  0
 19 18  2  0
 18 15  1  0
 26 27  2  0
 27 28  1  0
 28 29  2  0
 29 31  1  0
 31 30  2  0
 30 26  1  0
M  END
$$$$
O14757_PocketFlow_idx-in-all-generaetd-830
     RDKit          3D

 14 16  0  0  0  0  0  0  0  0999 V2000
   -0.6395   -2.0713   41.4947 C   0  0  0  0  0  0  0  0  0  0  0  0
    0.1859   -1.1027   41.5970 C   0  0  0  0  0  0  0  0  0  0  0  0
   -0.2410   -3.3795   41.5297 C   0  0  0  0  0  0  0  0  0  0  0  0
    1.6125   -1.3641   41.8466 C   0  0  0  0  0  0  0  0  0  0  0  0
    1.9568   -2.7213   42.1561 C   0  0  0  0  0  0  0  0  0  0  0  0
    0.9568   -3.6932   42.0424 C   0  0  0  0  0  0  0  0  0  0  0  0
    2.5419   -0.3107   42.1030 C   0  0  0  0  0  0  0  0  0  0  0  0
    3.8498   -0.5462   42.5716 C   0  0  0  0  0  0  0  0  0  0  0  0
    4.1740   -1.7502   43.2541 C   0  0  0  0  0  0  0  0  0  0  0  0
    5.3114   -1.9936   44.0649 C   0  0  0  0  0  0  0  0  0  0  0  0
    5.4017   -3.1739   44.8152 C   0  0  0  0  0  0  0  0  0  0  0  0
    4.4368   -4.1321   44.6885 C   0  0  0  0  0  0  0  0  0  0  0  0
    3.3102   -3.8955   43.9108 C   0  0  0  0  0  0  0  0  0  0  0  0
    3.1446   -2.7258   43.3263 C   0  0  0  0  0  0  0  0  0  0  0  0
  1  2  2  0
  2  4  1  0
  5  6  1  0
  6  3  2  0
  3  1  1  0
  4  5  2  0
  5 14  1  0
  9  8  1  0
  8  7  2  0
  7  4  1  0
  9 10  2  0
 10 11  1  0
 11 12  2  0
 12 13  1  0
 13 14  2  0
 14  9  1  0
M  END
$$$$
O14757_PocketFlow_idx-in-all-generaetd-831
     RDKit          3D

 20 22  0  0  0  0  0  0  0  0999 V2000
   -0.6395   -2.0713   41.4947 C   0  0  0  0  0  0  0  0  0  0  0  0
   -0.2671   -3.2464   41.6546 C   0  0  0  0  0  0  0  0  0  0  0  0
    0.2407   -0.9706   41.5952 C   0  0  0  0  0  0  0  0  0  0  0  0
    1.6195   -1.2958   41.8767 C   0  0  0  0  0  0  0  0  0  0  0  0
    2.6583   -0.3517   42.0703 C   0  0  0  0  0  0  0  0  0  0  0  0
    3.9275   -0.7702   42.5387 C   0  0  0  0  0  0  0  0  0  0  0  0
    3.9444   -2.1081   43.0865 C   0  0  0  0  0  0  0  0  0  0  0  0
    2.8133   -2.9027   43.1780 C   0  0  0  0  0  0  0  0  0  0  0  0
    1.6416   -2.4473   42.6184 C   0  0  0  0  0  0  0  0  0  0  0  0
    0.7194   -3.4978   42.3799 C   0  0  0  0  0  0  0  0  0  0  0  0
    5.3067    0.1728   42.6110 Cl  0  0  0  0  0  0  0  0  0  0  0  0
   -2.0375   -1.6478   41.0218 C   0  0  0  0  0  0  0  0  0  0  0  0
   -2.6445   -0.4898   41.3175 N   0  0  0  0  0  0  0  0  0  0  0  0
   -2.9033   -2.6148   40.6507 N   0  0  0  0  0  0  0  0  0  0  0  0
   -3.8832   -0.4953   40.7797 C   0  0  0  0  0  0  0  0  0  0  0  0
   -4.0227   -1.7762   40.3202 N   0  0  0  0  0  0  0  0  0  0  0  0
    2.9187   -4.0329   44.1156 C   0  0  1  0  0  0  0  0  0  0  0  0
    4.1184   -4.5425   44.5311 C   0  0  0  0  0  0  0  0  0  0  0  0
    1.7145   -4.4680   44.7466 C   0  0  0  0  0  0  0  0  0  0  0  0
    1.2082   -3.8915   45.9335 C   0  0  0  0  0  0  0  0  0  0  0  0
  6 11  1  0
  1 12  1  0
 12 13  1  0
 12 14  2  0
 13 15  1  0
 14 16  1  0
 15 16  1  0
  8 17  1  0
 17 18  1  1
 17 19  1  0
 19 20  1  0
  1  2  2  0
  2 10  1  0
 10  9  2  0
  4  3  2  0
  3  1  1  0
  4  5  1  0
  5  6  2  0
  6  7  1  0
  7  8  2  0
  8  9  1  0
  9  4  1  0
M  END
$$$$
O14757_PocketFlow_idx-in-all-generaetd-832
     RDKit          3D

 16 17  0  0  0  0  0  0  0  0999 V2000
   -0.6395   -2.0713   41.4947 C   0  0  0  0  0  0  0  0  0  0  0  0
   -0.2671   -3.2464   41.6546 C   0  0  0  0  0  0  0  0  0  0  0  0
    0.2277   -0.9875   41.6495 C   0  0  0  0  0  0  0  0  0  0  0  0
    1.6284   -1.2752   41.8841 C   0  0  0  0  0  0  0  0  0  0  0  0
    2.6421   -0.3335   42.0825 C   0  0  0  0  0  0  0  0  0  0  0  0
    3.8980   -0.6935   42.5215 C   0  0  0  0  0  0  0  0  0  0  0  0
    4.9125    0.2028   42.8756 C   0  0  0  0  0  0  0  0  0  0  0  0
    1.0599   -3.6657   41.9597 C   0  0  0  0  0  0  0  0  0  0  0  0
    1.9590   -2.5920   42.1652 C   0  0  0  0  0  0  0  0  0  0  0  0
   -2.0814   -1.7716   41.1216 C   0  0  0  0  0  0  0  0  0  0  0  0
   -2.5725   -0.6435   41.4323 O   0  0  0  0  0  0  0  0  0  0  0  0
   -2.7815   -2.6345   40.5648 O   0  0  0  0  0  0  0  0  0  0  0  0
    6.0160   -0.3846   43.5457 C   0  0  0  0  0  0  0  0  0  0  0  0
    5.9229   -1.6079   44.2787 C   0  0  0  0  0  0  0  0  0  0  0  0
    4.7949   -2.4069   43.9812 C   0  0  0  0  0  0  0  0  0  0  0  0
    3.8340   -1.9398   43.2674 C   0  0  0  0  0  0  0  0  0  0  0  0
  4  5  1  0
  5  6  1  0
  1 10  1  0
 10 11  2  0
 10 12  1  0
  1  2  2  0
  2  8  1  0
  8  9  2  0
  9  4  1  0
  4  3  2  0
  3  1  1  0
  6  7  2  0
  7 13  1  0
 13 14  2  0
 14 15  1  0
 15 16  2  0
 16  6  1  0
M  END
$$$$
O14757_PocketFlow_idx-in-all-generaetd-833
     RDKit          3D

 29 30  0  0  0  0  0  0  0  0999 V2000
   -0.6395   -2.0713   41.4947 C   0  0  0  0  0  0  0  0  0  0  0  0
    0.1859   -1.1027   41.5970 C   0  0  0  0  0  0  0  0  0  0  0  0
    0.4132   -0.3094   42.2420 C   0  0  0  0  0  0  0  0  0  0  0  0
   -0.5062   -3.2637   40.8029 C   0  0  0  0  0  0  0  0  0  0  0  0
    0.8157   -3.4049   40.5320 N   0  0  0  0  0  0  0  0  0  0  0  0
    1.3694   -2.1708   40.8969 C   0  0  0  0  0  0  0  0  0  0  0  0
    1.7707    0.4595   41.9700 C   0  0  0  0  0  0  0  0  0  0  0  0
    2.9234    0.2321   42.8645 C   0  0  0  0  0  0  0  0  0  0  0  0
    4.2244    0.3645   42.3325 C   0  0  0  0  0  0  0  0  0  0  0  0
    5.2091   -0.1221   43.1987 C   0  0  0  0  0  0  0  0  0  0  0  0
    5.0074   -1.0149   44.2871 C   0  0  0  0  0  0  0  0  0  0  0  0
    6.0232   -1.3543   45.1740 C   0  0  0  0  0  0  0  0  0  0  0  0
    7.3006   -1.4600   44.6588 C   0  0  0  0  0  0  0  0  0  0  0  0
    8.3379   -1.9715   45.6517 C   0  0  0  0  0  0  0  0  0  0  0  0
    9.5224   -1.3910   45.9964 C   0  0  0  0  0  0  0  0  0  0  0  0
   10.3727   -1.9722   46.8838 C   0  0  0  0  0  0  0  0  0  0  0  0
    8.0794   -3.2719   46.2193 C   0  0  0  0  0  0  0  0  0  0  0  0
    8.9348   -3.8022   47.1307 C   0  0  0  0  0  0  0  0  0  0  0  0
   10.0938   -3.1649   47.4890 C   0  0  0  0  0  0  0  0  0  0  0  0
    8.5653   -5.1609   47.6473 C   0  0  0  0  0  0  0  0  0  0  0  0
    7.4848   -5.2181   48.6336 C   0  0  0  0  0  0  0  0  0  0  0  0
    6.3792   -5.9630   48.4748 C   0  0  0  0  0  0  0  0  0  0  0  0
    5.8405   -6.3741   47.5613 C   0  0  0  0  0  0  0  0  0  0  0  0
    4.8837   -7.5445   47.5041 C   0  0  0  0  0  0  0  0  0  0  0  0
    5.2273   -8.6030   47.4982 C   0  0  0  0  0  0  0  0  0  0  0  0
    4.2427   -9.7857   47.4073 C   0  0  0  0  0  0  0  0  0  0  0  0
    2.9766   -9.4601   46.9438 C   0  0  0  0  0  0  0  0  0  0  0  0
    2.6562   -8.2007   46.5166 C   0  0  0  0  0  0  0  0  0  0  0  0
    1.4798   -7.8490   45.9307 C   0  0  0  0  0  0  0  0  0  0  0  0
  1  2  1  0
  2  3  2  3
  1  4  1  0
  4  5  1  0
  2  6  1  0
  5  6  1  0
  3  7  1  0
  7  8  1  0
  8  9  2  3
  9 10  1  0
 10 11  2  3
 11 12  1  0
 12 13  2  3
 13 14  1  0
 18 20  1  0
 20 21  1  0
 21 22  2  3
 22 23  1  0
 23 24  2  3
 24 25  1  0
 25 26  2  3
 26 27  1  0
 27 28  2  3
 28 29  1  0
 14 15  2  0
 15 16  1  0
 16 19  2  0
 19 18  1  0
 18 17  2  0
 17 14  1  0
M  END
$$$$
O14757_PocketFlow_idx-in-all-generaetd-834
     RDKit          3D

 14 14  0  0  0  0  0  0  0  0999 V2000
   -0.6395   -2.0713   41.4947 C   0  0  0  0  0  0  0  0  0  0  0  0
    0.1859   -1.1027   41.5970 C   0  0  0  0  0  0  0  0  0  0  0  0
    1.5836   -1.3270   41.4669 C   0  0  0  0  0  0  0  0  0  0  0  0
    2.5750   -0.4224   42.0442 C   0  0  0  0  0  0  0  0  0  0  0  0
    3.8156   -0.8009   42.5363 C   0  0  0  0  0  0  0  0  0  0  0  0
    4.0115   -0.9328   43.9512 C   0  0  0  0  0  0  0  0  0  0  0  0
    4.1133   -2.1988   44.4963 C   0  0  0  0  0  0  0  0  0  0  0  0
    3.2476   -3.1671   44.3579 C   0  0  0  0  0  0  0  0  0  0  0  0
    3.3072   -4.4149   44.9945 C   0  0  0  0  0  0  0  0  0  0  0  0
    4.3369   -4.5567   45.9095 C   0  0  0  0  0  0  0  0  0  0  0  0
    5.2890   -3.5664   46.2206 C   0  0  0  0  0  0  0  0  0  0  0  0
    5.1823   -2.3761   45.5636 C   0  0  0  0  0  0  0  0  0  0  0  0
   -2.0411   -1.9713   41.5418 C   0  0  0  0  0  0  0  0  0  0  0  0
   -2.5702   -1.3733   40.2650 C   0  0  0  0  0  0  0  0  0  0  0  0
  1  2  1  0
  2  3  1  0
  3  4  1  0
  4  5  1  0
  5  6  1  0
  6  7  1  0
  1 13  1  0
 13 14  1  0
  7  8  2  0
  8  9  1  0
  9 10  2  0
 10 11  1  0
 11 12  2  0
 12  7  1  0
M  END
$$$$
O14757_PocketFlow_idx-in-all-generaetd-835
     RDKit          3D

 20 22  0  0  0  0  0  0  0  0999 V2000
   -0.6395   -2.0713   41.4947 C   0  0  0  0  0  0  0  0  0  0  0  0
    0.6719   -2.2449   41.7518 C   0  0  0  0  0  0  0  0  0  0  0  0
    1.5951   -1.1948   41.6106 C   0  0  0  0  0  0  0  0  0  0  0  0
    2.9587   -1.3961   42.0240 C   0  0  0  0  0  0  0  0  0  0  0  0
    3.8815   -0.3441   42.0598 C   0  0  0  0  0  0  0  0  0  0  0  0
    5.0972   -0.5585   42.8399 C   0  0  0  0  0  0  0  0  0  0  0  0
    5.2535   -1.6826   43.6335 C   0  0  0  0  0  0  0  0  0  0  0  0
    4.2210   -2.6732   43.6342 C   0  0  0  0  0  0  0  0  0  0  0  0
    3.0784   -2.4692   42.9029 C   0  0  0  0  0  0  0  0  0  0  0  0
   -1.5003   -3.1795   41.5533 C   0  0  0  0  0  0  0  0  0  0  0  0
   -0.8815   -4.3736   41.6529 N   0  0  0  0  0  0  0  0  0  0  0  0
    4.5713   -3.8634   44.4857 C   0  0  0  0  0  0  0  0  0  0  0  0
    4.7905   -3.7406   45.8397 C   0  0  0  0  0  0  0  0  0  0  0  0
    4.7118   -4.7585   46.7520 C   0  0  0  0  0  0  0  0  0  0  0  0
    4.1783   -5.8992   46.4829 C   0  0  0  0  0  0  0  0  0  0  0  0
    3.7570   -6.0548   45.0371 C   0  0  0  0  0  0  0  0  0  0  0  0
    3.8259   -5.0543   44.1385 C   0  0  0  0  0  0  0  0  0  0  0  0
    0.7364   -3.7047   41.8938 C   0  0  0  0  0  0  0  0  0  0  0  0
    1.2061   -0.0355   41.5251 F   0  0  0  0  0  0  0  0  0  0  0  0
    5.3918   -2.5417   46.2683 F   0  0  0  0  0  0  0  0  0  0  0  0
  1  2  1  0
  2  3  2  3
  3  4  1  0
  1 10  2  0
 10 11  1  0
  8 12  1  0
  2 18  1  0
 11 18  2  0
  3 19  1  0
 13 20  1  0
 12 13  2  0
 13 14  1  0
 14 15  2  0
 15 16  1  0
 16 17  2  0
 17 12  1  0
  4  5  2  0
  5  6  1  0
  6  7  2  0
  7  8  1  0
  8  9  2  0
  9  4  1  0
M  END
$$$$
O14757_PocketFlow_idx-in-all-generaetd-836
     RDKit          3D

 31 33  0  0  0  0  0  0  0  0999 V2000
   -0.8794   -1.9236   41.9357 O   0  0  0  0  0  0  0  0  0  0  0  0
    0.3182   -2.2442   41.7073 C   0  0  0  0  0  0  0  0  0  0  0  0
    1.3930   -1.3691   41.5725 C   0  0  0  0  0  0  0  0  0  0  0  0
    2.5842   -1.6677   42.2358 C   0  0  0  0  0  0  0  0  0  0  0  0
    3.6603   -0.7354   42.3241 C   0  0  0  0  0  0  0  0  0  0  0  0
    3.3951    0.6280   42.0173 C   0  0  0  0  0  0  0  0  0  0  0  0
    0.5329   -3.6013   41.8747 N   0  0  0  0  0  0  0  0  0  0  0  0
    2.1310    0.9131   41.5811 N   0  0  0  0  0  0  0  0  0  0  0  0
    1.1344    0.0825   41.4213 C   0  0  0  0  0  0  0  0  0  0  0  0
    4.9268   -1.0927   42.9105 C   0  0  0  0  0  0  0  0  0  0  0  0
    4.9507   -2.2508   43.8405 C   0  0  0  0  0  0  0  0  0  0  0  0
    5.8602   -2.3250   44.8585 C   0  0  0  0  0  0  0  0  0  0  0  0
    6.9164   -1.3653   45.0677 C   0  0  0  0  0  0  0  0  0  0  0  0
    7.9083   -1.5754   46.0478 C   0  0  0  0  0  0  0  0  0  0  0  0
    7.8863   -2.7210   46.8215 C   0  0  0  0  0  0  0  0  0  0  0  0
    6.8065   -3.6730   46.6219 C   0  0  0  0  0  0  0  0  0  0  0  0
    5.8766   -3.4719   45.6577 C   0  0  0  0  0  0  0  0  0  0  0  0
    8.8999   -2.9242   47.8547 C   0  0  1  0  0  0  0  0  0  0  0  0
    9.9458   -2.1130   47.9800 C   0  0  0  0  0  0  0  0  0  0  0  0
    8.6626   -3.8478   48.9340 C   0  0  0  0  0  0  0  0  0  0  0  0
    8.8129   -3.4572   50.2085 C   0  0  0  0  0  0  0  0  0  0  0  0
   10.0906   -2.7878   50.5210 C   0  0  2  0  0  0  0  0  0  0  0  0
   10.3227   -1.6275   49.4581 C   0  0  0  0  0  0  0  0  0  0  0  0
   11.2046   -3.8229   50.3702 C   0  0  0  0  0  0  0  0  0  0  0  0
   11.1621   -4.5109   51.4643 C   0  0  0  0  0  0  0  0  0  0  0  0
   10.0791   -1.9586   51.8124 C   0  0  0  0  0  0  0  0  0  0  0  0
   10.5679   -1.1459   52.1539 C   0  0  0  0  0  0  0  0  0  0  0  0
   10.4468   -0.3956   53.4505 C   0  0  0  0  0  0  0  0  0  0  0  0
   10.9019    0.8556   53.6832 N   0  0  0  0  0  0  0  0  0  0  0  0
   11.3758    1.6131   52.6111 C   0  0  0  0  0  0  0  0  0  0  0  0
   11.4735    1.1177   51.4375 N   0  0  0  0  0  0  0  0  0  0  0  0
  1  2  2  0
  2  3  1  0
  2  7  1  0
  5 10  1  0
 10 11  1  0
 11 12  1  0
 18 15  1  1
 18 19  1  0
 18 20  1  0
 20 21  1  0
 21 22  1  0
 19 23  1  0
 22 23  1  0
 22 24  1  1
 24 25  1  0
 22 26  1  0
 26 27  2  3
 27 28  1  0
 28 29  1  0
 29 30  2  3
 30 31  1  0
  3  4  2  0
  4  5  1  0
  5  6  2  0
  6  8  1  0
  8  9  2  0
  9  3  1  0
 12 13  2  0
 13 14  1  0
 14 15  2  0
 15 16  1  0
 16 17  2  0
 17 12  1  0
M  END
$$$$
O14757_PocketFlow_idx-in-all-generaetd-837
     RDKit          3D

  9  9  0  0  0  0  0  0  0  0999 V2000
   -0.6395   -2.0713   41.4947 C   0  0  0  0  0  0  0  0  0  0  0  0
   -0.2671   -3.2464   41.6546 C   0  0  0  0  0  0  0  0  0  0  0  0
   -2.0053   -1.6706   41.3987 C   0  0  0  0  0  0  0  0  0  0  0  0
   -2.2862   -0.2693   41.2308 C   0  0  0  0  0  0  0  0  0  0  0  0
   -3.5618    0.0221   41.1321 N   0  0  0  0  0  0  0  0  0  0  0  0
    0.9303   -3.6084   42.3048 C   0  0  0  0  0  0  0  0  0  0  0  0
    1.8975   -2.6070   42.4309 C   0  0  0  0  0  0  0  0  0  0  0  0
    1.5318   -1.2863   42.1753 C   0  0  0  0  0  0  0  0  0  0  0  0
    0.2414   -0.9383   41.7924 C   0  0  0  0  0  0  0  0  0  0  0  0
  1  3  1  0
  3  4  2  3
  4  5  1  0
  1  2  2  0
  2  6  1  0
  6  7  2  0
  7  8  1  0
  8  9  2  0
  9  1  1  0
M  END
$$$$
O14757_PocketFlow_idx-in-all-generaetd-838
     RDKit          3D

 35 39  0  0  0  0  0  0  0  0999 V2000
   -0.6395   -2.0713   41.4947 C   0  0  0  0  0  0  0  0  0  0  0  0
   -0.2671   -3.2464   41.6546 C   0  0  0  0  0  0  0  0  0  0  0  0
    0.2407   -0.9706   41.5952 C   0  0  0  0  0  0  0  0  0  0  0  0
    1.6195   -1.2958   41.8767 C   0  0  0  0  0  0  0  0  0  0  0  0
    2.6583   -0.3517   42.0703 C   0  0  0  0  0  0  0  0  0  0  0  0
    3.9275   -0.7702   42.5387 C   0  0  0  0  0  0  0  0  0  0  0  0
    4.9444    0.0409   42.9168 C   0  0  0  0  0  0  0  0  0  0  0  0
    1.0282   -3.6847   42.0176 C   0  0  0  0  0  0  0  0  0  0  0  0
    1.9403   -2.6206   42.1877 C   0  0  0  0  0  0  0  0  0  0  0  0
   -1.9158   -1.7989   41.1209 F   0  0  0  0  0  0  0  0  0  0  0  0
    5.9876   -0.5500   43.6667 C   0  0  0  0  0  0  0  0  0  0  0  0
    5.8293   -1.8207   44.3245 C   0  0  0  0  0  0  0  0  0  0  0  0
    4.7024   -2.5703   43.9500 C   0  0  0  0  0  0  0  0  0  0  0  0
    3.7226   -2.0461   43.1952 C   0  0  0  0  0  0  0  0  0  0  0  0
    2.9573   -2.8628   42.8601 N   0  0  0  0  0  0  0  0  0  0  0  0
    6.9444   -2.2443   45.1929 C   0  0  0  0  0  0  0  0  0  0  0  0
    8.1073   -1.6526   45.5100 C   0  0  0  0  0  0  0  0  0  0  0  0
    9.0326   -2.0896   46.4572 C   0  0  0  0  0  0  0  0  0  0  0  0
    8.7981   -3.2647   47.1415 C   0  0  0  0  0  0  0  0  0  0  0  0
    6.8065   -3.4120   46.0226 C   0  0  0  0  0  0  0  0  0  0  0  0
    7.6307   -3.9012   46.9046 C   0  0  0  0  0  0  0  0  0  0  0  0
    9.8061   -3.7071   48.1159 C   0  0  0  0  0  0  0  0  0  0  0  0
   10.1429   -4.8102   48.1397 C   0  0  0  0  0  0  0  0  0  0  0  0
    9.5190   -5.8592   47.6188 C   0  0  0  0  0  0  0  0  0  0  0  0
   10.1205   -7.1944   47.6279 C   0  0  0  0  0  0  0  0  0  0  0  0
    9.3451   -8.2544   47.0835 C   0  0  0  0  0  0  0  0  0  0  0  0
    9.9454   -9.2415   46.4725 C   0  0  0  0  0  0  0  0  0  0  0  0
    9.1734  -10.3254   45.8663 C   0  0  0  0  0  0  0  0  0  0  0  0
    8.6809  -11.0814   46.4982 C   0  0  2  0  0  0  0  0  0  0  0  0
    7.8242  -12.0935   45.9755 C   0  0  0  0  0  0  0  0  0  0  0  0
    7.1342  -12.9151   46.7939 N   0  0  0  0  0  0  0  0  0  0  0  0
    6.3435  -13.8287   46.3661 C   0  0  0  0  0  0  0  0  0  0  0  0
    7.2034  -12.6694   48.1951 C   0  0  0  0  0  0  0  0  0  0  0  0
    7.9078  -11.6468   48.7424 C   0  0  0  0  0  0  0  0  0  0  0  0
    8.5763  -10.8159   47.9654 C   0  0  0  0  0  0  0  0  0  0  0  0
  1 10  1  0
 12 16  1  0
 19 22  1  0
 22 23  1  0
 23 24  2  3
 24 25  1  0
 25 26  2  3
 26 27  1  0
 27 28  1  0
 29 30  1  0
 30 31  1  0
 31 32  1  0
 31 33  1  0
 29 35  1  0
 34 35  1  0
 29 28  1  6
 34 33  1  0
  4  5  1  0
  5  6  2  0
 14 15  2  0
 15  9  1  0
  6  7  1  0
  7 11  2  0
 11 12  1  0
 12 13  2  0
 13 14  1  0
 14  6  1  0
 16 17  2  0
 17 18  1  0
 18 19  2  0
 19 21  1  0
 21 20  2  0
 20 16  1  0
  1  2  2  0
  2  8  1  0
  8  9  2  0
  9  4  1  0
  4  3  2  0
  3  1  1  0
M  END
$$$$
O14757_PocketFlow_idx-in-all-generaetd-839
     RDKit          3D

 35 40  0  0  0  0  0  0  0  0999 V2000
   -0.6395   -2.0713   41.4947 C   0  0  0  0  0  0  0  0  0  0  0  0
   -0.2671   -3.2464   41.6546 C   0  0  0  0  0  0  0  0  0  0  0  0
    0.2277   -0.9875   41.6495 C   0  0  0  0  0  0  0  0  0  0  0  0
    1.6284   -1.2752   41.8841 C   0  0  0  0  0  0  0  0  0  0  0  0
    1.8971   -2.6873   42.1685 C   0  0  0  0  0  0  0  0  0  0  0  0
    0.9380   -3.6379   42.0922 C   0  0  0  0  0  0  0  0  0  0  0  0
    2.5765   -0.2838   42.1328 C   0  0  0  0  0  0  0  0  0  0  0  0
    3.8924   -0.5890   42.5973 C   0  0  0  0  0  0  0  0  0  0  0  0
    4.1685   -1.7287   43.3667 C   0  0  0  0  0  0  0  0  0  0  0  0
    3.0993   -2.8589   43.0818 C   0  0  0  0  0  0  0  0  0  0  0  0
    5.3103   -2.0584   44.0416 C   0  0  0  0  0  0  0  0  0  0  0  0
    6.2375   -1.0812   44.4471 C   0  0  0  0  0  0  0  0  0  0  0  0
    7.3650   -1.4266   45.3063 C   0  0  0  0  0  0  0  0  0  0  0  0
    7.2463   -2.4941   46.1231 C   0  0  0  0  0  0  0  0  0  0  0  0
    6.1412   -3.4343   45.8620 C   0  0  0  0  0  0  0  0  0  0  0  0
    5.1569   -3.1724   44.9687 C   0  0  0  0  0  0  0  0  0  0  0  0
    8.2989   -2.8670   47.0504 C   0  0  0  0  0  0  0  0  0  0  0  0
    9.4660   -2.1676   47.1460 C   0  0  0  0  0  0  0  0  0  0  0  0
    9.6691   -0.9612   46.3993 C   0  0  0  0  0  0  0  0  0  0  0  0
    8.5197   -0.5874   45.5163 C   0  0  0  0  0  0  0  0  0  0  0  0
   -2.0136   -1.7014   40.9786 C   0  0  1  0  0  0  0  0  0  0  0  0
   -2.8485   -2.6074   40.5008 N   0  0  0  0  0  0  0  0  0  0  0  0
   -2.5951   -0.3943   41.2768 C   0  0  0  0  0  0  0  0  0  0  0  0
   -3.8341   -0.1728   40.8217 N   0  0  0  0  0  0  0  0  0  0  0  0
    5.1767    0.8383   42.7207 Br  0  0  0  0  0  0  0  0  0  0  0  0
   10.4710   -2.4682   48.1467 C   0  0  0  0  0  0  0  0  0  0  0  0
   10.4102   -3.4266   48.8539 C   0  0  0  0  0  0  0  0  0  0  0  0
   11.3575   -3.7125   49.9608 C   0  0  0  0  0  0  0  0  0  0  0  0
   11.0356   -4.6739   50.9854 C   0  0  0  0  0  0  0  0  0  0  0  0
    9.7963   -5.3807   50.8512 C   0  0  0  0  0  0  0  0  0  0  0  0
    8.9116   -5.0865   49.8356 C   0  0  0  0  0  0  0  0  0  0  0  0
    9.1247   -4.1018   48.9444 C   0  0  0  0  0  0  0  0  0  0  0  0
    8.1284   -3.8717   47.9851 C   0  0  0  0  0  0  0  0  0  0  0  0
    7.6449   -5.8309   49.8180 C   0  0  0  0  0  0  0  0  0  0  0  0
    7.6477   -6.9503   49.5575 O   0  0  0  0  0  0  0  0  0  0  0  0
  9 11  1  0
  1 21  1  0
 21 22  1  1
 21 23  1  0
 23 24  1  0
  8 25  1  0
 31 34  1  0
 34 35  2  0
 18 26  2  0
 26 27  1  0
 32 33  1  0
 33 17  2  0
 11 12  2  0
 12 13  1  0
 14 15  1  0
 15 16  2  0
 16 11  1  0
  5 10  1  0
 10  9  2  0
  9  8  1  0
  8  7  2  0
  7  4  1  0
  1  2  2  0
  2  6  1  0
  6  5  2  0
  5  4  1  0
  4  3  2  0
  3  1  1  0
 27 28  2  0
 28 29  1  0
 29 30  2  0
 30 31  1  0
 31 32  2  0
 32 27  1  0
 13 14  2  0
 14 17  1  0
 17 18  1  0
 18 19  1  0
 19 20  2  0
 20 13  1  0
M  END
$$$$
O14757_PocketFlow_idx-in-all-generaetd-840
     RDKit          3D

 32 35  0  0  0  0  0  0  0  0999 V2000
    0.2881   -2.9111   42.4378 C   0  0  2  0  0  0  0  0  0  0  0  0
    1.3023   -2.0648   42.1981 C   0  0  0  0  0  0  0  0  0  0  0  0
    0.9971   -0.8647   41.5341 C   0  0  0  0  0  0  0  0  0  0  0  0
    0.6174   -4.1995   43.0267 C   0  0  0  0  0  0  0  0  0  0  0  0
    1.7533   -4.2645   43.8391 C   0  0  0  0  0  0  0  0  0  0  0  0
    2.7390   -3.2837   43.7596 C   0  0  0  0  0  0  0  0  0  0  0  0
    2.5276   -2.1471   42.9633 C   0  0  0  0  0  0  0  0  0  0  0  0
    3.9798   -3.4332   44.5493 C   0  0  0  0  0  0  0  0  0  0  0  0
    4.8828   -2.4470   44.4954 C   0  0  0  0  0  0  0  0  0  0  0  0
    5.9812   -2.4777   45.3928 C   0  0  0  0  0  0  0  0  0  0  0  0
    6.2502   -3.6091   46.1656 C   0  0  0  0  0  0  0  0  0  0  0  0
    5.1904   -4.5133   46.2774 C   0  0  0  0  0  0  0  0  0  0  0  0
    4.0484   -4.4538   45.4751 C   0  0  0  0  0  0  0  0  0  0  0  0
    7.3429   -3.7158   47.1227 C   0  0  0  0  0  0  0  0  0  0  0  0
    8.3886   -2.7626   47.0593 C   0  0  0  0  0  0  0  0  0  0  0  0
    8.4425   -1.7427   46.0531 C   0  0  0  0  0  0  0  0  0  0  0  0
    7.1346   -1.4877   45.1983 C   0  0  0  0  0  0  0  0  0  0  0  0
   -0.7358   -2.8359   41.5054 N   0  0  0  0  0  0  0  0  0  0  0  0
    2.0566   -0.1479   41.1667 O   0  0  0  0  0  0  0  0  0  0  0  0
   -0.1377   -0.2845   41.5618 O   0  0  0  0  0  0  0  0  0  0  0  0
    9.5997   -2.7985   47.8754 C   0  0  0  0  0  0  0  0  0  0  0  0
    9.3069   -2.6196   49.2765 C   0  0  0  0  0  0  0  0  0  0  0  0
    8.3306   -3.2477   49.9100 C   0  0  0  0  0  0  0  0  0  0  0  0
    8.0424   -2.9667   51.3249 C   0  0  0  0  0  0  0  0  0  0  0  0
    8.7880   -2.0147   52.0017 C   0  0  0  0  0  0  0  0  0  0  0  0
    9.8412   -1.3320   51.3493 C   0  0  0  0  0  0  0  0  0  0  0  0
   10.0792   -1.5999   50.0532 C   0  0  0  0  0  0  0  0  0  0  0  0
    9.2596   -0.8322   45.9891 F   0  0  0  0  0  0  0  0  0  0  0  0
   10.5503   -0.3139   52.1376 C   0  0  0  0  0  0  0  0  0  0  0  0
   11.6451   -0.5709   52.5298 O   0  0  0  0  0  0  0  0  0  0  0  0
    9.9834    0.9048   52.2332 O   0  0  0  0  0  0  0  0  0  0  0  0
   -1.6542   -2.0318   41.5678 O   0  0  0  0  0  0  0  0  0  0  0  0
  1  2  1  0
  2  3  2  3
  1  4  1  0
  4  5  1  0
  5  6  1  0
  2  7  1  0
  6  7  1  0
  6  8  1  0
  1 18  1  6
  3 19  1  0
  3 20  1  0
 15 21  1  0
 21 22  1  0
 16 28  1  0
 26 29  1  0
 29 30  1  0
 29 31  2  0
 18 32  2  0
 22 23  2  0
 23 24  1  0
 24 25  2  0
 25 26  1  0
 26 27  2  0
 27 22  1  0
 11 14  2  0
 14 15  1  0
 15 16  2  0
 16 17  1  0
 17 10  2  0
  8  9  2  0
  9 10  1  0
 10 11  1  0
 11 12  1  0
 12 13  2  0
 13  8  1  0
M  END
$$$$
O14757_PocketFlow_idx-in-all-generaetd-841
     RDKit          3D

 22 24  0  0  0  0  0  0  0  0999 V2000
   -0.8794   -1.9236   41.9357 O   0  0  0  0  0  0  0  0  0  0  0  0
    0.3182   -2.2442   41.7074 C   0  0  0  0  0  0  0  0  0  0  0  0
    1.3930   -1.3691   41.5725 C   0  0  0  0  0  0  0  0  0  0  0  0
    1.9066   -0.9190   42.7774 C   0  0  0  0  0  0  0  0  0  0  0  0
    3.2280   -0.5156   42.7266 C   0  0  0  0  0  0  0  0  0  0  0  0
    0.4205   -3.5052   41.0702 O   0  0  0  0  0  0  0  0  0  0  0  0
    4.3279   -1.3730   43.0946 C   0  0  0  0  0  0  0  0  0  0  0  0
    4.6541   -1.3813   44.4697 C   0  0  0  0  0  0  0  0  0  0  0  0
    5.4068   -2.3948   45.0630 C   0  0  0  0  0  0  0  0  0  0  0  0
    4.6439   -3.6383   45.4984 C   0  0  0  0  0  0  0  0  0  0  0  0
    5.1235   -4.3205   46.6068 C   0  0  0  0  0  0  0  0  0  0  0  0
    4.4076   -5.3423   47.2606 C   0  0  0  0  0  0  0  0  0  0  0  0
    4.0928   -6.1540   46.2899 C   0  0  0  0  0  0  0  0  0  0  0  0
    3.6500   -5.7721   44.9756 C   0  0  0  0  0  0  0  0  0  0  0  0
    4.1599   -4.4814   44.5658 C   0  0  0  0  0  0  0  0  0  0  0  0
    6.7776   -2.2034   45.2796 C   0  0  0  0  0  0  0  0  0  0  0  0
    7.5394   -3.1235   46.1218 C   0  0  0  0  0  0  0  0  0  0  0  0
    8.8610   -2.9403   46.4404 C   0  0  0  0  0  0  0  0  0  0  0  0
    9.6014   -3.9073   47.1239 C   0  0  0  0  0  0  0  0  0  0  0  0
    8.9334   -5.1082   47.4460 C   0  0  0  0  0  0  0  0  0  0  0  0
    7.6109   -5.2156   47.3008 C   0  0  0  0  0  0  0  0  0  0  0  0
    6.9345   -4.2794   46.5691 C   0  0  0  0  0  0  0  0  0  0  0  0
  1  2  2  0
  2  3  1  0
  3  4  1  0
  4  5  1  0
  2  6  1  0
  5  7  1  0
  7  8  3  0
  8  9  1  0
 17 18  1  0
 18 19  2  0
 19 20  1  0
 20 21  2  0
 21 22  1  0
  9 10  2  0
 11 22  2  0
 22 17  1  0
 17 16  2  0
 16  9  1  0
 10 11  1  0
 11 12  1  0
 12 13  2  0
 13 14  1  0
 14 15  2  0
 15 10  1  0
M  END
$$$$
O14757_PocketFlow_idx-in-all-generaetd-842
     RDKit          3D

 18 20  0  0  0  0  0  0  0  0999 V2000
   -0.6395   -2.0713   41.4947 C   0  0  2  0  0  0  0  0  0  0  0  0
    0.6719   -2.2449   41.7518 C   0  0  0  0  0  0  0  0  0  0  0  0
    1.3815   -1.6359   42.7231 C   0  0  0  0  0  0  0  0  0  0  0  0
   -1.3884   -2.9047   40.6798 C   0  0  0  0  0  0  0  0  0  0  0  0
    2.7413   -2.0881   43.0207 C   0  0  0  0  0  0  0  0  0  0  0  0
    3.8593   -1.2723   42.8875 C   0  0  0  0  0  0  0  0  0  0  0  0
    3.9479    0.0424   42.4679 C   0  0  0  0  0  0  0  0  0  0  0  0
   -2.6931   -2.6179   40.5771 N   0  0  0  0  0  0  0  0  0  0  0  0
    4.9001   -1.5275   43.9996 C   0  0  0  0  0  0  0  0  0  0  0  0
    5.0071   -2.7212   44.6636 C   0  0  0  0  0  0  0  0  0  0  0  0
    6.0691   -3.0387   45.4888 C   0  0  0  0  0  0  0  0  0  0  0  0
    6.0524   -4.1556   46.3777 C   0  0  0  0  0  0  0  0  0  0  0  0
    4.8168   -4.8119   46.4576 C   0  0  0  0  0  0  0  0  0  0  0  0
    3.7421   -4.4816   45.6979 C   0  0  0  0  0  0  0  0  0  0  0  0
    3.7686   -3.3653   44.8186 C   0  0  0  0  0  0  0  0  0  0  0  0
    2.6779   -3.1542   43.9526 C   0  0  0  0  0  0  0  0  0  0  0  0
   -3.0695   -1.3952   41.0435 C   0  0  0  0  0  0  0  0  0  0  0  0
   -1.5457   -0.9162   41.7547 C   0  0  0  0  0  0  0  0  0  0  0  0
  1  2  1  0
  2  3  2  3
  1  4  1  6
  3  5  1  0
  6  7  1  0
  4  8  1  0
  8 17  2  0
  1 18  1  0
 17 18  1  0
  5  6  2  0
  6  9  1  0
  9 10  2  0
 15 16  2  0
 16  5  1  0
 10 11  1  0
 11 12  2  0
 12 13  1  0
 13 14  2  0
 14 15  1  0
 15 10  1  0
M  END
$$$$
O14757_PocketFlow_idx-in-all-generaetd-843
     RDKit          3D

 35 39  0  0  0  0  0  0  0  0999 V2000
   -0.6395   -2.0713   41.4947 C   0  0  2  0  0  0  0  0  0  0  0  0
    0.1859   -1.1027   41.5970 C   0  0  0  0  0  0  0  0  0  0  0  0
    0.4133   -0.3094   42.2420 C   0  0  0  0  0  0  0  0  0  0  0  0
   -0.5062   -3.2637   40.8029 C   0  0  0  0  0  0  0  0  0  0  0  0
    0.8157   -3.4049   40.5319 N   0  0  0  0  0  0  0  0  0  0  0  0
    1.3694   -2.1708   40.8969 C   0  0  0  0  0  0  0  0  0  0  0  0
    1.7495    0.3930   42.0806 C   0  0  0  0  0  0  0  0  0  0  0  0
    2.8964    0.1711   42.9808 C   0  0  0  0  0  0  0  0  0  0  0  0
    4.1898    0.4147   42.5013 C   0  0  0  0  0  0  0  0  0  0  0  0
    5.1812   -0.1428   43.3767 C   0  0  0  0  0  0  0  0  0  0  0  0
    4.9817   -1.0798   44.3924 C   0  0  0  0  0  0  0  0  0  0  0  0
    5.9711   -1.4726   45.2632 C   0  0  0  0  0  0  0  0  0  0  0  0
    5.7322   -2.5323   46.1960 C   0  0  0  0  0  0  0  0  0  0  0  0
    4.3800   -3.1173   46.1611 C   0  0  0  0  0  0  0  0  0  0  0  0
    3.4875   -2.7634   45.1736 C   0  0  0  0  0  0  0  0  0  0  0  0
    3.7874   -1.7939   44.2583 C   0  0  0  0  0  0  0  0  0  0  0  0
    2.6464   -1.2107   43.5207 C   0  0  0  0  0  0  0  0  0  0  0  0
    6.7457   -3.0403   47.1046 C   0  0  0  0  0  0  0  0  0  0  0  0
    8.1019   -2.7523   46.9032 C   0  0  0  0  0  0  0  0  0  0  0  0
    9.0669   -3.3617   47.6722 C   0  0  0  0  0  0  0  0  0  0  0  0
    8.6502   -4.2773   48.6467 C   0  0  0  0  0  0  0  0  0  0  0  0
    6.5365   -4.0554   48.0775 C   0  0  0  0  0  0  0  0  0  0  0  0
    7.3673   -4.6309   48.8771 C   0  0  0  0  0  0  0  0  0  0  0  0
   -2.0094   -1.7419   41.8369 O   0  0  0  0  0  0  0  0  0  0  0  0
   10.4886   -3.0468   47.4235 C   0  0  0  0  0  0  0  0  0  0  0  0
   10.8527   -1.8544   47.0066 C   0  0  0  0  0  0  0  0  0  0  0  0
   12.2067   -1.5608   46.6641 C   0  0  0  0  0  0  0  0  0  0  0  0
   12.5600   -0.3558   46.1561 C   0  0  0  0  0  0  0  0  0  0  0  0
   13.9632   -0.0932   45.8829 C   0  0  0  0  0  0  0  0  0  0  0  0
   11.5015   -3.9430   47.7116 C   0  0  0  0  0  0  0  0  0  0  0  0
   12.8496   -3.7172   47.3445 C   0  0  0  0  0  0  0  0  0  0  0  0
   13.2083   -2.4989   46.8319 C   0  0  0  0  0  0  0  0  0  0  0  0
   14.3092    1.2344   45.5888 C   0  0  0  0  0  0  0  0  0  0  0  0
   13.3322    2.2789   45.6088 C   0  0  0  0  0  0  0  0  0  0  0  0
   13.7637    3.5905   45.2607 C   0  0  0  0  0  0  0  0  0  0  0  0
  1  2  1  0
  2  3  2  3
  1  4  1  0
  4  5  1  0
  2  6  1  0
  5  6  1  0
  3  7  1  0
  7  8  1  0
 13 18  1  0
  1 24  1  6
 20 25  1  0
 28 29  1  0
 29 33  2  3
 33 34  1  0
 34 35  2  0
 28 27  1  0
 11 12  1  0
 12 13  2  0
 13 14  1  0
 14 15  2  0
 15 16  1  0
 25 26  2  0
 26 27  1  0
 27 32  2  0
 32 31  1  0
 31 30  2  0
 30 25  1  0
 18 19  2  0
 19 20  1  0
 20 21  2  0
 21 23  1  0
 23 22  2  0
 22 18  1  0
  8  9  2  0
  9 10  1  0
 10 11  2  0
 11 16  1  0
 16 17  2  0
 17  8  1  0
M  END
$$$$
O14757_PocketFlow_idx-in-all-generaetd-844
     RDKit          3D

 21 23  0  0  0  0  0  0  0  0999 V2000
    0.2881   -2.9111   42.4378 C   0  0  0  0  0  0  0  0  0  0  0  0
   -0.0650   -2.5021   41.5798 C   0  0  0  0  0  0  0  0  0  0  0  0
    1.5111   -2.4518   43.1047 C   0  0  0  0  0  0  0  0  0  0  0  0
    2.1892   -1.4341   42.4770 C   0  0  0  0  0  0  0  0  0  0  0  0
    1.5990   -0.8333   41.3694 C   0  0  0  0  0  0  0  0  0  0  0  0
    0.4724   -1.3248   40.8538 C   0  0  0  0  0  0  0  0  0  0  0  0
    3.4529   -0.9652   43.0489 C   0  0  1  0  0  0  0  0  0  0  0  0
    4.0630   -1.6642   44.0811 C   0  0  0  0  0  0  0  0  0  0  0  0
    4.0375   -2.9724   44.3993 C   0  0  0  0  0  0  0  0  0  0  0  0
    4.8466   -3.5153   45.3667 C   0  0  0  0  0  0  0  0  0  0  0  0
    5.8040   -2.6610   45.9119 C   0  0  0  0  0  0  0  0  0  0  0  0
    6.0023   -1.3927   45.5443 C   0  0  0  0  0  0  0  0  0  0  0  0
    5.1860   -0.8546   44.6022 C   0  0  0  0  0  0  0  0  0  0  0  0
    6.6151   -3.4264   46.9934 C   0  0  0  0  0  0  0  0  0  0  0  0
    8.0091   -3.2490   47.0342 C   0  0  0  0  0  0  0  0  0  0  0  0
    8.7487   -3.9909   47.9384 C   0  0  0  0  0  0  0  0  0  0  0  0
    6.0622   -4.1970   48.0001 C   0  0  0  0  0  0  0  0  0  0  0  0
    6.7400   -4.8380   49.0047 C   0  0  0  0  0  0  0  0  0  0  0  0
    8.1123   -4.7106   48.9819 C   0  0  0  0  0  0  0  0  0  0  0  0
    4.1306   -0.2594   42.1835 F   0  0  0  0  0  0  0  0  0  0  0  0
   -1.2568   -2.9333   40.9873 O   0  0  0  0  0  0  0  0  0  0  0  0
  4  7  1  0
  7  8  1  0
 11 14  1  0
  7 20  1  6
  2 21  1  0
  1  2  2  0
  2  6  1  0
  6  5  2  0
  5  4  1  0
  4  3  2  0
  3  1  1  0
  8  9  2  0
  9 10  1  0
 10 11  2  0
 11 12  1  0
 12 13  2  0
 13  8  1  0
 14 15  2  0
 15 16  1  0
 16 19  2  0
 19 18  1  0
 18 17  2  0
 17 14  1  0
M  END
$$$$
O14757_PocketFlow_idx-in-all-generaetd-845
     RDKit          3D

 14 15  0  0  0  0  0  0  0  0999 V2000
    0.2881   -2.9111   42.4378 C   0  0  0  0  0  0  0  0  0  0  0  0
   -0.0650   -2.5021   41.5798 C   0  0  0  0  0  0  0  0  0  0  0  0
    0.4265   -4.3024   42.9098 C   0  0  0  0  0  0  0  0  0  0  0  0
   -0.3389   -5.1556   42.0467 C   0  0  0  0  0  0  0  0  0  0  0  0
   -0.8606   -3.3301   40.6480 C   0  0  0  0  0  0  0  0  0  0  0  0
   -0.9354   -4.6254   40.9767 C   0  0  0  0  0  0  0  0  0  0  0  0
    0.0012   -1.1020   41.2480 N   0  0  0  0  0  0  0  0  0  0  0  0
    1.1288   -4.8643   44.0460 C   0  0  0  0  0  0  0  0  0  0  0  0
    2.1955   -4.1190   44.6312 C   0  0  0  0  0  0  0  0  0  0  0  0
    2.9021   -4.6725   45.7243 C   0  0  0  0  0  0  0  0  0  0  0  0
    3.9779   -3.9147   46.2589 C   0  0  0  0  0  0  0  0  0  0  0  0
    4.4762   -2.7276   45.6653 C   0  0  0  0  0  0  0  0  0  0  0  0
    3.8181   -2.3172   44.4559 C   0  0  0  0  0  0  0  0  0  0  0  0
    2.7739   -3.0236   43.9477 C   0  0  0  0  0  0  0  0  0  0  0  0
  2  7  1  0
  3  8  1  0
  8  9  1  0
  9 10  2  0
 10 11  1  0
 11 12  2  0
 12 13  1  0
 13 14  2  0
 14  9  1  0
  1  2  2  0
  2  5  1  0
  5  6  2  0
  6  4  1  0
  4  3  2  0
  3  1  1  0
M  END
$$$$
O14757_PocketFlow_idx-in-all-generaetd-846
     RDKit          3D

 16 17  0  0  0  0  0  0  0  0999 V2000
    0.2881   -2.9111   42.4378 C   0  0  0  0  0  0  0  0  0  0  0  0
    1.1784   -3.4293   42.9321 C   0  0  0  0  0  0  0  0  0  0  0  0
    2.4696   -2.7231   42.8997 C   0  0  0  0  0  0  0  0  0  0  0  0
    2.5380   -1.5398   42.2487 C   0  0  0  0  0  0  0  0  0  0  0  0
    0.2254   -1.7181   41.6878 C   0  0  0  0  0  0  0  0  0  0  0  0
    1.4043   -1.0577   41.5785 C   0  0  0  0  0  0  0  0  0  0  0  0
    3.6738   -3.1149   43.6806 C   0  0  0  0  0  0  0  0  0  0  0  0
    3.8407   -4.3907   44.2898 C   0  0  0  0  0  0  0  0  0  0  0  0
    4.6663   -2.1188   43.9501 C   0  0  0  0  0  0  0  0  0  0  0  0
    5.7062   -2.3944   44.8462 C   0  0  0  0  0  0  0  0  0  0  0  0
    5.8303   -3.5882   45.5764 C   0  0  0  0  0  0  0  0  0  0  0  0
    4.8651   -4.5637   45.2587 C   0  0  0  0  0  0  0  0  0  0  0  0
   -0.9356   -1.2491   41.1383 N   0  0  0  0  0  0  0  0  0  0  0  0
   -2.2164   -1.5646   41.5657 C   0  0  0  0  0  0  0  0  0  0  0  0
   -3.2569   -0.9688   40.7299 C   0  0  0  0  0  0  0  0  0  0  0  0
   -4.3879   -1.1225   40.6959 Cl  0  0  0  0  0  0  0  0  0  0  0  0
  3  7  1  0
  5 13  1  0
 13 14  1  0
 14 15  1  0
 15 16  1  0
  1  2  2  0
  2  3  1  0
  3  4  2  0
  4  6  1  0
  6  5  2  0
  5  1  1  0
  7  8  2  0
  8 12  1  0
 12 11  2  0
 11 10  1  0
 10  9  2  0
  9  7  1  0
M  END
$$$$
O14757_PocketFlow_idx-in-all-generaetd-847
     RDKit          3D

 17 19  0  0  0  0  0  0  0  0999 V2000
   -0.6395   -2.0713   41.4947 C   0  0  0  0  0  0  0  0  0  0  0  0
    0.1859   -1.1027   41.5970 C   0  0  0  0  0  0  0  0  0  0  0  0
    1.5858   -1.4431   41.9548 C   0  0  0  0  0  0  0  0  0  0  0  0
   -0.3290   -3.4217   41.4987 C   0  0  0  0  0  0  0  0  0  0  0  0
    1.8173   -2.5063   42.3964 C   0  0  0  0  0  0  0  0  0  0  0  0
    0.8475   -3.6639   42.2213 C   0  0  0  0  0  0  0  0  0  0  0  0
    2.5386   -0.3322   42.2570 C   0  0  0  0  0  0  0  0  0  0  0  0
    2.4827    0.9627   41.7568 C   0  0  0  0  0  0  0  0  0  0  0  0
    3.9676   -0.7936   42.6398 C   0  0  0  0  0  0  0  0  0  0  0  0
    4.9300    0.1953   42.9459 C   0  0  0  0  0  0  0  0  0  0  0  0
    3.5387    1.8146   42.1805 N   0  0  0  0  0  0  0  0  0  0  0  0
    4.6750    1.3254   42.6478 C   0  0  0  0  0  0  0  0  0  0  0  0
   -1.9526   -1.7528   40.9825 N   0  0  0  0  0  0  0  0  0  0  0  0
   -2.6520   -0.6012   41.3124 C   0  0  0  0  0  0  0  0  0  0  0  0
   -2.7647   -2.7166   40.3680 C   0  0  0  0  0  0  0  0  0  0  0  0
   -3.8300   -0.3800   40.7953 N   0  0  0  0  0  0  0  0  0  0  0  0
   -4.0855   -1.6360   40.1515 C   0  0  0  0  0  0  0  0  0  0  0  0
  3  7  1  0
  1 13  1  0
 13 14  1  0
 13 15  1  0
 14 16  1  0
 15 17  2  0
 16 17  1  0
  7  8  2  0
  8 11  1  0
 11 12  2  0
 12 10  1  0
 10  9  2  0
  9  7  1  0
  1  2  2  0
  2  3  1  0
  3  5  2  0
  5  6  1  0
  6  4  2  0
  4  1  1  0
M  END
$$$$
O14757_PocketFlow_idx-in-all-generaetd-848
     RDKit          3D

 27 31  0  0  0  0  0  0  0  0999 V2000
   -0.6395   -2.0713   41.4947 C   0  0  0  0  0  0  0  0  0  0  0  0
   -0.2671   -3.2464   41.6546 C   0  0  0  0  0  0  0  0  0  0  0  0
    0.2277   -0.9875   41.6495 C   0  0  0  0  0  0  0  0  0  0  0  0
    1.6284   -1.2752   41.8841 C   0  0  0  0  0  0  0  0  0  0  0  0
    1.8971   -2.6873   42.1685 C   0  0  0  0  0  0  0  0  0  0  0  0
    0.9380   -3.6379   42.0922 C   0  0  0  0  0  0  0  0  0  0  0  0
    2.5765   -0.2838   42.1328 C   0  0  0  0  0  0  0  0  0  0  0  0
    3.8437   -0.6218   42.5176 N   0  0  0  0  0  0  0  0  0  0  0  0
    4.1138   -1.7592   43.1093 C   0  0  1  0  0  0  0  0  0  0  0  0
    3.1465   -2.8266   43.0096 C   0  0  1  0  0  0  0  0  0  0  0  0
    5.3384   -1.9939   43.6451 N   0  0  0  0  0  0  0  0  0  0  0  0
    5.4874   -2.8417   44.7627 C   0  0  0  0  0  0  0  0  0  0  0  0
    6.6348   -2.6337   45.5635 C   0  0  0  0  0  0  0  0  0  0  0  0
    6.9087   -3.6210   46.6009 C   0  0  0  0  0  0  0  0  0  0  0  0
    5.8496   -4.3877   47.0350 C   0  0  0  0  0  0  0  0  0  0  0  0
    4.6289   -4.3775   46.3528 C   0  0  0  0  0  0  0  0  0  0  0  0
    4.4803   -3.6002   45.2459 C   0  0  0  0  0  0  0  0  0  0  0  0
    3.2924   -3.8758   44.0532 C   0  0  0  0  0  0  0  0  0  0  0  0
   -2.0328   -1.6814   41.0168 C   0  0  0  0  0  0  0  0  0  0  0  0
   -2.8478   -2.5999   40.5212 N   0  0  0  0  0  0  0  0  0  0  0  0
   -2.5338   -0.4620   41.2421 N   0  0  0  0  0  0  0  0  0  0  0  0
   -3.8245   -0.4706   40.7433 C   0  0  0  0  0  0  0  0  0  0  0  0
   -3.9720   -1.8061   40.2714 C   0  0  0  0  0  0  0  0  0  0  0  0
    6.0708   -5.2286   48.2320 C   0  0  0  0  0  0  0  0  0  0  0  0
    6.1067   -4.4430   49.2893 F   0  0  0  0  0  0  0  0  0  0  0  0
    5.0317   -6.0314   48.4421 F   0  0  0  0  0  0  0  0  0  0  0  0
    7.2021   -5.8745   48.1913 F   0  0  0  0  0  0  0  0  0  0  0  0
  4  7  1  0
  7  8  1  0
  9  8  1  6
  5 10  1  0
  9 10  1  0
  9 11  1  0
 11 12  1  0
 10 18  1  1
 17 18  1  0
  1 19  1  0
 19 20  1  0
 19 21  2  0
 21 22  1  0
 20 23  1  0
 22 23  1  0
 15 24  1  0
 24 25  1  0
 24 26  1  0
 24 27  1  0
 12 13  2  0
 13 14  1  0
 14 15  2  0
 15 16  1  0
 16 17  2  0
 17 12  1  0
  1  2  2  0
  2  6  1  0
  6  5  2  0
  5  4  1  0
  4  3  2  0
  3  1  1  0
M  END
$$$$
O14757_PocketFlow_idx-in-all-generaetd-849
     RDKit          3D

 22 23  0  0  0  0  0  0  0  0999 V2000
   -0.6395   -2.0713   41.4947 C   0  0  0  0  0  0  0  0  0  0  0  0
    0.1859   -1.1027   41.5970 C   0  0  0  0  0  0  0  0  0  0  0  0
    1.5836   -1.3270   41.4669 C   0  0  0  0  0  0  0  0  0  0  0  0
    2.5750   -0.4224   42.0442 C   0  0  0  0  0  0  0  0  0  0  0  0
    3.8156   -0.8009   42.5363 C   0  0  0  0  0  0  0  0  0  0  0  0
    4.0115   -0.9328   43.9512 C   0  0  0  0  0  0  0  0  0  0  0  0
    5.4144   -1.2529   44.3387 C   0  0  0  0  0  0  0  0  0  0  0  0
   -0.0915   -3.3705   41.1278 C   0  0  0  0  0  0  0  0  0  0  0  0
    5.5955   -2.0792   45.5100 C   0  0  0  0  0  0  0  0  0  0  0  0
    4.5711   -2.7540   46.1054 C   0  0  0  0  0  0  0  0  0  0  0  0
    6.9557   -2.3330   45.9523 C   0  0  0  0  0  0  0  0  0  0  0  0
    7.3406   -3.3953   46.7350 C   0  0  0  0  0  0  0  0  0  0  0  0
    4.9636   -3.7472   47.1032 C   0  0  0  0  0  0  0  0  0  0  0  0
    6.2646   -3.9925   47.4620 C   0  0  0  0  0  0  0  0  0  0  0  0
   -0.9716   -4.4635   41.2838 C   0  0  0  0  0  0  0  0  0  0  0  0
    6.5324   -5.0434   48.4842 C   0  0  0  0  0  0  0  0  0  0  0  0
    7.3833   -5.8322   48.3290 O   0  0  0  0  0  0  0  0  0  0  0  0
    5.7766   -4.9775   49.5786 O   0  0  0  0  0  0  0  0  0  0  0  0
    1.7502   -2.6698   41.7615 C   0  0  0  0  0  0  0  0  0  0  0  0
    0.9794   -3.2649   40.5322 C   0  0  0  0  0  0  0  0  0  0  0  0
   -2.0001   -1.8382   41.5904 O   0  0  0  0  0  0  0  0  0  0  0  0
    4.7879   -1.0327   41.8164 O   0  0  0  0  0  0  0  0  0  0  0  0
  3  4  1  0
  4  5  1  0
  5  6  1  0
  6  7  1  0
  7  9  1  0
  8 15  1  0
 14 16  1  0
 16 17  2  0
 16 18  1  0
  1 21  1  0
  5 22  2  0
  9 10  2  0
 10 13  1  0
 13 14  2  0
 14 12  1  0
 12 11  2  0
 11  9  1  0
  1  2  2  0
  2  3  1  0
  3 19  2  0
 19 20  1  0
 20  8  2  0
  8  1  1  0
M  END
$$$$
O14757_PocketFlow_idx-in-all-generaetd-850
     RDKit          3D

 35 39  0  0  0  0  0  0  0  0999 V2000
   -0.6395   -2.0713   41.4947 C   0  0  0  0  0  0  0  0  0  0  0  0
   -0.2671   -3.2464   41.6546 C   0  0  0  0  0  0  0  0  0  0  0  0
    0.2407   -0.9706   41.5952 C   0  0  0  0  0  0  0  0  0  0  0  0
    1.6195   -1.2958   41.8767 C   0  0  0  0  0  0  0  0  0  0  0  0
    1.9162   -2.6816   42.2016 C   0  0  0  0  0  0  0  0  0  0  0  0
    3.2242   -2.9142   42.7890 C   0  0  0  0  0  0  0  0  0  0  0  0
    0.9779   -3.6270   42.0792 C   0  0  0  0  0  0  0  0  0  0  0  0
    4.0925   -1.8460   43.1429 C   0  0  0  0  0  0  0  0  0  0  0  0
    5.1932   -2.0867   43.9798 C   0  0  0  0  0  0  0  0  0  0  0  0
    5.1882   -2.4048   45.1608 C   0  0  0  0  0  0  0  0  0  0  0  0
    4.0315   -2.7768   45.9359 C   0  0  0  0  0  0  0  0  0  0  0  0
    2.9864   -3.2917   45.3727 C   0  0  0  0  0  0  0  0  0  0  0  0
    2.5259   -3.2153   44.0071 C   0  0  0  0  0  0  0  0  0  0  0  0
   -2.0233   -1.6770   41.0170 C   0  0  0  0  0  0  0  0  0  0  0  0
   -2.7721   -2.5652   40.5406 O   0  0  0  0  0  0  0  0  0  0  0  0
   -2.5272   -0.5141   41.4235 O   0  0  0  0  0  0  0  0  0  0  0  0
    6.4552   -2.2241   46.0353 C   0  0  0  0  0  0  0  0  0  0  0  0
    7.4812   -1.3647   45.6171 C   0  0  0  0  0  0  0  0  0  0  0  0
    8.7250   -1.4028   46.2432 C   0  0  0  0  0  0  0  0  0  0  0  0
    9.0328   -2.2251   47.2460 C   0  0  0  0  0  0  0  0  0  0  0  0
    8.0432   -3.1575   47.6896 C   0  0  0  0  0  0  0  0  0  0  0  0
    6.7897   -3.2158   47.0236 C   0  0  0  0  0  0  0  0  0  0  0  0
    8.3461   -4.1378   48.7428 C   0  0  0  0  0  0  0  0  0  0  0  0
    7.3790   -4.8225   49.1817 C   0  0  0  0  0  0  0  0  0  0  0  0
    6.0774   -4.8739   48.5014 C   0  0  0  0  0  0  0  0  0  0  0  0
    5.8151   -4.0559   47.5166 C   0  0  0  0  0  0  0  0  0  0  0  0
    9.6152   -3.9826   49.4470 C   0  0  2  0  0  0  0  0  0  0  0  0
    9.6999   -3.0952   50.4667 C   0  0  0  0  0  0  0  0  0  0  0  0
    8.6261   -2.5909   51.1494 C   0  0  0  0  0  0  0  0  0  0  0  0
    8.7466   -1.5679   52.2040 C   0  0  0  0  0  0  0  0  0  0  0  0
    9.9361   -0.9633   52.3786 C   0  0  0  0  0  0  0  0  0  0  0  0
   11.0560   -1.2564   51.7087 C   0  0  0  0  0  0  0  0  0  0  0  0
   10.9631   -2.3403   50.7136 C   0  0  0  0  0  0  0  0  0  0  0  0
   10.7884   -3.9847   48.4194 C   0  0  0  0  0  0  0  0  0  0  0  0
   11.8002   -4.8890   48.8653 C   0  0  0  0  0  0  0  0  0  0  0  0
  5  6  1  0
  6  8  2  0
  8  9  1  0
  9 10  2  0
 10 11  1  0
 11 12  1  0
  6 13  1  0
 12 13  2  0
  1 14  1  0
 14 15  2  0
 14 16  1  0
 10 17  1  0
 23 27  1  0
 27 28  1  0
 27 34  1  6
 34 35  1  0
  1  2  2  0
  2  7  1  0
  7  5  2  0
  5  4  1  0
  4  3  2  0
  3  1  1  0
 22 26  2  0
 26 25  1  0
 25 24  2  0
 24 23  1  0
 23 21  2  0
 17 18  2  0
 18 19  1  0
 19 20  2  0
 20 21  1  0
 21 22  1  0
 22 17  1  0
 28 29  2  0
 29 30  1  0
 30 31  2  0
 31 32  1  0
 32 33  2  0
 33 28  1  0
M  END
$$$$
O14757_PocketFlow_idx-in-all-generaetd-851
     RDKit          3D

 17 17  0  0  0  0  0  0  0  0999 V2000
   -0.6395   -2.0713   41.4947 C   0  0  0  0  0  0  0  0  0  0  0  0
   -0.2671   -3.2464   41.6546 C   0  0  0  0  0  0  0  0  0  0  0  0
    0.2407   -0.9706   41.5952 C   0  0  0  0  0  0  0  0  0  0  0  0
    1.6195   -1.2958   41.8767 C   0  0  0  0  0  0  0  0  0  0  0  0
    1.9162   -2.6816   42.2016 C   0  0  0  0  0  0  0  0  0  0  0  0
    0.9422   -3.6324   42.1156 C   0  0  0  0  0  0  0  0  0  0  0  0
    2.6136   -0.2815   42.1191 C   0  0  0  0  0  0  0  0  0  0  0  0
    3.9096   -0.5773   42.5950 C   0  0  0  0  0  0  0  0  0  0  0  0
    4.9367    0.3662   42.6897 C   0  0  0  0  0  0  0  0  0  0  0  0
   -2.0959   -1.9689   41.1090 C   0  0  0  0  0  0  0  0  0  0  0  0
   -2.6821   -0.8178   41.3423 O   0  0  0  0  0  0  0  0  0  0  0  0
   -2.6786   -2.7687   40.3223 O   0  0  0  0  0  0  0  0  0  0  0  0
    4.1623   -1.8433   43.2133 C   0  0  0  0  0  0  0  0  0  0  0  0
    4.7367   -1.9509   44.5277 C   0  0  0  0  0  0  0  0  0  0  0  0
    4.6468   -2.9781   45.4106 C   0  0  0  0  0  0  0  0  0  0  0  0
    5.4334   -2.9560   46.5528 C   0  0  0  0  0  0  0  0  0  0  0  0
    5.3487   -4.0485   47.4447 C   0  0  0  0  0  0  0  0  0  0  0  0
  4  7  1  0
  7  8  2  3
  8  9  1  0
  1 10  1  0
 10 11  2  0
 10 12  1  0
  8 13  1  0
 13 14  1  0
 14 15  1  0
 15 16  2  3
 16 17  1  0
  1  2  2  0
  2  6  1  0
  6  5  2  0
  5  4  1  0
  4  3  2  0
  3  1  1  0
M  END
$$$$
O14757_PocketFlow_idx-in-all-generaetd-852
     RDKit          3D

 12 12  0  0  0  0  0  0  0  0999 V2000
   -0.6395   -2.0713   41.4947 C   0  0  0  0  0  0  0  0  0  0  0  0
    0.1859   -1.1027   41.5970 C   0  0  0  0  0  0  0  0  0  0  0  0
    1.5836   -1.3270   41.4670 C   0  0  0  0  0  0  0  0  0  0  0  0
   -0.2462   -3.3905   41.2409 C   0  0  0  0  0  0  0  0  0  0  0  0
    2.0075   -2.6977   41.3341 C   0  0  0  0  0  0  0  0  0  0  0  0
    1.0655   -3.6470   41.1373 C   0  0  0  0  0  0  0  0  0  0  0  0
    2.4818   -0.3899   41.6447 F   0  0  0  0  0  0  0  0  0  0  0  0
   -2.0304   -1.8328   41.6063 O   0  0  0  0  0  0  0  0  0  0  0  0
   -2.8001   -1.9615   40.4981 C   0  0  0  0  0  0  0  0  0  0  0  0
   -3.7787   -0.8477   40.3629 C   0  0  0  0  0  0  0  0  0  0  0  0
   -3.6202    0.4167   41.2323 Cl  0  0  0  0  0  0  0  0  0  0  0  0
   -4.6927   -0.9988   39.4611 O   0  0  0  0  0  0  0  0  0  0  0  0
  3  7  1  0
  1  8  1  0
  8  9  1  0
  9 10  1  0
 10 11  1  0
 10 12  2  0
  1  2  2  0
  2  3  1  0
  3  5  2  0
  5  6  1  0
  6  4  2  0
  4  1  1  0
M  END
$$$$
O14757_PocketFlow_idx-in-all-generaetd-853
     RDKit          3D

  9  8  0  0  0  0  0  0  0  0999 V2000
    0.2881   -2.9111   42.4378 C   0  0  0  0  0  0  0  0  0  0  0  0
   -0.0650   -2.5021   41.5798 C   0  0  0  0  0  0  0  0  0  0  0  0
    1.5584   -2.5265   43.0885 C   0  0  2  0  0  0  0  0  0  0  0  0
    2.2470   -3.1944   44.1996 C   0  0  0  0  0  0  0  0  0  0  0  0
    1.4410   -4.2396   44.8032 C   0  0  0  0  0  0  0  0  0  0  0  0
    1.9092   -4.8204   45.9844 C   0  0  0  0  0  0  0  0  0  0  0  0
    0.3906   -1.1684   41.1585 C   0  0  0  0  0  0  0  0  0  0  0  0
    1.9816   -1.2596   42.5074 C   0  0  0  0  0  0  0  0  0  0  0  0
    3.2968   -0.7021   43.0962 C   0  0  0  0  0  0  0  0  0  0  0  0
  1  2  2  3
  1  3  1  0
  3  4  1  1
  4  5  1  0
  5  6  1  0
  2  7  1  0
  3  8  1  0
  8  9  2  0
M  END
$$$$
O14757_PocketFlow_idx-in-all-generaetd-854
     RDKit          3D

 18 19  0  0  0  0  0  0  0  0999 V2000
    0.0138   -2.7927   42.5918 N   0  0  0  0  0  0  0  0  0  0  0  0
    1.1722   -3.1858   42.8673 C   0  0  0  0  0  0  0  0  0  0  0  0
    1.4725   -4.0593   43.8477 C   0  0  0  0  0  0  0  0  0  0  0  0
    0.4760   -4.9535   44.3016 C   0  0  0  0  0  0  0  0  0  0  0  0
    0.6427   -5.3548   45.6747 C   0  0  0  0  0  0  0  0  0  0  0  0
   -0.4513   -6.1811   46.1641 C   0  0  0  0  0  0  0  0  0  0  0  0
   -0.1755   -1.7945   41.6743 C   0  0  0  0  0  0  0  0  0  0  0  0
    0.6152   -1.0033   41.4813 N   0  0  0  0  0  0  0  0  0  0  0  0
    1.9011   -1.0585   41.9587 C   0  0  0  0  0  0  0  0  0  0  0  0
    2.1982   -2.2196   42.7535 C   0  0  0  0  0  0  0  0  0  0  0  0
   -1.4941   -1.4217   41.2231 N   0  0  0  0  0  0  0  0  0  0  0  0
    3.5139   -2.4595   43.2304 C   0  0  0  0  0  0  0  0  0  0  0  0
    4.6475   -1.4567   43.2139 C   0  0  0  0  0  0  0  0  0  0  0  0
    5.6543   -1.5157   44.1378 C   0  0  0  0  0  0  0  0  0  0  0  0
    5.8017   -2.6895   44.9579 C   0  0  0  0  0  0  0  0  0  0  0  0
    4.7225   -3.6535   44.9210 C   0  0  0  0  0  0  0  0  0  0  0  0
    3.6213   -3.4719   44.1977 C   0  0  0  0  0  0  0  0  0  0  0  0
    2.5697   -4.2681   44.4101 N   0  0  0  0  0  0  0  0  0  0  0  0
  2  3  1  0
  3  4  1  0
  4  5  2  3
  5  6  1  0
  7 11  1  0
 10 12  1  0
  3 18  2  3
 12 13  2  0
 13 14  1  0
 14 15  2  0
 15 16  1  0
 16 17  2  0
 17 12  1  0
  1  2  2  0
  2 10  1  0
 10  9  2  0
  9  8  1  0
  8  7  2  0
  7  1  1  0
M  END
$$$$
O14757_PocketFlow_idx-in-all-generaetd-855
     RDKit          3D

 18 19  0  0  0  0  0  0  0  0999 V2000
   -0.6395   -2.0713   41.4947 C   0  0  0  0  0  0  0  0  0  0  0  0
    0.6719   -2.2449   41.7518 C   0  0  0  0  0  0  0  0  0  0  0  0
    1.5951   -1.1948   41.6106 C   0  0  0  0  0  0  0  0  0  0  0  0
    2.9587   -1.3961   42.0240 C   0  0  0  0  0  0  0  0  0  0  0  0
    3.1652   -2.3460   43.1085 C   0  0  0  0  0  0  0  0  0  0  0  0
    2.2115   -3.3199   43.4243 C   0  0  0  0  0  0  0  0  0  0  0  0
    0.9094   -3.1578   42.8194 C   0  0  0  0  0  0  0  0  0  0  0  0
    4.4664   -2.5043   43.7318 C   0  0  0  0  0  0  0  0  0  0  0  0
    5.3472   -1.3753   43.8537 C   0  0  0  0  0  0  0  0  0  0  0  0
    6.4813   -1.4754   44.6684 C   0  0  0  0  0  0  0  0  0  0  0  0
    6.6864   -2.6243   45.4952 C   0  0  0  0  0  0  0  0  0  0  0  0
    5.7046   -3.6522   45.4286 C   0  0  0  0  0  0  0  0  0  0  0  0
    4.6190   -3.5705   44.6239 C   0  0  0  0  0  0  0  0  0  0  0  0
   -1.3078   -1.0129   41.4869 O   0  0  0  0  0  0  0  0  0  0  0  0
   -1.3974   -3.1225   40.9377 O   0  0  0  0  0  0  0  0  0  0  0  0
    7.9144   -2.6579   46.3031 C   0  0  0  0  0  0  0  0  0  0  0  0
    8.2560   -3.9433   46.9150 C   0  0  0  0  0  0  0  0  0  0  0  0
    9.4327   -3.9127   47.6879 C   0  0  0  0  0  0  0  0  0  0  0  0
  1  2  1  0
  5  8  1  0
  1 14  2  0
  1 15  1  0
 11 16  1  0
 16 17  2  3
 17 18  1  0
  2  3  2  0
  3  4  1  0
  4  5  2  0
  5  6  1  0
  6  7  2  0
  7  2  1  0
  8  9  2  0
  9 10  1  0
 10 11  2  0
 11 12  1  0
 12 13  2  0
 13  8  1  0
M  END
$$$$
O14757_PocketFlow_idx-in-all-generaetd-856
     RDKit          3D

 31 34  0  0  0  0  0  0  0  0999 V2000
   -0.6395   -2.0713   41.4947 C   0  0  0  0  0  0  0  0  0  0  0  0
    0.6719   -2.2449   41.7518 C   0  0  0  0  0  0  0  0  0  0  0  0
    1.5951   -1.1948   41.6106 C   0  0  0  0  0  0  0  0  0  0  0  0
    2.8936   -1.2860   42.2441 C   0  0  0  0  0  0  0  0  0  0  0  0
    3.2021   -2.2591   43.1862 C   0  0  0  0  0  0  0  0  0  0  0  0
    2.2602   -3.3290   43.4161 C   0  0  0  0  0  0  0  0  0  0  0  0
    0.9345   -3.1830   42.7957 C   0  0  0  0  0  0  0  0  0  0  0  0
    4.3192   -2.5064   44.0106 C   0  0  0  0  0  0  0  0  0  0  0  0
    4.5656   -3.5374   44.8717 C   0  0  0  0  0  0  0  0  0  0  0  0
    3.5517   -4.5128   44.9445 C   0  0  0  0  0  0  0  0  0  0  0  0
    2.3853   -4.4017   44.2828 C   0  0  0  0  0  0  0  0  0  0  0  0
   -1.3876   -3.0538   41.0950 O   0  0  0  0  0  0  0  0  0  0  0  0
   -1.1124   -0.7737   41.2097 O   0  0  0  0  0  0  0  0  0  0  0  0
    5.4473   -1.4377   43.8379 C   0  0  1  0  0  0  0  0  0  0  0  0
    5.2255   -0.3118   43.2495 N   0  0  0  0  0  0  0  0  0  0  0  0
    6.5208   -1.7258   44.4530 F   0  0  0  0  0  0  0  0  0  0  0  0
    1.3473   -5.3917   44.4181 C   0  0  0  0  0  0  0  0  0  0  0  0
    1.5243   -6.7020   44.7823 C   0  0  0  0  0  0  0  0  0  0  0  0
    0.4338   -7.5507   45.0685 C   0  0  0  0  0  0  0  0  0  0  0  0
   -0.8858   -7.0297   44.8032 C   0  0  0  0  0  0  0  0  0  0  0  0
   -1.0202   -5.7347   44.2178 C   0  0  0  0  0  0  0  0  0  0  0  0
    0.0885   -4.9235   44.1094 C   0  0  0  0  0  0  0  0  0  0  0  0
   -2.0161   -7.8920   44.9704 C   0  0  0  0  0  0  0  0  0  0  0  0
   -2.8807   -8.0659   44.1139 O   0  0  0  0  0  0  0  0  0  0  0  0
   -2.2403   -8.4154   46.2250 N   0  0  0  0  0  0  0  0  0  0  0  0
   -3.2436   -9.1781   46.6292 C   0  0  0  0  0  0  0  0  0  0  0  0
   -3.0101  -10.4792   46.8038 C   0  0  0  0  0  0  0  0  0  0  0  0
   -4.0195  -11.3795   46.8518 C   0  0  0  0  0  0  0  0  0  0  0  0
   -4.5233   -8.6354   46.6429 C   0  0  0  0  0  0  0  0  0  0  0  0
   -5.6693   -9.4805   46.8034 C   0  0  0  0  0  0  0  0  0  0  0  0
   -5.4239  -10.8323   47.0478 C   0  0  0  0  0  0  0  0  0  0  0  0
  1  2  1  0
  1 12  2  0
  1 13  1  0
  8 14  1  0
 14 15  1  1
 14 16  1  0
 11 17  1  0
 20 23  1  0
 23 24  2  0
 23 25  1  0
 25 26  1  0
  6 11  1  0
 11 10  2  0
 10  9  1  0
  9  8  2  0
  8  5  1  0
  2  3  2  0
  3  4  1  0
  4  5  2  0
  5  6  1  0
  6  7  2  0
  7  2  1  0
 17 18  2  0
 18 19  1  0
 19 20  2  0
 20 21  1  0
 21 22  2  0
 22 17  1  0
 26 27  2  0
 27 28  1  0
 28 31  2  0
 31 30  1  0
 30 29  2  0
 29 26  1  0
M  END
$$$$
O14757_PocketFlow_idx-in-all-generaetd-857
     RDKit          3D

 33 36  0  0  0  0  0  0  0  0999 V2000
   -0.6395   -2.0713   41.4947 C   0  0  0  0  0  0  0  0  0  0  0  0
    0.1859   -1.1027   41.5970 C   0  0  0  0  0  0  0  0  0  0  0  0
    1.5836   -1.3270   41.4669 C   0  0  0  0  0  0  0  0  0  0  0  0
   -0.2462   -3.3905   41.2409 C   0  0  0  0  0  0  0  0  0  0  0  0
    2.5675   -0.3472   41.7943 C   0  0  0  0  0  0  0  0  0  0  0  0
    3.8546   -0.6776   42.2362 C   0  0  0  0  0  0  0  0  0  0  0  0
    3.9971   -0.8191   43.6382 C   0  0  0  0  0  0  0  0  0  0  0  0
    5.3531   -1.1327   44.1210 C   0  0  0  0  0  0  0  0  0  0  0  0
    1.0964   -3.5891   41.1569 N   0  0  0  0  0  0  0  0  0  0  0  0
    1.9649   -2.5858   41.2780 C   0  0  0  0  0  0  0  0  0  0  0  0
    5.5726   -2.0486   45.0774 C   0  0  0  0  0  0  0  0  0  0  0  0
    6.8398   -2.3802   45.4509 C   0  0  0  0  0  0  0  0  0  0  0  0
    7.0948   -3.4208   46.3875 C   0  0  0  0  0  0  0  0  0  0  0  0
    6.0050   -3.9363   47.0703 C   0  0  0  0  0  0  0  0  0  0  0  0
    4.6821   -3.5862   46.6876 C   0  0  0  0  0  0  0  0  0  0  0  0
    4.4832   -2.6321   45.7450 C   0  0  0  0  0  0  0  0  0  0  0  0
   -2.0316   -1.8858   41.5801 O   0  0  0  0  0  0  0  0  0  0  0  0
    6.2151   -4.9961   48.1164 C   0  0  0  0  0  0  0  0  0  0  0  0
    6.7728   -4.5836   49.2471 N   0  0  0  0  0  0  0  0  0  0  0  0
    5.7636   -6.1422   48.0091 O   0  0  0  0  0  0  0  0  0  0  0  0
    7.3996   -3.3123   49.5174 C   0  0  0  0  0  0  0  0  0  0  0  0
    8.8311   -3.2128   49.3730 C   0  0  0  0  0  0  0  0  0  0  0  0
    9.5406   -3.2506   50.5148 C   0  0  0  0  0  0  0  0  0  0  0  0
    8.8778   -3.3704   51.8086 C   0  0  0  0  0  0  0  0  0  0  0  0
    7.8232   -2.4308   51.9178 C   0  0  0  0  0  0  0  0  0  0  0  0
    7.0426   -2.9468   51.0438 C   0  0  0  0  0  0  0  0  0  0  0  0
   -2.8029   -2.0082   40.4870 C   0  0  0  0  0  0  0  0  0  0  0  0
   11.0288   -3.4428   50.5069 C   0  0  0  0  0  0  0  0  0  0  0  0
   11.7617   -3.0743   51.1044 C   0  0  0  0  0  0  0  0  0  0  0  0
   13.2265   -3.2890   51.0524 C   0  0  0  0  0  0  0  0  0  0  0  0
   13.6463   -4.0022   49.9676 C   0  0  0  0  0  0  0  0  0  0  0  0
   11.4603   -4.2259   49.3229 C   0  0  0  0  0  0  0  0  0  0  0  0
   12.7296   -4.4939   49.1210 C   0  0  0  0  0  0  0  0  0  0  0  0
  3  5  1  0
  5  6  1  0
  6  7  1  0
  7  8  2  3
  8 11  1  0
  1 17  1  0
 14 18  1  0
 18 19  1  0
 18 20  2  0
 19 21  1  0
 17 27  1  0
 23 28  1  0
 11 12  2  0
 12 13  1  0
 13 14  2  0
 14 15  1  0
 15 16  2  0
 16 11  1  0
 28 29  2  0
 29 30  1  0
 30 31  2  0
 31 33  1  0
 33 32  2  0
 32 28  1  0
  1  2  2  0
  2  3  1  0
  3 10  2  0
 10  9  1  0
  9  4  2  0
  4  1  1  0
 21 22  2  0
 22 23  1  0
 23 24  2  0
 24 25  1  0
 25 26  2  0
 26 21  1  0
M  END
$$$$
O14757_PocketFlow_idx-in-all-generaetd-858
     RDKit          3D

 15 17  0  0  0  0  0  0  0  0999 V2000
   -0.6395   -2.0713   41.4947 C   0  0  0  0  0  0  0  0  0  0  0  0
    0.1859   -1.1027   41.5970 C   0  0  0  0  0  0  0  0  0  0  0  0
    1.5836   -1.3270   41.4669 C   0  0  0  0  0  0  0  0  0  0  0  0
    2.5750   -0.4224   42.0442 C   0  0  0  0  0  0  0  0  0  0  0  0
    3.8156   -0.8009   42.5363 C   0  0  0  0  0  0  0  0  0  0  0  0
    3.8954   -2.0001   43.3166 C   0  0  0  0  0  0  0  0  0  0  0  0
    5.0429   -2.2792   44.1196 C   0  0  0  0  0  0  0  0  0  0  0  0
   -0.1369   -3.3836   41.1461 C   0  0  0  0  0  0  0  0  0  0  0  0
    5.0648   -3.4926   44.8866 C   0  0  0  0  0  0  0  0  0  0  0  0
    4.0341   -4.4431   44.6856 C   0  0  0  0  0  0  0  0  0  0  0  0
    2.8957   -4.0774   43.9702 C   0  0  0  0  0  0  0  0  0  0  0  0
    2.8400   -2.8522   43.2763 C   0  0  0  0  0  0  0  0  0  0  0  0
    1.2068   -3.5727   40.9343 C   0  0  0  0  0  0  0  0  0  0  0  0
    2.0252   -2.5710   41.1927 C   0  0  0  0  0  0  0  0  0  0  0  0
    2.3381   -2.9352   42.0332 N   0  0  0  0  0  0  0  0  0  0  0  0
  3  4  1  0
  4  5  1  0
 12 15  1  0
 14 15  1  0
  5  6  1  0
  6  7  2  0
  7  9  1  0
  9 10  2  0
 10 11  1  0
 11 12  2  0
 12  6  1  0
  1  2  2  0
  2  3  1  0
  3 14  2  0
 14 13  1  0
 13  8  2  0
  8  1  1  0
M  END
$$$$
O14757_PocketFlow_idx-in-all-generaetd-859
     RDKit          3D

 11 11  0  0  0  0  0  0  0  0999 V2000
   -0.6395   -2.0713   41.4947 C   0  0  0  0  0  0  0  0  0  0  0  0
   -0.2671   -3.2464   41.6546 C   0  0  0  0  0  0  0  0  0  0  0  0
    0.2407   -0.9706   41.5952 C   0  0  0  0  0  0  0  0  0  0  0  0
    1.6195   -1.2958   41.8767 C   0  0  0  0  0  0  0  0  0  0  0  0
    1.9162   -2.6816   42.2016 C   0  0  0  0  0  0  0  0  0  0  0  0
    0.9422   -3.6324   42.1156 C   0  0  0  0  0  0  0  0  0  0  0  0
    2.6088   -0.2775   42.1300 C   0  0  0  0  0  0  0  0  0  0  0  0
    3.9059   -0.5876   42.5995 C   0  0  0  0  0  0  0  0  0  0  0  0
    4.1036   -1.8148   43.2659 C   0  0  0  0  0  0  0  0  0  0  0  0
    5.2154   -2.1376   44.0733 C   0  0  0  0  0  0  0  0  0  0  0  0
    5.2877   -3.3433   44.7812 C   0  0  0  0  0  0  0  0  0  0  0  0
  4  7  1  0
  7  8  2  3
  8  9  1  0
  9 10  1  0
 10 11  2  0
  1  2  2  0
  2  6  1  0
  6  5  2  0
  5  4  1  0
  4  3  2  0
  3  1  1  0
M  END
$$$$
O14757_PocketFlow_idx-in-all-generaetd-860
     RDKit          3D

 24 26  0  0  0  0  0  0  0  0999 V2000
   -0.6395   -2.0713   41.4947 C   0  0  0  0  0  0  0  0  0  0  0  0
    0.6719   -2.2449   41.7518 C   0  0  0  0  0  0  0  0  0  0  0  0
    1.3815   -1.6359   42.7231 C   0  0  0  0  0  0  0  0  0  0  0  0
   -1.3884   -2.9047   40.6798 C   0  0  0  0  0  0  0  0  0  0  0  0
    2.7413   -2.0881   43.0207 C   0  0  0  0  0  0  0  0  0  0  0  0
    3.4391   -1.9031   44.1399 C   0  0  0  0  0  0  0  0  0  0  0  0
    4.8763   -2.2739   44.0808 C   0  0  0  0  0  0  0  0  0  0  0  0
    5.7935   -1.6367   44.7863 C   0  0  0  0  0  0  0  0  0  0  0  0
    7.0718   -2.2324   44.9521 C   0  0  0  0  0  0  0  0  0  0  0  0
    7.3993   -2.5736   46.4161 C   0  0  0  0  0  0  0  0  0  0  0  0
    6.5726   -3.5812   47.0153 C   0  0  0  0  0  0  0  0  0  0  0  0
    6.9914   -4.0721   48.2404 C   0  0  0  0  0  0  0  0  0  0  0  0
    6.0047   -4.8548   48.9788 C   0  0  0  0  0  0  0  0  0  0  0  0
    6.0378   -6.1564   48.7148 C   0  0  0  0  0  0  0  0  0  0  0  0
    7.0938   -6.8462   48.4551 C   0  0  0  0  0  0  0  0  0  0  0  0
    8.3673   -6.1554   48.4039 C   0  0  0  0  0  0  0  0  0  0  0  0
    8.3324   -4.9041   47.9556 C   0  0  0  0  0  0  0  0  0  0  0  0
   -2.7000   -2.6156   40.6030 N   0  0  0  0  0  0  0  0  0  0  0  0
   -3.1374   -1.3540   40.6232 C   0  0  0  0  0  0  0  0  0  0  0  0
   -2.4024   -0.3963   41.2842 C   0  0  0  0  0  0  0  0  0  0  0  0
   -1.1165   -0.6761   41.6152 C   0  0  0  0  0  0  0  0  0  0  0  0
   -4.4217   -1.1388   40.2632 N   0  0  0  0  0  0  0  0  0  0  0  0
    8.8289   -4.5246   46.6342 C   0  0  0  0  0  0  0  0  0  0  0  0
    8.9790   -3.0992   46.3356 C   0  0  0  0  0  0  0  0  0  0  0  0
  1  2  1  0
  2  3  2  3
  3  5  1  0
  5  6  2  3
  6  7  1  0
  7  8  1  0
  8  9  1  0
  9 10  1  0
 19 22  1  0
 12 13  2  0
 13 14  1  0
 14 15  2  0
 15 16  1  0
 16 17  2  0
  1  4  2  0
  4 18  1  0
 18 19  2  0
 19 20  1  0
 20 21  2  0
 21  1  1  0
 10 11  2  0
 11 12  1  0
 12 17  1  0
 17 23  1  0
 23 24  2  0
 24 10  1  0
M  END
$$$$
O14757_PocketFlow_idx-in-all-generaetd-861
     RDKit          3D

 31 35  0  0  0  0  0  0  0  0999 V2000
    0.2881   -2.9111   42.4378 C   0  0  0  0  0  0  0  0  0  0  0  0
   -0.0650   -2.5020   41.5798 C   0  0  0  0  0  0  0  0  0  0  0  0
    0.3903   -4.2958   42.8988 C   0  0  0  0  0  0  0  0  0  0  0  0
    0.9283   -4.7375   44.0590 C   0  0  0  0  0  0  0  0  0  0  0  0
    1.8430   -3.7864   44.6834 C   0  0  0  0  0  0  0  0  0  0  0  0
    0.0683   -1.0389   41.2168 C   0  0  2  0  0  0  0  0  0  0  0  0
    2.1679   -2.6058   44.0572 C   0  0  0  0  0  0  0  0  0  0  0  0
    1.4762   -2.1784   42.9196 C   0  0  0  0  0  0  0  0  0  0  0  0
    1.5968   -0.8723   42.4274 C   0  0  1  0  0  0  0  0  0  0  0  0
    2.4670   -0.8320   41.1350 C   0  0  0  0  0  0  0  0  0  0  0  0
    0.4248   -0.0593   42.3159 O   0  0  0  0  0  0  0  0  0  0  0  0
   -1.2440   -0.4198   41.1371 O   0  0  0  0  0  0  0  0  0  0  0  0
    0.7528   -6.0479   44.6170 C   0  0  0  0  0  0  0  0  0  0  0  0
   -0.2010   -6.6313   44.3676 O   0  0  0  0  0  0  0  0  0  0  0  0
    1.8894   -6.6976   45.1617 N   0  0  0  0  0  0  0  0  0  0  0  0
    1.7888   -8.0301   45.6958 C   0  0  0  0  0  0  0  0  0  0  0  0
    2.9102   -8.3036   46.5685 C   0  0  2  0  0  0  0  0  0  0  0  0
    3.8904   -7.3916   46.7861 C   0  0  0  0  0  0  0  0  0  0  0  0
    3.8161   -6.0709   46.2000 C   0  0  0  0  0  0  0  0  0  0  0  0
    2.8787   -5.8025   45.4755 C   0  0  2  0  0  0  0  0  0  0  0  0
    2.8160   -4.4999   45.1205 N   0  0  0  0  0  0  0  0  0  0  0  0
    3.0645   -9.6934   47.0718 C   0  0  0  0  0  0  0  0  0  0  0  0
    2.0819  -10.2872   47.1885 O   0  0  0  0  0  0  0  0  0  0  0  0
    4.3198  -10.3074   46.9531 N   0  0  0  0  0  0  0  0  0  0  0  0
    4.5884  -11.6062   47.4667 C   0  0  0  0  0  0  0  0  0  0  0  0
    5.9794  -11.9805   47.2240 C   0  0  0  0  0  0  0  0  0  0  0  0
    6.3503  -13.1362   46.9372 C   0  0  0  0  0  0  0  0  0  0  0  0
    7.6747  -13.4287   46.4415 C   0  0  0  0  0  0  0  0  0  0  0  0
    8.6234  -12.4008   46.3270 C   0  0  0  0  0  0  0  0  0  0  0  0
    8.2158  -11.0963   46.6458 C   0  0  0  0  0  0  0  0  0  0  0  0
    6.9011  -10.8560   47.0118 C   0  0  0  0  0  0  0  0  0  0  0  0
  1  2  1  0
  2  6  1  0
  8  9  1  0
  9 10  1  6
  6 11  1  0
  9 11  1  0
  6 12  1  1
  4 13  1  0
 13 14  2  0
 13 15  1  0
 15 16  1  0
 16 17  1  0
 18 19  1  0
 15 20  1  0
 20 19  1  1
  5 21  1  0
 20 21  1  0
 17 22  1  6
 22 23  2  0
 22 24  1  0
 24 25  1  0
 25 26  1  0
 17 18  1  0
  1  3  2  0
  3  4  1  0
  4  5  2  0
  5  7  1  0
  7  8  2  0
  8  1  1  0
 26 27  2  0
 27 28  1  0
 28 29  2  0
 29 30  1  0
 30 31  2  0
 31 26  1  0
M  END
$$$$
O14757_PocketFlow_idx-in-all-generaetd-862
     RDKit          3D

  9  9  0  0  0  0  0  0  0  0999 V2000
    0.0138   -2.7927   42.5918 N   0  0  0  0  0  0  0  0  0  0  0  0
    1.1722   -3.1858   42.8673 C   0  0  1  0  0  0  0  0  0  0  0  0
    2.1754   -2.1627   42.4478 C   0  0  0  0  0  0  0  0  0  0  0  0
    1.5155   -1.1487   41.6439 C   0  0  0  0  0  0  0  0  0  0  0  0
    2.0917    0.0807   41.3283 C   0  0  0  0  0  0  0  0  0  0  0  0
    0.1005   -1.6179   41.8352 C   0  0  0  0  0  0  0  0  0  0  0  0
    1.5041   -4.2591   43.8149 C   0  0  0  0  0  0  0  0  0  0  0  0
    1.3990   -4.9187   44.7739 C   0  0  0  0  0  0  0  0  0  0  0  0
    0.4777   -5.2376   45.7401 C   0  0  0  0  0  0  0  0  0  0  0  0
  1  2  1  0
  2  3  1  0
  3  4  1  0
  4  5  2  0
  1  6  2  0
  4  6  1  0
  2  7  1  1
  7  8  3  0
  8  9  1  0
M  END
$$$$
O14757_PocketFlow_idx-in-all-generaetd-863
     RDKit          3D

 11 11  0  0  0  0  0  0  0  0999 V2000
   -0.6395   -2.0713   41.4947 C   0  0  0  0  0  0  0  0  0  0  0  0
    0.6719   -2.2449   41.7518 C   0  0  0  0  0  0  0  0  0  0  0  0
    1.5951   -1.1948   41.6106 C   0  0  0  0  0  0  0  0  0  0  0  0
    2.8936   -1.2860   42.2441 C   0  0  0  0  0  0  0  0  0  0  0  0
    3.7940   -0.2219   42.2897 C   0  0  0  0  0  0  0  0  0  0  0  0
   -1.5784   -3.1018   41.3985 C   0  0  0  0  0  0  0  0  0  0  0  0
    4.9967   -0.3723   43.0615 C   0  0  0  0  0  0  0  0  0  0  0  0
    5.2691   -1.5132   43.7867 C   0  0  0  0  0  0  0  0  0  0  0  0
    4.3008   -2.5888   43.7317 C   0  0  0  0  0  0  0  0  0  0  0  0
    3.1152   -2.4074   43.0118 C   0  0  0  0  0  0  0  0  0  0  0  0
   -0.9276   -4.3457   41.4020 N   0  0  0  0  0  0  0  0  0  0  0  0
  1  2  1  0
  2  3  1  0
  3  4  1  0
  1  6  2  3
  6 11  1  0
  4  5  2  0
  5  7  1  0
  7  8  2  0
  8  9  1  0
  9 10  2  0
 10  4  1  0
M  END
$$$$
O14757_PocketFlow_idx-in-all-generaetd-864
     RDKit          3D

  9  9  0  0  0  0  0  0  0  0999 V2000
   -0.6395   -2.0713   41.4947 C   0  0  0  0  0  0  0  0  0  0  0  0
   -0.2671   -3.2464   41.6546 C   0  0  0  0  0  0  0  0  0  0  0  0
    0.2407   -0.9706   41.5952 C   0  0  0  0  0  0  0  0  0  0  0  0
    1.6195   -1.2958   41.8767 C   0  0  0  0  0  0  0  0  0  0  0  0
    1.9162   -2.6816   42.2016 C   0  0  0  0  0  0  0  0  0  0  0  0
    0.9422   -3.6324   42.1156 C   0  0  0  0  0  0  0  0  0  0  0  0
    2.6136   -0.2815   42.1191 C   0  0  0  0  0  0  0  0  0  0  0  0
    3.9096   -0.5773   42.5950 C   0  0  0  0  0  0  0  0  0  0  0  0
    4.0819   -1.8037   43.3231 C   0  0  0  0  0  0  0  0  0  0  0  0
  4  7  1  0
  7  8  2  3
  8  9  1  0
  1  2  2  0
  2  6  1  0
  6  5  2  0
  5  4  1  0
  4  3  2  0
  3  1  1  0
M  END
$$$$
O14757_PocketFlow_idx-in-all-generaetd-865
     RDKit          3D

 10 10  0  0  0  0  0  0  0  0999 V2000
    0.0138   -2.7927   42.5918 N   0  0  0  0  0  0  0  0  0  0  0  0
   -0.1707   -2.5494   41.4965 C   0  0  0  0  0  0  0  0  0  0  0  0
    1.2399   -3.4297   42.9825 C   0  0  0  0  0  0  0  0  0  0  0  0
    1.2714   -4.3030   44.0659 C   0  0  0  0  0  0  0  0  0  0  0  0
    2.4933   -4.7242   44.6744 C   0  0  0  0  0  0  0  0  0  0  0  0
    3.6964   -3.9762   44.2907 C   0  0  0  0  0  0  0  0  0  0  0  0
    3.5447   -2.8507   43.4376 C   0  0  0  0  0  0  0  0  0  0  0  0
    2.3588   -2.5257   42.8911 C   0  0  0  0  0  0  0  0  0  0  0  0
   -1.3814   -2.1177   41.0748 N   0  0  0  0  0  0  0  0  0  0  0  0
    0.8217   -2.3894   40.6581 O   0  0  0  0  0  0  0  0  0  0  0  0
  1  2  1  0
  1  3  1  0
  2  9  1  0
  2 10  2  0
  3  4  2  0
  4  5  1  0
  5  6  2  0
  6  7  1  0
  7  8  2  0
  8  3  1  0
M  END
$$$$
O14757_PocketFlow_idx-in-all-generaetd-866
     RDKit          3D

 35 37  0  0  0  0  0  0  0  0999 V2000
   -0.6395   -2.0713   41.4947 C   0  0  0  0  0  0  0  0  0  0  0  0
    0.1859   -1.1027   41.5970 C   0  0  0  0  0  0  0  0  0  0  0  0
    1.5836   -1.3270   41.4670 C   0  0  0  0  0  0  0  0  0  0  0  0
   -0.2462   -3.3905   41.2409 C   0  0  0  0  0  0  0  0  0  0  0  0
    2.5788   -0.3160   41.7511 C   0  0  0  0  0  0  0  0  0  0  0  0
    3.8805   -0.6481   42.0316 C   0  0  2  0  0  0  0  0  0  0  0  0
    4.1140   -1.7786   42.9289 C   0  0  0  0  0  0  0  0  0  0  0  0
    3.6402   -2.0432   43.9582 C   0  0  0  0  0  0  0  0  0  0  0  0
    4.0165   -3.3247   44.6944 C   0  0  0  0  0  0  0  0  0  0  0  0
    4.8110   -3.3557   45.6509 C   0  0  0  0  0  0  0  0  0  0  0  0
    1.1440   -3.6379   41.2055 C   0  0  0  0  0  0  0  0  0  0  0  0
    2.0196   -2.6459   41.3656 C   0  0  0  0  0  0  0  0  0  0  0  0
    4.9528   -4.5949   46.4517 C   0  0  0  0  0  0  0  0  0  0  0  0
    4.1668   -5.6509   46.1264 C   0  0  0  0  0  0  0  0  0  0  0  0
    3.2948   -5.5583   45.0722 C   0  0  0  0  0  0  0  0  0  0  0  0
    3.1648   -4.3723   44.3003 C   0  0  0  0  0  0  0  0  0  0  0  0
    5.9344   -4.6210   47.5802 C   0  0  0  0  0  0  0  0  0  0  0  0
    6.8651   -5.0606   47.5838 O   0  0  0  0  0  0  0  0  0  0  0  0
    5.3982   -3.9062   48.7297 O   0  0  0  0  0  0  0  0  0  0  0  0
   -2.0166   -1.8305   41.5353 O   0  0  0  0  0  0  0  0  0  0  0  0
    4.7753    0.4834   42.2623 C   0  0  0  0  0  0  0  0  0  0  0  0
   -2.6786   -1.3325   40.4468 C   0  0  0  0  0  0  0  0  0  0  0  0
    2.5017   -6.7546   44.6924 C   0  0  0  0  0  0  0  0  0  0  0  0
    1.0853   -6.4954   44.5665 C   0  0  0  0  0  0  0  0  0  0  0  0
    0.3569   -6.2776   45.8189 C   0  0  0  0  0  0  0  0  0  0  0  0
   -1.0766   -6.6326   45.8896 C   0  0  0  0  0  0  0  0  0  0  0  0
   -1.2647   -8.0911   45.9571 C   0  0  0  0  0  0  0  0  0  0  0  0
   -0.8615   -8.7702   46.9587 C   0  0  0  0  0  0  0  0  0  0  0  0
    0.3850   -8.7551   47.3354 C   0  0  0  0  0  0  0  0  0  0  0  0
    0.8067   -9.4689   48.5377 C   0  0  0  0  0  0  0  0  0  0  0  0
    2.1490   -9.3456   49.0147 C   0  0  0  0  0  0  0  0  0  0  0  0
    2.3869   -9.7849   50.2491 C   0  0  0  0  0  0  0  0  0  0  0  0
    1.3816  -10.4039   51.0478 C   0  0  0  0  0  0  0  0  0  0  0  0
    0.1085  -10.5117   50.5646 C   0  0  0  0  0  0  0  0  0  0  0  0
   -0.1662   -9.9568   49.3543 C   0  0  0  0  0  0  0  0  0  0  0  0
  3  5  1  0
  5  6  1  0
  6  7  1  0
  7  8  2  3
  8  9  1  0
 13 17  1  0
 17 18  2  0
 17 19  1  0
  1 20  1  0
  6 21  1  1
 20 22  1  0
 15 23  1  0
 23 24  1  0
 24 25  2  3
 25 26  1  0
 26 27  1  0
 27 28  1  0
 28 29  2  3
 29 30  1  0
  9 10  2  0
 10 13  1  0
 13 14  2  0
 14 15  1  0
 15 16  2  0
 16  9  1  0
  1  2  2  0
  2  3  1  0
  3 12  2  0
 12 11  1  0
 11  4  2  0
  4  1  1  0
 30 31  2  0
 31 32  1  0
 32 33  2  0
 33 34  1  0
 34 35  2  0
 35 30  1  0
M  END
$$$$
O14757_PocketFlow_idx-in-all-generaetd-867
     RDKit          3D

 35 39  0  0  0  0  0  0  0  0999 V2000
    0.2881   -2.9111   42.4378 C   0  0  0  0  0  0  0  0  0  0  0  0
   -0.0650   -2.5021   41.5798 C   0  0  0  0  0  0  0  0  0  0  0  0
    0.3903   -4.2958   42.8988 C   0  0  0  0  0  0  0  0  0  0  0  0
    0.9283   -4.7375   44.0590 C   0  0  0  0  0  0  0  0  0  0  0  0
    1.8430   -3.7864   44.6834 C   0  0  0  0  0  0  0  0  0  0  0  0
    0.0683   -1.0389   41.2168 C   0  0  0  0  0  0  0  0  0  0  0  0
    2.1679   -2.6058   44.0572 C   0  0  0  0  0  0  0  0  0  0  0  0
    1.4762   -2.1784   42.9196 C   0  0  0  0  0  0  0  0  0  0  0  0
    1.1308   -0.4647   41.8108 C   0  0  0  0  0  0  0  0  0  0  0  0
    1.7943   -0.8869   42.6167 C   0  0  2  0  0  0  0  0  0  0  0  0
    0.9191   -6.0393   44.6447 C   0  0  0  0  0  0  0  0  0  0  0  0
   -0.1663   -6.6110   44.9597 N   0  0  0  0  0  0  0  0  0  0  0  0
   -0.7884   -6.4898   46.2257 C   0  0  0  0  0  0  0  0  0  0  0  0
   -1.8358   -7.4894   46.5728 C   0  0  0  0  0  0  0  0  0  0  0  0
   -1.8450   -8.2167   47.6934 C   0  0  0  0  0  0  0  0  0  0  0  0
   -2.9401   -9.1178   47.9780 C   0  0  0  0  0  0  0  0  0  0  0  0
   -3.9834   -9.2151   47.0673 C   0  0  0  0  0  0  0  0  0  0  0  0
   -3.8804   -8.5238   45.8578 C   0  0  0  0  0  0  0  0  0  0  0  0
   -2.7971   -7.6441   45.5727 C   0  0  0  0  0  0  0  0  0  0  0  0
    2.0090   -6.7075   44.8011 O   0  0  0  0  0  0  0  0  0  0  0  0
    3.0750   -0.2151   43.1213 C   0  0  0  0  0  0  0  0  0  0  0  0
    4.1540   -0.8304   43.6355 C   0  0  0  0  0  0  0  0  0  0  0  0
    3.7190   -2.1766   44.3351 C   0  0  0  0  0  0  0  0  0  0  0  0
    5.3821   -0.3572   44.0272 C   0  0  0  0  0  0  0  0  0  0  0  0
    4.5896   -2.8841   45.0805 C   0  0  0  0  0  0  0  0  0  0  0  0
    4.8739   -2.6982   46.3132 C   0  0  0  0  0  0  0  0  0  0  0  0
    5.8029   -3.4881   47.1252 C   0  0  0  0  0  0  0  0  0  0  0  0
    6.7552   -3.5033   47.5998 C   0  0  0  0  0  0  0  0  0  0  0  0
    7.8291   -3.7129   48.3890 C   0  0  0  0  0  0  0  0  0  0  0  0
    8.6664   -2.6875   48.6814 C   0  0  0  0  0  0  0  0  0  0  0  0
    9.8030   -2.9182   49.6146 C   0  0  0  0  0  0  0  0  0  0  0  0
    9.8009   -4.0473   50.3478 C   0  0  0  0  0  0  0  0  0  0  0  0
    7.9518   -4.9648   49.0834 C   0  0  0  0  0  0  0  0  0  0  0  0
    8.9649   -5.1193   50.0539 C   0  0  0  0  0  0  0  0  0  0  0  0
   -4.9648   -8.6961   44.8518 C   0  0  0  0  0  0  0  0  0  0  0  0
  1  2  1  0
  1  3  1  0
  3  4  2  0
  4  5  1  0
  2  6  1  0
  5  7  2  0
  1  8  2  0
  7  8  1  0
  6  9  2  0
  8 10  1  0
 10  9  1  6
  4 11  1  0
 11 12  1  0
 12 13  1  0
 13 14  1  0
 14 15  2  0
 15 16  1  0
 16 17  2  0
 17 18  1  0
 14 19  1  0
 18 19  2  0
 11 20  2  0
 10 21  1  0
 21 22  2  0
  7 23  1  0
 22 23  1  0
 22 24  1  0
 23 25  1  0
 25 26  2  3
 26 27  1  0
 27 28  3  0
 28 29  1  0
 29 30  2  0
 30 31  1  0
 31 32  2  0
 29 33  1  0
 32 34  1  0
 33 34  1  0
 18 35  1  0
M  END
$$$$
O14757_PocketFlow_idx-in-all-generaetd-868
     RDKit          3D

 17 18  0  0  0  0  0  0  0  0999 V2000
   -0.6395   -2.0713   41.4947 C   0  0  0  0  0  0  0  0  0  0  0  0
   -0.2671   -3.2464   41.6546 C   0  0  0  0  0  0  0  0  0  0  0  0
   -2.0053   -1.6706   41.3987 C   0  0  0  0  0  0  0  0  0  0  0  0
   -2.2928   -0.3176   41.3208 C   0  0  0  0  0  0  0  0  0  0  0  0
   -3.5679   -0.0116   41.1750 N   0  0  0  0  0  0  0  0  0  0  0  0
    0.4132   -1.0390   41.4557 C   0  0  0  0  0  0  0  0  0  0  0  0
    1.5217   -1.1314   41.9906 C   0  0  0  0  0  0  0  0  0  0  0  0
    2.5229   -0.0781   41.9140 C   0  0  0  0  0  0  0  0  0  0  0  0
    3.8085   -0.2843   42.5056 C   0  0  0  0  0  0  0  0  0  0  0  0
    4.1324   -1.4387   43.1980 C   0  0  0  0  0  0  0  0  0  0  0  0
    5.3171   -1.6462   43.9079 C   0  0  0  0  0  0  0  0  0  0  0  0
    5.4242   -2.8721   44.6818 C   0  0  0  0  0  0  0  0  0  0  0  0
    4.4021   -3.8233   44.5835 C   0  0  0  0  0  0  0  0  0  0  0  0
    3.2190   -2.5218   43.4005 C   0  0  0  0  0  0  0  0  0  0  0  0
    3.2903   -3.6123   44.0218 C   0  0  0  0  0  0  0  0  0  0  0  0
    1.9321   -2.3118   42.7094 C   0  0  0  0  0  0  0  0  0  0  0  0
    0.9476   -3.3507   42.5196 C   0  0  0  0  0  0  0  0  0  0  0  0
  3  4  1  0
  4  5  1  0
  7  8  1  0
  8  9  2  3
  9 10  1  0
  3  1  1  0
 10 11  2  0
 11 12  1  0
 12 13  2  0
 13 15  1  0
 15 14  2  0
 14 10  1  0
  1  2  2  0
  2 17  1  0
 17 16  2  0
 16  7  1  0
  7  6  2  0
  6  1  1  0
M  END
$$$$
O14757_PocketFlow_idx-in-all-generaetd-869
     RDKit          3D

 35 39  0  0  0  0  0  0  0  0999 V2000
   -0.6395   -2.0713   41.4947 C   0  0  0  0  0  0  0  0  0  0  0  0
    0.6719   -2.2449   41.7518 C   0  0  0  0  0  0  0  0  0  0  0  0
    1.1287   -3.3339   42.4778 C   0  0  0  0  0  0  0  0  0  0  0  0
    2.2706   -3.1945   43.3374 C   0  0  0  0  0  0  0  0  0  0  0  0
    2.5794   -4.1545   44.3183 C   0  0  0  0  0  0  0  0  0  0  0  0
    1.6652   -5.1930   44.6059 C   0  0  0  0  0  0  0  0  0  0  0  0
    0.4184   -5.1320   43.9160 C   0  0  0  0  0  0  0  0  0  0  0  0
    0.1362   -4.2621   42.9076 C   0  0  0  0  0  0  0  0  0  0  0  0
    1.6394   -1.3080   41.2286 C   0  0  0  0  0  0  0  0  0  0  0  0
    1.9629   -0.1355   42.1371 C   0  0  0  0  0  0  0  0  0  0  0  0
    3.3334    0.1805   42.4144 C   0  0  0  0  0  0  0  0  0  0  0  0
    3.8288   -4.0351   45.0993 C   0  0  0  0  0  0  0  0  0  0  0  0
    4.1344   -3.1749   45.8922 C   0  0  0  0  0  0  0  0  0  0  0  0
    5.4064   -3.1327   46.6909 C   0  0  0  0  0  0  0  0  0  0  0  0
    6.5394   -2.6114   46.0058 C   0  0  0  0  0  0  0  0  0  0  0  0
    6.6006   -1.8667   44.8464 C   0  0  0  0  0  0  0  0  0  0  0  0
    7.8858   -3.0592   46.5580 C   0  0  0  0  0  0  0  0  0  0  0  0
    8.8776   -2.1595   46.7566 C   0  0  0  0  0  0  0  0  0  0  0  0
    8.8708   -1.0508   45.6923 C   0  0  0  0  0  0  0  0  0  0  0  0
    5.4515   -1.5479   44.2668 C   0  0  0  0  0  0  0  0  0  0  0  0
    7.6918   -0.8063   45.0302 C   0  0  0  0  0  0  0  0  0  0  0  0
   -1.3833   -2.8639   40.8915 O   0  0  0  0  0  0  0  0  0  0  0  0
   -1.2358   -0.8233   41.6438 O   0  0  0  0  0  0  0  0  0  0  0  0
    4.0632   -1.9134   45.2603 N   0  0  0  0  0  0  0  0  0  0  0  0
    4.3709   -0.4870   42.0329 N   0  0  0  0  0  0  0  0  0  0  0  0
    5.2062   -0.6507   43.1557 C   0  0  0  0  0  0  0  0  0  0  0  0
   10.1007   -2.4051   47.4651 C   0  0  2  0  0  0  0  0  0  0  0  0
   10.5978   -1.6464   48.3280 C   0  0  0  0  0  0  0  0  0  0  0  0
   11.7149   -1.8495   49.2291 C   0  0  0  0  0  0  0  0  0  0  0  0
   12.0173   -0.9334   50.3067 C   0  0  0  0  0  0  0  0  0  0  0  0
   11.1050    0.1500   50.6109 C   0  0  0  0  0  0  0  0  0  0  0  0
    9.8456    0.1368   49.9625 C   0  0  0  0  0  0  0  0  0  0  0  0
    9.6489   -0.6151   48.8998 C   0  0  0  0  0  0  0  0  0  0  0  0
   10.8653   -3.5684   47.0535 C   0  0  0  0  0  0  0  0  0  0  0  0
   11.9271   -3.5956   46.9366 C   0  0  0  0  0  0  0  0  0  0  0  0
  1  2  1  0
  2  3  1  0
  2  9  1  0
  9 10  1  0
 10 11  2  0
  5 12  1  0
  1 22  2  0
  1 23  1  0
 11 25  1  0
 20 26  1  0
 25 26  2  0
 18 27  1  0
 27 34  1  6
 34 35  2  0
 27 28  1  0
 12 13  1  0
 13 14  2  0
 14 15  1  0
 16 20  1  0
 20 24  2  0
 24 13  1  0
 28 29  2  0
 29 30  1  0
 30 31  2  0
 31 32  1  0
 32 33  2  0
 33 28  1  0
  3  4  2  0
  4  5  1  0
  5  6  2  0
  6  7  1  0
  7  8  2  0
  8  3  1  0
 15 16  2  0
 16 21  1  0
 21 19  2  0
 19 18  1  0
 18 17  2  0
 17 15  1  0
M  END
$$$$
O14757_PocketFlow_idx-in-all-generaetd-870
     RDKit          3D

 25 27  0  0  0  0  0  0  0  0999 V2000
    0.2881   -2.9111   42.4378 C   0  0  0  0  0  0  0  0  0  0  0  0
    1.1784   -3.4293   42.9321 C   0  0  0  0  0  0  0  0  0  0  0  0
    2.4507   -2.7243   42.9621 C   0  0  0  0  0  0  0  0  0  0  0  0
    2.5762   -1.5430   42.3314 C   0  0  0  0  0  0  0  0  0  0  0  0
    0.2682   -1.7017   41.6882 C   0  0  0  0  0  0  0  0  0  0  0  0
    1.4524   -1.0424   41.6523 C   0  0  0  0  0  0  0  0  0  0  0  0
    3.4639   -3.3187   43.8221 C   0  0  0  0  0  0  0  0  0  0  0  0
    3.7271   -3.0941   45.0963 C   0  0  0  0  0  0  0  0  0  0  0  0
    4.8555   -3.6866   45.8125 C   0  0  1  0  0  0  0  0  0  0  0  0
    5.9351   -2.9248   45.9745 C   0  0  0  0  0  0  0  0  0  0  0  0
    7.1566   -3.5401   46.5293 C   0  0  0  0  0  0  0  0  0  0  0  0
    8.4254   -2.8364   46.3824 C   0  0  0  0  0  0  0  0  0  0  0  0
    9.6227   -3.2666   46.9793 C   0  0  0  0  0  0  0  0  0  0  0  0
   10.7859   -2.5479   46.7300 C   0  0  0  0  0  0  0  0  0  0  0  0
   10.6321   -1.2465   46.1475 C   0  0  0  0  0  0  0  0  0  0  0  0
    8.4671   -1.5143   45.8497 C   0  0  0  0  0  0  0  0  0  0  0  0
    9.5423   -0.7828   45.8546 N   0  0  0  0  0  0  0  0  0  0  0  0
   -0.9605   -1.1549   41.0750 C   0  0  0  0  0  0  0  0  0  0  0  0
   -2.1704   -1.9568   41.0608 C   0  0  0  0  0  0  0  0  0  0  0  0
   -3.3493   -1.4255   40.6053 C   0  0  0  0  0  0  0  0  0  0  0  0
   -3.5147   -0.0661   40.7752 C   0  0  0  0  0  0  0  0  0  0  0  0
   -2.5374    0.6931   41.0968 F   0  0  0  0  0  0  0  0  0  0  0  0
    7.2701   -0.9475   45.4470 N   0  0  0  0  0  0  0  0  0  0  0  0
    6.0791   -1.6437   45.4086 C   0  0  0  0  0  0  0  0  0  0  0  0
    4.5939   -4.9567   46.3218 C   0  0  0  0  0  0  0  0  0  0  0  0
  3  7  1  0
  7  8  2  3
  8  9  1  0
  5 18  1  0
 18 19  1  0
 19 20  1  0
 20 21  1  0
 21 22  1  0
  9 25  1  1
  9 10  1  0
 12 13  2  0
 13 14  1  0
 14 15  2  0
 15 17  1  0
 17 16  2  0
  1  2  2  0
  2  3  1  0
  3  4  2  0
  4  6  1  0
  6  5  2  0
  5  1  1  0
 10 11  2  0
 11 12  1  0
 12 16  1  0
 16 23  1  0
 23 24  2  0
 24 10  1  0
M  END
$$$$
O14757_PocketFlow_idx-in-all-generaetd-871
     RDKit          3D

 15 16  0  0  0  0  0  0  0  0999 V2000
   -0.6395   -2.0713   41.4947 C   0  0  0  0  0  0  0  0  0  0  0  0
   -0.2671   -3.2464   41.6546 C   0  0  0  0  0  0  0  0  0  0  0  0
    0.2407   -0.9706   41.5952 C   0  0  0  0  0  0  0  0  0  0  0  0
    1.5531   -1.3394   41.8399 C   0  0  0  0  0  0  0  0  0  0  0  0
    2.6440   -0.3751   42.0484 C   0  0  0  0  0  0  0  0  0  0  0  0
    3.7072   -0.6496   42.9392 C   0  0  0  0  0  0  0  0  0  0  0  0
    3.8602   -1.9424   43.4371 C   0  0  0  0  0  0  0  0  0  0  0  0
    2.7219   -2.8483   43.2718 C   0  0  0  0  0  0  0  0  0  0  0  0
    1.6356   -2.4517   42.5988 C   0  0  0  0  0  0  0  0  0  0  0  0
    0.7127   -3.5081   42.3602 C   0  0  0  0  0  0  0  0  0  0  0  0
    4.9996   -2.3038   44.2554 C   0  0  0  0  0  0  0  0  0  0  0  0
    5.0956   -3.5092   45.0097 C   0  0  0  0  0  0  0  0  0  0  0  0
    6.2312   -3.6732   45.8038 C   0  0  0  0  0  0  0  0  0  0  0  0
    7.1950   -2.5871   45.9122 C   0  0  0  0  0  0  0  0  0  0  0  0
    5.9594   -1.2967   44.4895 F   0  0  0  0  0  0  0  0  0  0  0  0
  7 11  1  0
 11 12  2  3
 12 13  1  0
 13 14  2  0
 11 15  1  0
  1  2  2  0
  2 10  1  0
 10  9  2  0
  4  3  2  0
  3  1  1  0
  4  5  1  0
  5  6  2  0
  6  7  1  0
  7  8  2  0
  8  9  1  0
  9  4  1  0
M  END
$$$$
O14757_PocketFlow_idx-in-all-generaetd-872
     RDKit          3D

 32 35  0  0  0  0  0  0  0  0999 V2000
   -0.6395   -2.0713   41.4947 C   0  0  0  0  0  0  0  0  0  0  0  0
   -0.2671   -3.2464   41.6546 C   0  0  0  0  0  0  0  0  0  0  0  0
   -1.9911   -1.6663   41.2869 C   0  0  0  0  0  0  0  0  0  0  0  0
   -2.6169   -1.9308   40.3958 C   0  0  0  0  0  0  0  0  0  0  0  0
    1.0667   -3.7031   41.8276 C   0  0  0  0  0  0  0  0  0  0  0  0
    1.9614   -2.6286   42.1667 C   0  0  0  0  0  0  0  0  0  0  0  0
    1.5494   -1.3414   42.1448 C   0  0  0  0  0  0  0  0  0  0  0  0
    2.5199   -0.2864   42.3742 C   0  0  0  0  0  0  0  0  0  0  0  0
    0.2638   -0.9838   41.8696 C   0  0  0  0  0  0  0  0  0  0  0  0
    3.7388   -0.4259   42.9852 C   0  0  2  0  0  0  0  0  0  0  0  0
    4.0443   -1.5625   43.7254 C   0  0  0  0  0  0  0  0  0  0  0  0
    5.4143   -1.5761   44.2461 C   0  0  0  0  0  0  0  0  0  0  0  0
    5.7836   -2.7312   45.0913 C   0  0  0  0  0  0  0  0  0  0  0  0
    4.8488   -3.8060   45.1797 C   0  0  0  0  0  0  0  0  0  0  0  0
    3.6696   -3.7859   44.5060 C   0  0  0  0  0  0  0  0  0  0  0  0
    3.2741   -2.6486   43.8478 C   0  0  0  0  0  0  0  0  0  0  0  0
    2.2733   -2.8128   43.0631 N   0  0  0  0  0  0  0  0  0  0  0  0
   -4.0703   -1.5620   40.1674 C   0  0  0  0  0  0  0  0  0  0  0  0
    7.1091   -2.7390   45.7511 C   0  0  0  0  0  0  0  0  0  0  0  0
    7.5616   -3.8371   46.5256 C   0  0  0  0  0  0  0  0  0  0  0  0
    8.3170   -3.5713   47.4616 C   0  0  0  0  0  0  0  0  0  0  0  0
    9.1982   -2.4913   47.4995 C   0  0  0  0  0  0  0  0  0  0  0  0
    7.7306   -1.4871   46.1490 C   0  0  0  0  0  0  0  0  0  0  0  0
    8.8147   -1.3461   46.8753 C   0  0  0  0  0  0  0  0  0  0  0  0
    2.7484   -4.8915   44.6975 C   0  0  0  0  0  0  0  0  0  0  0  0
    2.2204   -5.2016   46.0289 C   0  0  0  0  0  0  0  0  0  0  0  0
    1.0570   -6.0740   46.0151 C   0  0  0  0  0  0  0  0  0  0  0  0
   -0.0021   -5.4633   45.8631 N   0  0  0  0  0  0  0  0  0  0  0  0
   -4.7663   -2.2589   39.4402 F   0  0  0  0  0  0  0  0  0  0  0  0
   -4.6425   -0.9269   41.1681 F   0  0  0  0  0  0  0  0  0  0  0  0
    4.5980    0.6658   42.9287 N   0  0  0  0  0  0  0  0  0  0  0  0
    1.1668   -7.2997   46.0472 O   0  0  0  0  0  0  0  0  0  0  0  0
  1  3  1  0
  3  4  2  3
  7  8  1  0
  8 10  1  0
 10 11  1  0
  6 17  1  0
 16 17  1  0
  4 18  1  0
 13 19  1  0
 15 25  1  0
 25 26  2  3
 26 27  1  0
 27 28  1  0
 18 29  1  0
 18 30  1  0
 10 31  1  1
 27 32  2  0
 11 12  2  0
 12 13  1  0
 13 14  2  0
 14 15  1  0
 15 16  2  0
 16 11  1  0
  1  2  2  0
  2  5  1  0
  5  6  2  0
  6  7  1  0
  7  9  2  0
  9  1  1  0
 19 20  2  0
 20 21  1  0
 21 22  2  0
 22 24  1  0
 24 23  2  0
 23 19  1  0
M  END
$$$$
O14757_PocketFlow_idx-in-all-generaetd-873
     RDKit          3D

 27 28  0  0  0  0  0  0  0  0999 V2000
   -0.6395   -2.0713   41.4947 C   0  0  0  0  0  0  0  0  0  0  0  0
    0.1859   -1.1027   41.5970 C   0  0  0  0  0  0  0  0  0  0  0  0
    1.5836   -1.3270   41.4670 C   0  0  0  0  0  0  0  0  0  0  0  0
   -0.2462   -3.3905   41.2409 C   0  0  0  0  0  0  0  0  0  0  0  0
    2.5675   -0.3472   41.7943 C   0  0  0  0  0  0  0  0  0  0  0  0
    3.8546   -0.6776   42.2362 C   0  0  0  0  0  0  0  0  0  0  0  0
    3.9971   -0.8191   43.6382 C   0  0  0  0  0  0  0  0  0  0  0  0
    3.9303   -1.8463   44.3484 C   0  0  0  0  0  0  0  0  0  0  0  0
    4.7848   -2.1175   45.4767 C   0  0  0  0  0  0  0  0  0  0  0  0
    5.6307   -3.2017   45.4836 C   0  0  0  0  0  0  0  0  0  0  0  0
    6.8751   -3.0239   46.2557 C   0  0  0  0  0  0  0  0  0  0  0  0
    7.8104   -2.0267   45.9414 C   0  0  0  0  0  0  0  0  0  0  0  0
    9.0139   -1.9360   46.6556 C   0  0  0  0  0  0  0  0  0  0  0  0
    9.4748   -2.7567   47.1844 C   0  0  0  0  0  0  0  0  0  0  0  0
    7.4256   -4.0574   47.0717 C   0  0  0  0  0  0  0  0  0  0  0  0
    8.6836   -3.9147   47.6238 C   0  0  0  0  0  0  0  0  0  0  0  0
    1.1453   -3.6203   41.1878 C   0  0  0  0  0  0  0  0  0  0  0  0
    2.0206   -2.5818   41.3404 C   0  0  0  0  0  0  0  0  0  0  0  0
   -2.0302   -1.8494   41.5328 O   0  0  0  0  0  0  0  0  0  0  0  0
   -2.8154   -2.0116   40.4651 C   0  0  0  0  0  0  0  0  0  0  0  0
    9.1603   -4.9766   48.5664 C   0  0  0  0  0  0  0  0  0  0  0  0
    8.4667   -5.0405   49.6860 C   0  0  0  0  0  0  0  0  0  0  0  0
    7.9761   -3.8458   50.2111 C   0  0  0  0  0  0  0  0  0  0  0  0
    8.6614   -3.4487   51.4441 F   0  0  0  0  0  0  0  0  0  0  0  0
    6.7659   -3.4047   50.2267 F   0  0  0  0  0  0  0  0  0  0  0  0
   10.6370   -4.6647   48.8037 C   0  0  0  0  0  0  0  0  0  0  0  0
    9.0954   -6.2841   47.7038 C   0  0  0  0  0  0  0  0  0  0  0  0
  3  5  1  0
  5  6  1  0
  6  7  1  0
  7  8  1  0
  8  9  1  0
  9 10  1  0
 10 11  1  0
  1 19  1  0
 19 20  1  0
 16 21  1  0
 21 22  1  0
 22 23  1  0
 23 24  1  0
 23 25  1  0
 21 26  1  0
 21 27  1  0
 11 12  2  0
 12 13  1  0
 13 14  2  0
 14 16  1  0
 16 15  2  0
 15 11  1  0
  1  2  2  0
  2  3  1  0
  3 18  2  0
 18 17  1  0
 17  4  2  0
  4  1  1  0
M  END
$$$$
O14757_PocketFlow_idx-in-all-generaetd-874
     RDKit          3D

 24 27  0  0  0  0  0  0  0  0999 V2000
   -0.6395   -2.0713   41.4947 C   0  0  1  0  0  0  0  0  0  0  0  0
    0.1859   -1.1027   41.5970 C   0  0  0  0  0  0  0  0  0  0  0  0
    1.5858   -1.4431   41.9548 C   0  0  0  0  0  0  0  0  0  0  0  0
    1.6955   -2.6772   42.6484 C   0  0  0  0  0  0  0  0  0  0  0  0
    0.6232   -3.6308   42.6496 C   0  0  0  0  0  0  0  0  0  0  0  0
   -0.5602   -3.1584   42.1244 N   0  0  0  0  0  0  0  0  0  0  0  0
    2.8341   -2.9795   43.4439 C   0  0  0  0  0  0  0  0  0  0  0  0
    3.1644   -4.0586   44.2259 C   0  0  0  0  0  0  0  0  0  0  0  0
    4.1582   -4.0590   45.0556 C   0  0  0  0  0  0  0  0  0  0  0  0
    5.0510   -2.9879   45.1746 C   0  0  0  0  0  0  0  0  0  0  0  0
    4.7670   -1.8090   44.3947 C   0  0  0  0  0  0  0  0  0  0  0  0
    3.6801   -1.7517   43.5959 C   0  0  0  0  0  0  0  0  0  0  0  0
    6.2477   -2.9553   46.0592 C   0  0  0  0  0  0  0  0  0  0  0  0
    7.4128   -2.2686   45.7140 C   0  0  0  0  0  0  0  0  0  0  0  0
    6.2096   -3.5033   47.3700 C   0  0  0  0  0  0  0  0  0  0  0  0
    8.5652   -2.3665   46.4965 C   0  0  0  0  0  0  0  0  0  0  0  0
    7.3116   -3.6216   48.2134 C   0  0  0  0  0  0  0  0  0  0  0  0
    8.4981   -3.0077   47.7908 C   0  0  0  0  0  0  0  0  0  0  0  0
   -1.9894   -1.8002   41.0980 N   0  0  0  0  0  0  0  0  0  0  0  0
    7.1682   -4.2408   49.5210 C   0  0  0  0  0  0  0  0  0  0  0  0
    6.1209   -4.3761   49.9322 O   0  0  0  0  0  0  0  0  0  0  0  0
    8.2364   -4.1547   50.2858 O   0  0  0  0  0  0  0  0  0  0  0  0
    2.4080   -0.5070   41.8408 N   0  0  0  0  0  0  0  0  0  0  0  0
    3.6147   -0.6366   42.6712 C   0  0  0  0  0  0  0  0  0  0  0  0
  1  2  1  0
  2  3  1  0
  4  5  1  0
  1  6  1  0
  5  6  1  0
 10 13  1  0
  1 19  1  1
 17 20  1  0
 20 21  2  0
 20 22  1  0
  3  4  2  0
  4  7  1  0
 12 24  1  0
 24 23  2  0
 23  3  1  0
 13 14  2  0
 14 16  1  0
 16 18  2  0
 18 17  1  0
 17 15  2  0
 15 13  1  0
  7  8  2  0
  8  9  1  0
  9 10  2  0
 10 11  1  0
 11 12  2  0
 12  7  1  0
M  END
$$$$
O14757_PocketFlow_idx-in-all-generaetd-875
     RDKit          3D

 29 31  0  0  0  0  0  0  0  0999 V2000
   -0.6395   -2.0713   41.4947 C   0  0  0  0  0  0  0  0  0  0  0  0
    0.1859   -1.1027   41.5970 C   0  0  0  0  0  0  0  0  0  0  0  0
    1.5836   -1.3270   41.4670 C   0  0  0  0  0  0  0  0  0  0  0  0
    2.5750   -0.4224   42.0442 C   0  0  0  0  0  0  0  0  0  0  0  0
    3.8156   -0.8009   42.5363 C   0  0  0  0  0  0  0  0  0  0  0  0
    4.0115   -0.9328   43.9512 C   0  0  0  0  0  0  0  0  0  0  0  0
    5.4144   -1.2529   44.3387 C   0  0  0  0  0  0  0  0  0  0  0  0
   -0.0915   -3.3705   41.1278 C   0  0  0  0  0  0  0  0  0  0  0  0
    5.6250   -2.3600   45.1915 C   0  0  2  0  0  0  0  0  0  0  0  0
    6.8185   -2.5421   45.8661 C   0  0  0  0  0  0  0  0  0  0  0  0
    7.8537   -1.5425   45.6418 C   0  0  0  0  0  0  0  0  0  0  0  0
    9.0901   -1.7986   46.3308 C   0  0  0  0  0  0  0  0  0  0  0  0
    9.3040   -2.9193   47.0422 C   0  0  0  0  0  0  0  0  0  0  0  0
    8.3022   -3.9174   47.1475 C   0  0  0  0  0  0  0  0  0  0  0  0
    7.0878   -3.6959   46.5543 C   0  0  0  0  0  0  0  0  0  0  0  0
    1.2907   -3.5427   41.0716 C   0  0  0  0  0  0  0  0  0  0  0  0
    2.0510   -2.5750   41.2536 C   0  0  0  0  0  0  0  0  0  0  0  0
    4.6461   -3.3523   45.1808 C   0  0  0  0  0  0  0  0  0  0  0  0
    3.6354   -3.6313   44.6568 C   0  0  0  0  0  0  0  0  0  0  0  0
    2.7255   -4.7680   44.8698 C   0  0  0  0  0  0  0  0  0  0  0  0
    1.4006   -4.8328   44.6454 C   0  0  0  0  0  0  0  0  0  0  0  0
    0.6695   -6.0282   44.6195 C   0  0  0  0  0  0  0  0  0  0  0  0
    1.3876   -7.1588   44.9591 C   0  0  0  0  0  0  0  0  0  0  0  0
    2.7666   -7.1778   45.1648 C   0  0  0  0  0  0  0  0  0  0  0  0
    3.4755   -5.9279   45.1052 C   0  0  0  0  0  0  0  0  0  0  0  0
   -2.0068   -1.9096   41.5479 N   0  0  0  0  0  0  0  0  0  0  0  0
   -2.7591   -1.4227   40.5023 C   0  0  0  0  0  0  0  0  0  0  0  0
    0.5765   -3.7166   44.7515 O   0  0  0  0  0  0  0  0  0  0  0  0
   -3.8580   -1.1034   40.6622 C   0  0  0  0  0  0  0  0  0  0  0  0
  3  4  1  0
  4  5  1  0
  5  6  1  0
  6  7  1  0
  9  7  1  6
  9 18  1  0
 18 19  2  3
 19 20  1  0
  1 26  1  0
 26 27  1  0
 21 28  1  0
 27 29  1  0
  9 10  1  0
 10 11  2  0
 11 12  1  0
 12 13  2  0
 13 14  1  0
 14 15  2  0
 15 10  1  0
 20 21  2  0
 21 22  1  0
 22 23  2  0
 23 24  1  0
 24 25  2  0
 25 20  1  0
  1  2  2  0
  2  3  1  0
  3 17  2  0
 17 16  1  0
 16  8  2  0
  8  1  1  0
M  END
$$$$
O14757_PocketFlow_idx-in-all-generaetd-876
     RDKit          3D

 30 32  0  0  0  0  0  0  0  0999 V2000
    0.2881   -2.9111   42.4378 C   0  0  0  0  0  0  0  0  0  0  0  0
    1.1784   -3.4293   42.9321 C   0  0  0  0  0  0  0  0  0  0  0  0
    2.4696   -2.7231   42.8997 C   0  0  0  0  0  0  0  0  0  0  0  0
    3.6320   -3.1839   43.6508 C   0  0  0  0  0  0  0  0  0  0  0  0
    3.5151   -4.3427   44.4594 C   0  0  0  0  0  0  0  0  0  0  0  0
    0.4176   -1.7960   41.5141 C   0  0  0  0  0  0  0  0  0  0  0  0
    2.2568   -4.9643   44.5737 C   0  0  0  0  0  0  0  0  0  0  0  0
    1.1768   -4.5276   43.9065 C   0  0  0  0  0  0  0  0  0  0  0  0
    1.6181   -1.1146   41.4716 C   0  0  0  0  0  0  0  0  0  0  0  0
    2.6736   -1.5480   42.1894 C   0  0  0  0  0  0  0  0  0  0  0  0
    4.8717   -2.4115   43.6784 C   0  0  0  0  0  0  0  0  0  0  0  0
    5.0498   -1.4685   44.7767 C   0  0  0  0  0  0  0  0  0  0  0  0
    5.5646   -2.0985   45.9537 C   0  0  0  0  0  0  0  0  0  0  0  0
    6.9239   -2.4531   46.1117 C   0  0  2  0  0  0  0  0  0  0  0  0
    7.3691   -3.4456   46.9744 C   0  0  0  0  0  0  0  0  0  0  0  0
    8.7327   -3.7840   47.0470 C   0  0  0  0  0  0  0  0  0  0  0  0
    9.1240   -4.9521   47.6083 C   0  0  0  0  0  0  0  0  0  0  0  0
    8.2208   -5.7125   48.3524 C   0  0  0  0  0  0  0  0  0  0  0  0
    6.8728   -5.3798   48.3365 C   0  0  0  0  0  0  0  0  0  0  0  0
    6.4179   -4.2496   47.6035 C   0  0  0  0  0  0  0  0  0  0  0  0
    7.8510   -1.2563   46.0646 C   0  0  0  0  0  0  0  0  0  0  0  0
    2.1666   -6.1980   45.4447 C   0  0  0  0  0  0  0  0  0  0  0  0
    1.3626   -6.3511   46.2132 O   0  0  0  0  0  0  0  0  0  0  0  0
    3.2070   -7.0621   45.3417 O   0  0  0  0  0  0  0  0  0  0  0  0
    1.7354    0.0157   40.7513 O   0  0  0  0  0  0  0  0  0  0  0  0
    5.8761   -6.1958   49.0962 C   0  0  0  0  0  0  0  0  0  0  0  0
    6.5164   -7.4866   49.3033 F   0  0  0  0  0  0  0  0  0  0  0  0
    5.6596   -5.6952   50.3317 F   0  0  0  0  0  0  0  0  0  0  0  0
    4.8013   -6.4147   48.3976 F   0  0  0  0  0  0  0  0  0  0  0  0
    4.7375   -0.1014   44.6091 C   0  0  0  0  0  0  0  0  0  0  0  0
  4 11  1  0
 11 12  1  0
 12 13  1  0
 13 14  1  0
 14 21  1  1
  7 22  1  0
 22 23  2  0
 22 24  1  0
  9 25  1  0
 19 26  1  0
 26 27  1  0
 26 28  1  0
 26 29  1  0
 12 30  1  0
 14 15  1  0
 15 16  2  0
 16 17  1  0
 17 18  2  0
 18 19  1  0
 19 20  2  0
 20 15  1  0
  1  2  2  0
  3 10  2  0
 10  9  1  0
  9  6  2  0
  6  1  1  0
  2  3  1  0
  3  4  1  0
  4  5  2  0
  5  7  1  0
  7  8  2  0
  8  2  1  0
M  END
$$$$
O14757_PocketFlow_idx-in-all-generaetd-877
     RDKit          3D

 10 10  0  0  0  0  0  0  0  0999 V2000
   -0.6395   -2.0713   41.4947 C   0  0  0  0  0  0  0  0  0  0  0  0
    0.6719   -2.2449   41.7518 C   0  0  0  0  0  0  0  0  0  0  0  0
    1.3815   -1.6359   42.7231 C   0  0  0  0  0  0  0  0  0  0  0  0
    2.9063   -1.6298   42.5164 C   0  0  0  0  0  0  0  0  0  0  0  0
    3.6528   -2.2927   43.5664 C   0  0  0  0  0  0  0  0  0  0  0  0
    3.4229   -3.5070   43.9856 C   0  0  0  0  0  0  0  0  0  0  0  0
    4.2900   -4.0771   45.0184 C   0  0  0  0  0  0  0  0  0  0  0  0
    5.3707   -3.3607   45.5191 C   0  0  0  0  0  0  0  0  0  0  0  0
    5.6336   -2.0450   45.0152 C   0  0  0  0  0  0  0  0  0  0  0  0
    4.7739   -1.5046   44.0841 C   0  0  0  0  0  0  0  0  0  0  0  0
  1  2  1  0
  2  3  1  0
  3  4  1  0
  4  5  1  0
  5  6  2  0
  6  7  1  0
  7  8  2  0
  8  9  1  0
  9 10  2  0
 10  5  1  0
M  END
$$$$
O14757_PocketFlow_idx-in-all-generaetd-878
     RDKit          3D

 26 29  0  0  0  0  0  0  0  0999 V2000
   -0.6395   -2.0713   41.4947 C   0  0  0  0  0  0  0  0  0  0  0  0
    0.1859   -1.1027   41.5970 C   0  0  0  0  0  0  0  0  0  0  0  0
    1.5858   -1.4430   41.9548 C   0  0  0  0  0  0  0  0  0  0  0  0
   -0.3290   -3.4217   41.4987 C   0  0  0  0  0  0  0  0  0  0  0  0
    2.5865   -0.4507   42.1596 C   0  0  0  0  0  0  0  0  0  0  0  0
    3.8762   -0.8377   42.4211 C   0  0  0  0  0  0  0  0  0  0  0  0
    4.0649   -2.0298   43.2193 C   0  0  0  0  0  0  0  0  0  0  0  0
    5.2815   -2.4488   43.7684 C   0  0  1  0  0  0  0  0  0  0  0  0
    1.0200   -3.7579   41.8387 C   0  0  0  0  0  0  0  0  0  0  0  0
    1.9260   -2.7524   42.0988 C   0  0  0  0  0  0  0  0  0  0  0  0
    2.9517   -2.9937   42.9718 C   0  0  0  0  0  0  0  0  0  0  0  0
    6.1589   -1.4108   44.3105 C   0  0  0  0  0  0  0  0  0  0  0  0
    7.1903   -1.7617   45.2394 C   0  0  0  0  0  0  0  0  0  0  0  0
    7.2179   -2.9626   45.9743 C   0  0  0  0  0  0  0  0  0  0  0  0
    8.2252   -3.2229   46.8757 C   0  0  0  0  0  0  0  0  0  0  0  0
    8.1546   -4.4277   47.6500 C   0  0  0  0  0  0  0  0  0  0  0  0
    6.8485   -4.9419   47.8839 C   0  0  0  0  0  0  0  0  0  0  0  0
    5.7340   -4.4742   47.1676 C   0  0  0  0  0  0  0  0  0  0  0  0
    5.9154   -3.4168   46.2902 C   0  0  0  0  0  0  0  0  0  0  0  0
   -1.8566   -1.6440   40.9655 F   0  0  0  0  0  0  0  0  0  0  0  0
    6.6569   -6.0538   48.8853 C   0  0  0  0  0  0  0  0  0  0  0  0
    5.5625   -6.6723   48.8094 O   0  0  0  0  0  0  0  0  0  0  0  0
    7.5395   -6.2698   49.7624 O   0  0  0  0  0  0  0  0  0  0  0  0
    4.8037   -3.2212   45.1215 C   0  0  0  0  0  0  0  0  0  0  0  0
    5.1968    0.5352   42.6955 Br  0  0  0  0  0  0  0  0  0  0  0  0
    3.7474   -3.7916   45.3361 O   0  0  0  0  0  0  0  0  0  0  0  0
  8  7  1  1
 12 13  1  0
  1 20  1  0
 17 21  1  0
 21 22  1  0
 21 23  2  0
  8 24  1  0
 19 24  1  0
  6 25  1  0
 24 26  2  0
  8 12  1  0
 13 14  1  0
 14 15  2  0
 15 16  1  0
 16 17  2  0
 17 18  1  0
 18 19  2  0
 19 14  1  0
  3  5  2  0
  5  6  1  0
  6  7  2  0
  7 11  1  0
 11 10  2  0
  1  2  2  0
  2  3  1  0
  3 10  1  0
 10  9  1  0
  9  4  2  0
  4  1  1  0
M  END
$$$$
O14757_PocketFlow_idx-in-all-generaetd-879
     RDKit          3D

 18 19  0  0  0  0  0  0  0  0999 V2000
   -0.8794   -1.9236   41.9357 O   0  0  0  0  0  0  0  0  0  0  0  0
    0.3182   -2.2442   41.7073 C   0  0  0  0  0  0  0  0  0  0  0  0
    1.3766   -1.3498   41.6019 C   0  0  0  0  0  0  0  0  0  0  0  0
    2.6423   -1.6963   42.1387 C   0  0  0  0  0  0  0  0  0  0  0  0
    3.6599   -0.7394   42.2848 C   0  0  0  0  0  0  0  0  0  0  0  0
    4.8835   -1.0337   42.9772 C   0  0  0  0  0  0  0  0  0  0  0  0
    4.8542   -2.2824   43.7147 C   0  0  0  0  0  0  0  0  0  0  0  0
    3.7363   -3.1008   43.7012 C   0  0  0  0  0  0  0  0  0  0  0  0
    2.6035   -2.7276   43.0120 C   0  0  0  0  0  0  0  0  0  0  0  0
    3.9753   -4.3040   44.6096 C   0  0  0  0  0  0  0  0  0  0  0  0
    4.3003   -4.2306   45.9201 C   0  0  0  0  0  0  0  0  0  0  0  0
    4.4614   -5.4153   46.6595 C   0  0  0  0  0  0  0  0  0  0  0  0
    5.0918   -5.3143   47.8572 N   0  0  0  0  0  0  0  0  0  0  0  0
    5.8279   -4.1231   48.1265 C   0  0  0  0  0  0  0  0  0  0  0  0
    5.7993   -3.1036   47.3045 N   0  0  0  0  0  0  0  0  0  0  0  0
    5.1223   -3.1384   46.2022 C   0  0  0  0  0  0  0  0  0  0  0  0
    6.4555   -4.1081   49.3568 N   0  0  0  0  0  0  0  0  0  0  0  0
    0.4321   -3.5054   41.4759 O   0  0  0  0  0  0  0  0  0  0  0  0
  1  2  1  0
  2  3  1  0
  8 10  1  0
 14 17  1  0
  2 18  2  0
  3  4  1  0
 10 11  1  0
 11 12  2  0
 12 13  1  0
 13 14  2  0
 14 15  1  0
 15 16  2  0
 16 11  1  0
  4  5  2  0
  5  6  1  0
  6  7  2  0
  7  8  1  0
  8  9  2  0
  9  4  1  0
M  END
$$$$
O14757_PocketFlow_idx-in-all-generaetd-880
     RDKit          3D

 30 34  0  0  0  0  0  0  0  0999 V2000
    0.2881   -2.9111   42.4378 C   0  0  0  0  0  0  0  0  0  0  0  0
    1.3023   -2.0648   42.1981 C   0  0  0  0  0  0  0  0  0  0  0  0
    2.5313   -2.2887   42.6989 C   0  0  0  0  0  0  0  0  0  0  0  0
    2.7176   -3.3676   43.6275 C   0  0  0  0  0  0  0  0  0  0  0  0
    1.6703   -4.2006   43.9257 C   0  0  0  0  0  0  0  0  0  0  0  0
    0.4955   -4.0028   43.2983 C   0  0  0  0  0  0  0  0  0  0  0  0
    4.0399   -3.4809   44.3040 C   0  0  2  0  0  0  0  0  0  0  0  0
    4.9190   -2.4236   44.4559 C   0  0  0  0  0  0  0  0  0  0  0  0
    5.9856   -2.5191   45.3344 C   0  0  0  0  0  0  0  0  0  0  0  0
    7.0638   -1.5547   45.3901 C   0  0  0  0  0  0  0  0  0  0  0  0
    8.1236   -1.7716   46.1955 N   0  0  0  0  0  0  0  0  0  0  0  0
    8.2094   -2.8913   46.8920 C   0  0  0  0  0  0  0  0  0  0  0  0
    9.2612   -3.1370   47.7291 N   0  0  0  0  0  0  0  0  0  0  0  0
    7.1470   -3.8432   46.7961 C   0  0  0  0  0  0  0  0  0  0  0  0
    6.1102   -3.6570   46.0780 C   0  0  0  0  0  0  0  0  0  0  0  0
   -0.8470   -2.8229   41.7811 F   0  0  0  0  0  0  0  0  0  0  0  0
    1.1613   -1.1107   41.2568 F   0  0  0  0  0  0  0  0  0  0  0  0
    9.4734   -3.9991   48.5063 C   0  0  0  0  0  0  0  0  0  0  0  0
   10.1006   -4.0483   49.5149 C   0  0  0  0  0  0  0  0  0  0  0  0
   10.1124   -3.1193   50.2227 C   0  0  0  0  0  0  0  0  0  0  0  0
   10.2252   -1.7292   49.5732 C   0  0  1  0  0  0  0  0  0  0  0  0
    9.4890   -1.7746   48.3087 C   0  0  0  0  0  0  0  0  0  0  0  0
    4.3694   -4.8002   44.7221 C   0  0  0  0  0  0  0  0  0  0  0  0
    5.2448   -4.7166   45.8009 N   0  0  0  0  0  0  0  0  0  0  0  0
   10.0542   -0.5635   50.4843 C   0  0  2  0  0  0  0  0  0  0  0  0
   11.4179    0.1694   50.5440 C   0  0  0  0  0  0  0  0  0  0  0  0
   12.0940   -0.1266   51.6296 C   0  0  0  0  0  0  0  0  0  0  0  0
   11.6135   -0.5750   52.7050 C   0  0  0  0  0  0  0  0  0  0  0  0
   10.2450   -0.4931   52.9137 C   0  0  0  0  0  0  0  0  0  0  0  0
    9.3994   -0.6371   51.5029 O   0  0  0  0  0  0  0  0  0  0  0  0
  7  4  1  6
  7  8  1  0
  8  9  1  0
 12 13  1  0
  1 16  1  0
  2 17  1  0
 13 18  1  0
 19 20  1  0
 13 22  1  0
 21 22  1  6
  7 23  1  0
 15 24  1  0
 23 24  1  0
 21 25  1  0
 25 26  1  1
 26 27  1  0
 27 28  2  0
 28 29  1  0
 25 30  1  0
 29 30  1  0
 18 19  1  0
 20 21  1  0
  1  2  2  0
  2  3  1  0
  3  4  2  0
  4  5  1  0
  5  6  2  0
  6  1  1  0
  9 10  2  0
 10 11  1  0
 11 12  2  0
 12 14  1  0
 14 15  2  0
 15  9  1  0
M  END
$$$$
O14757_PocketFlow_idx-in-all-generaetd-881
     RDKit          3D

 35 40  0  0  0  0  0  0  0  0999 V2000
   -0.6395   -2.0713   41.4947 C   0  0  0  0  0  0  0  0  0  0  0  0
    0.1859   -1.1027   41.5970 C   0  0  0  0  0  0  0  0  0  0  0  0
   -0.2410   -3.3795   41.5297 C   0  0  0  0  0  0  0  0  0  0  0  0
    1.6125   -1.3642   41.8466 C   0  0  0  0  0  0  0  0  0  0  0  0
    1.9568   -2.7213   42.1561 C   0  0  0  0  0  0  0  0  0  0  0  0
    0.9568   -3.6932   42.0424 C   0  0  0  0  0  0  0  0  0  0  0  0
    2.5392   -0.3092   42.1184 C   0  0  0  0  0  0  0  0  0  0  0  0
    3.7977   -0.5936   42.5018 N   0  0  0  0  0  0  0  0  0  0  0  0
    4.6927    0.3147   42.8619 C   0  0  0  0  0  0  0  0  0  0  0  0
   -2.0813   -1.8298   41.0629 C   0  0  0  0  0  0  0  0  0  0  0  0
   -2.8202   -2.7386   40.5190 N   0  0  0  0  0  0  0  0  0  0  0  0
   -2.5508   -0.6388   41.2596 F   0  0  0  0  0  0  0  0  0  0  0  0
    2.2698    0.8402   41.7799 O   0  0  0  0  0  0  0  0  0  0  0  0
    5.8647   -0.4237   43.5826 C   0  0  0  0  0  0  0  0  0  0  0  0
    5.5869   -1.6896   44.1899 C   0  0  0  0  0  0  0  0  0  0  0  0
    6.4114   -2.1180   45.2652 C   0  0  0  0  0  0  0  0  0  0  0  0
    6.2282   -3.3929   45.7955 C   0  0  0  0  0  0  0  0  0  0  0  0
    5.0308   -4.0436   45.4637 C   0  0  0  0  0  0  0  0  0  0  0  0
    4.2113   -3.5759   44.4703 C   0  0  0  0  0  0  0  0  0  0  0  0
    4.5065   -2.3748   43.8620 C   0  0  0  0  0  0  0  0  0  0  0  0
    3.8298   -1.8793   43.0940 C   0  0  0  0  0  0  0  0  0  0  0  0
    2.8287   -2.6115   42.6306 N   0  0  0  0  0  0  0  0  0  0  0  0
    7.1439   -3.8732   46.8482 C   0  0  0  0  0  0  0  0  0  0  0  0
    6.6822   -4.3704   48.0981 C   0  0  0  0  0  0  0  0  0  0  0  0
    7.3545   -4.3156   49.2338 C   0  0  0  0  0  0  0  0  0  0  0  0
    8.6330   -3.8382   49.2967 C   0  0  0  0  0  0  0  0  0  0  0  0
    9.2056   -3.3447   48.0762 C   0  0  0  0  0  0  0  0  0  0  0  0
    8.4823   -3.2493   46.8806 C   0  0  0  0  0  0  0  0  0  0  0  0
    9.4051   -3.8285   50.5565 C   0  0  0  0  0  0  0  0  0  0  0  0
    9.8657   -4.8934   51.0811 C   0  0  0  0  0  0  0  0  0  0  0  0
    9.4052   -2.4911   51.2514 C   0  0  0  0  0  0  0  0  0  0  0  0
    9.9336   -2.3675   52.4095 C   0  0  0  0  0  0  0  0  0  0  0  0
   10.4514   -4.7982   52.4535 C   0  0  0  0  0  0  0  0  0  0  0  0
   10.4815   -3.5329   53.1207 C   0  0  0  0  0  0  0  0  0  0  0  0
    9.7935   -6.1543   50.5622 C   0  0  0  0  0  0  0  0  0  0  0  0
  4  7  1  0
  7  8  1  0
  8  9  1  0
  1 10  1  0
 10 11  1  0
 10 12  1  0
  7 13  2  0
  9 14  1  0
 14 15  1  0
  8 21  1  0
 20 21  1  0
  5 22  1  0
 21 22  1  0
 17 23  1  0
 26 29  1  0
 30 35  1  0
 15 16  2  0
 16 17  1  0
 17 18  2  0
 18 19  1  0
 19 20  2  0
 20 15  1  0
 23 24  2  0
 24 25  1  0
 25 26  2  0
 26 27  1  0
 27 28  2  0
 28 23  1  0
 29 30  2  0
 30 33  1  0
 33 34  2  0
 34 32  1  0
 32 31  2  0
 31 29  1  0
  1  2  2  0
  2  4  1  0
  4  5  2  0
  5  6  1  0
  6  3  2  0
  3  1  1  0
M  END
$$$$
O14757_PocketFlow_idx-in-all-generaetd-882
     RDKit          3D

 10 10  0  0  0  0  0  0  0  0999 V2000
   -0.6395   -2.0713   41.4947 C   0  0  0  0  0  0  0  0  0  0  0  0
    0.6719   -2.2449   41.7518 C   0  0  0  0  0  0  0  0  0  0  0  0
    1.5951   -1.1948   41.6106 C   0  0  0  0  0  0  0  0  0  0  0  0
    2.8936   -1.2860   42.2441 C   0  0  0  0  0  0  0  0  0  0  0  0
    3.7940   -0.2219   42.2897 C   0  0  0  0  0  0  0  0  0  0  0  0
   -1.1130   -0.8192   41.4494 O   0  0  0  0  0  0  0  0  0  0  0  0
    4.9951   -0.3796   43.0438 C   0  0  0  0  0  0  0  0  0  0  0  0
    5.0409   -1.4317   43.9056 C   0  0  0  0  0  0  0  0  0  0  0  0
    4.1485   -2.4659   43.9268 C   0  0  0  0  0  0  0  0  0  0  0  0
    3.0179   -2.3328   43.1470 C   0  0  0  0  0  0  0  0  0  0  0  0
  1  2  1  0
  2  3  1  0
  3  4  1  0
  1  6  2  0
  4  5  2  0
  5  7  1  0
  7  8  2  0
  8  9  1  0
  9 10  2  0
 10  4  1  0
M  END
$$$$
O14757_PocketFlow_idx-in-all-generaetd-883
     RDKit          3D

 27 30  0  0  0  0  0  0  0  0999 V2000
   -0.8794   -1.9236   41.9357 O   0  0  0  0  0  0  0  0  0  0  0  0
    0.3182   -2.2442   41.7074 C   0  0  0  0  0  0  0  0  0  0  0  0
    1.3036   -2.2273   42.6607 C   0  0  0  0  0  0  0  0  0  0  0  0
    2.6349   -1.9130   42.3734 C   0  0  0  0  0  0  0  0  0  0  0  0
    3.5862   -1.7959   43.4053 C   0  0  0  0  0  0  0  0  0  0  0  0
    3.6114   -2.7137   44.4646 C   0  0  0  0  0  0  0  0  0  0  0  0
    2.4907   -3.5650   44.6124 C   0  0  0  0  0  0  0  0  0  0  0  0
    1.3387   -3.3388   43.7574 C   0  0  0  0  0  0  0  0  0  0  0  0
    4.7646   -2.9746   45.2897 C   0  0  0  0  0  0  0  0  0  0  0  0
    5.7913   -2.0314   45.2730 C   0  0  0  0  0  0  0  0  0  0  0  0
    6.8801   -2.2788   46.1839 C   0  0  0  0  0  0  0  0  0  0  0  0
    6.8979   -3.3973   46.9734 C   0  0  0  0  0  0  0  0  0  0  0  0
    5.7864   -4.2634   46.9853 C   0  0  0  0  0  0  0  0  0  0  0  0
    4.7206   -4.0231   46.1622 C   0  0  0  0  0  0  0  0  0  0  0  0
    0.5041   -2.7909   40.5615 O   0  0  0  0  0  0  0  0  0  0  0  0
    8.0702   -3.6295   47.8676 C   0  0  0  0  0  0  0  0  0  0  0  0
    7.8689   -4.1688   49.0945 C   0  0  0  0  0  0  0  0  0  0  0  0
    7.1491   -4.8203   49.5410 C   0  0  0  0  0  0  0  0  0  0  0  0
    6.1038   -5.4662   48.7462 C   0  0  2  0  0  0  0  0  0  0  0  0
    5.3708   -5.0214   47.8426 N   0  0  0  0  0  0  0  0  0  0  0  0
    5.7244   -6.7588   49.3295 N   0  0  0  0  0  0  0  0  0  0  0  0
    5.3494   -7.8206   48.6335 C   0  0  0  0  0  0  0  0  0  0  0  0
    6.0446   -9.0150   49.0041 C   0  0  0  0  0  0  0  0  0  0  0  0
    5.9930  -10.1164   48.4040 C   0  0  0  0  0  0  0  0  0  0  0  0
    4.9485  -10.2100   47.3961 C   0  0  0  0  0  0  0  0  0  0  0  0
    4.2124   -9.0860   47.0708 C   0  0  0  0  0  0  0  0  0  0  0  0
    4.4763   -7.8919   47.6683 C   0  0  0  0  0  0  0  0  0  0  0  0
  1  2  1  0
  2  3  1  0
  6  9  1  0
  2 15  2  0
 12 16  1  0
 16 17  1  0
 17 18  2  0
 18 19  1  0
 13 20  1  0
 19 20  1  0
 19 21  1  1
 21 22  1  0
 22 23  2  0
 23 24  1  0
 24 25  2  0
 25 26  1  0
 26 27  2  0
 27 22  1  0
  3  4  2  0
  4  5  1  0
  5  6  2  0
  6  7  1  0
  7  8  2  0
  8  3  1  0
  9 10  2  0
 10 11  1  0
 11 12  2  0
 12 13  1  0
 13 14  2  0
 14  9  1  0
M  END
$$$$
O14757_PocketFlow_idx-in-all-generaetd-884
     RDKit          3D

 18 19  0  0  0  0  0  0  0  0999 V2000
   -0.6395   -2.0713   41.4947 C   0  0  0  0  0  0  0  0  0  0  0  0
   -0.2671   -3.2464   41.6546 C   0  0  0  0  0  0  0  0  0  0  0  0
    0.2277   -0.9875   41.6495 C   0  0  0  0  0  0  0  0  0  0  0  0
    1.6284   -1.2752   41.8841 C   0  0  0  0  0  0  0  0  0  0  0  0
    1.9209   -2.6657   42.2361 C   0  0  0  0  0  0  0  0  0  0  0  0
    3.1938   -2.8774   42.9001 C   0  0  0  0  0  0  0  0  0  0  0  0
    0.9832   -3.6161   42.1007 C   0  0  0  0  0  0  0  0  0  0  0  0
    3.9549   -1.8054   43.1446 C   0  0  0  0  0  0  0  0  0  0  0  0
    3.6998   -0.4856   42.6789 C   0  0  0  0  0  0  0  0  0  0  0  0
    2.4877   -0.2058   42.1923 C   0  0  0  0  0  0  0  0  0  0  0  0
    4.7124    0.4422   42.9245 N   0  0  0  0  0  0  0  0  0  0  0  0
   -2.0387   -1.7296   41.0549 C   0  0  0  0  0  0  0  0  0  0  0  0
   -3.1118   -1.6870   40.7728 N   0  0  0  0  0  0  0  0  0  0  0  0
    5.3044   -1.9989   43.7735 C   0  0  0  0  0  0  0  0  0  0  0  0
    5.4076   -1.8059   45.1395 C   0  0  0  0  0  0  0  0  0  0  0  0
    6.5435   -2.2851   45.8730 C   0  0  0  0  0  0  0  0  0  0  0  0
    7.8041   -1.7405   45.8430 C   0  0  0  0  0  0  0  0  0  0  0  0
    8.8916   -2.3179   46.4466 C   0  0  0  0  0  0  0  0  0  0  0  0
  1 12  1  0
 12 13  3  0
  8 14  1  0
 14 15  1  0
 15 16  2  3
 16 17  1  0
 17 18  2  0
 11  9  1  0
  1  2  2  0
  2  7  1  0
  7  5  2  0
  4  3  2  0
  3  1  1  0
  4  5  1  0
  5  6  1  0
  6  8  2  0
  8  9  1  0
  9 10  2  0
 10  4  1  0
M  END
$$$$
O14757_PocketFlow_idx-in-all-generaetd-885
     RDKit          3D

 22 24  0  0  0  0  0  0  0  0999 V2000
   -0.6395   -2.0713   41.4947 C   0  0  0  0  0  0  0  0  0  0  0  0
    0.6719   -2.2449   41.7518 C   0  0  0  0  0  0  0  0  0  0  0  0
    1.5951   -1.1948   41.6106 C   0  0  0  0  0  0  0  0  0  0  0  0
    2.8936   -1.2860   42.2441 C   0  0  0  0  0  0  0  0  0  0  0  0
    3.2021   -2.2591   43.1862 C   0  0  0  0  0  0  0  0  0  0  0  0
    4.4778   -2.3024   43.8362 C   0  0  0  0  0  0  0  0  0  0  0  0
    4.9838   -1.5729   44.4529 C   0  0  0  0  0  0  0  0  0  0  0  0
    6.2240   -1.7917   45.2052 C   0  0  0  0  0  0  0  0  0  0  0  0
    6.2913   -3.2093   45.6489 C   0  0  0  0  0  0  0  0  0  0  0  0
    5.4030   -4.1225   45.2236 C   0  0  0  0  0  0  0  0  0  0  0  0
    4.4108   -3.6843   44.3105 C   0  0  0  0  0  0  0  0  0  0  0  0
    1.9559   -2.9924   43.3078 C   0  0  0  0  0  0  0  0  0  0  0  0
    0.8069   -3.0380   42.8049 C   0  0  0  0  0  0  0  0  0  0  0  0
   -1.2664   -0.9704   41.4155 O   0  0  0  0  0  0  0  0  0  0  0  0
   -1.3585   -3.0619   40.8376 O   0  0  0  0  0  0  0  0  0  0  0  0
    7.4989   -3.4803   46.5056 C   0  0  0  0  0  0  0  0  0  0  0  0
    7.4162   -4.3098   47.6276 C   0  0  0  0  0  0  0  0  0  0  0  0
    8.5011   -4.4151   48.4791 C   0  0  0  0  0  0  0  0  0  0  0  0
    8.7595   -2.8874   46.3101 C   0  0  0  0  0  0  0  0  0  0  0  0
    9.8531   -3.0560   47.1085 C   0  0  0  0  0  0  0  0  0  0  0  0
    9.7164   -3.8282   48.2195 C   0  0  0  0  0  0  0  0  0  0  0  0
    5.3215   -0.0963   43.8261 C   0  0  0  0  0  0  0  0  0  0  0  0
  1  2  1  0
  5  6  1  0
  1 14  2  0
  1 15  1  0
  9 16  1  0
  7 22  1  0
  2  3  2  0
  3  4  1  0
  4  5  2  0
  5 12  1  0
 12 13  2  0
 13  2  1  0
  6  7  2  0
  7  8  1  0
  8  9  2  0
  9 10  1  0
 10 11  2  0
 11  6  1  0
 16 17  2  0
 17 18  1  0
 18 21  2  0
 21 20  1  0
 20 19  2  0
 19 16  1  0
M  END
$$$$
O14757_PocketFlow_idx-in-all-generaetd-886
     RDKit          3D

 35 40  0  0  0  0  0  0  0  0999 V2000
    0.2881   -2.9111   42.4378 C   0  0  0  0  0  0  0  0  0  0  0  0
    1.3023   -2.0648   42.1981 C   0  0  0  0  0  0  0  0  0  0  0  0
    2.5313   -2.2887   42.6989 C   0  0  0  0  0  0  0  0  0  0  0  0
    3.5918   -1.3644   42.5325 C   0  0  0  0  0  0  0  0  0  0  0  0
    3.3299   -0.0611   42.1413 C   0  0  0  0  0  0  0  0  0  0  0  0
    0.5929   -4.0815   43.1930 C   0  0  0  0  0  0  0  0  0  0  0  0
    1.7551   -4.1680   43.9291 C   0  0  0  0  0  0  0  0  0  0  0  0
    1.9634   -5.1792   44.8846 C   0  0  2  0  0  0  0  0  0  0  0  0
    2.7885   -3.3276   43.7070 C   0  0  0  0  0  0  0  0  0  0  0  0
    0.9701   -5.4965   45.8130 C   0  0  0  0  0  0  0  0  0  0  0  0
    0.3973   -6.7958   45.7978 C   0  0  0  0  0  0  0  0  0  0  0  0
    2.0593    0.2588   41.6219 C   0  0  0  0  0  0  0  0  0  0  0  0
    0.9869   -0.6895   41.6733 C   0  0  0  0  0  0  0  0  0  0  0  0
   -0.7387   -6.9897   46.6490 C   0  0  0  0  0  0  0  0  0  0  0  0
   -1.8131   -7.6216   46.1398 C   0  0  0  0  0  0  0  0  0  0  0  0
   -1.9091   -7.7529   44.7207 C   0  0  0  0  0  0  0  0  0  0  0  0
   -0.8270   -7.4269   43.8851 C   0  0  0  0  0  0  0  0  0  0  0  0
    0.3057   -6.8830   44.4747 C   0  0  0  0  0  0  0  0  0  0  0  0
   -3.1056   -8.3314   44.0663 C   0  0  0  0  0  0  0  0  0  0  0  0
   -3.6002   -7.9714   42.8929 N   0  0  0  0  0  0  0  0  0  0  0  0
   -3.8722   -9.3758   44.7275 C   0  0  0  0  0  0  0  0  0  0  0  0
    3.9882   -3.4839   44.2467 N   0  0  0  0  0  0  0  0  0  0  0  0
    4.3445   -4.1811   45.2888 C   0  0  1  0  0  0  0  0  0  0  0  0
    5.5469   -4.0482   46.0426 C   0  0  0  0  0  0  0  0  0  0  0  0
    3.1940   -5.0666   45.8029 C   0  0  0  0  0  0  0  0  0  0  0  0
    5.7474   -2.8759   46.7861 C   0  0  0  0  0  0  0  0  0  0  0  0
    5.5153   -1.7081   46.0507 C   0  0  0  0  0  0  0  0  0  0  0  0
    4.3216   -1.0045   45.9644 C   0  0  0  0  0  0  0  0  0  0  0  0
    6.5514   -1.4999   44.9710 C   0  0  0  0  0  0  0  0  0  0  0  0
    6.9190   -0.6556   44.5787 N   0  0  0  0  0  0  0  0  0  0  0  0
    4.6143    0.2565   45.2400 C   0  0  0  0  0  0  0  0  0  0  0  0
    5.7737    0.3248   44.4036 C   0  0  0  0  0  0  0  0  0  0  0  0
   -5.0010   -9.7703   44.0917 C   0  0  0  0  0  0  0  0  0  0  0  0
   -4.6820   -8.2996   42.3514 C   0  0  0  0  0  0  0  0  0  0  0  0
   -5.3972   -9.2272   42.9585 N   0  0  0  0  0  0  0  0  0  0  0  0
  7  8  1  0
  8 10  1  1
 16 19  1  0
  9 22  1  0
 22 23  1  0
 23 24  1  1
  8 25  1  0
 23 25  1  0
 24 26  1  0
 26 27  1  0
 10 11  1  0
 19 20  2  0
 20 34  1  0
 34 35  2  0
 35 33  1  0
 33 21  2  0
 21 19  1  0
  1  2  2  0
  3  9  2  0
  9  7  1  0
  7  6  2  0
  6  1  1  0
 27 28  2  0
 28 31  1  0
 31 32  2  0
 32 30  1  0
 30 29  2  0
 29 27  1  0
  2  3  1  0
  3  4  1  0
  4  5  2  0
  5 12  1  0
 12 13  2  0
 13  2  1  0
 11 14  2  0
 14 15  1  0
 15 16  2  0
 16 17  1  0
 17 18  2  0
 18 11  1  0
M  END
$$$$
O14757_PocketFlow_idx-in-all-generaetd-887
     RDKit          3D

 35 37  0  0  0  0  0  0  0  0999 V2000
   -0.6395   -2.0713   41.4947 C   0  0  0  0  0  0  0  0  0  0  0  0
    0.1859   -1.1027   41.5970 C   0  0  0  0  0  0  0  0  0  0  0  0
    1.5836   -1.3270   41.4669 C   0  0  0  0  0  0  0  0  0  0  0  0
   -0.2462   -3.3905   41.2409 C   0  0  0  0  0  0  0  0  0  0  0  0
    2.5788   -0.3160   41.7511 C   0  0  0  0  0  0  0  0  0  0  0  0
    2.0421    0.8659   42.2616 C   0  0  0  0  0  0  0  0  0  0  0  0
    1.0936   -3.6134   41.1237 N   0  0  0  0  0  0  0  0  0  0  0  0
    1.9651   -2.5932   41.1953 C   0  0  0  0  0  0  0  0  0  0  0  0
    3.1597    1.7490   42.5083 N   0  0  0  0  0  0  0  0  0  0  0  0
    4.2341    0.8633   42.2707 N   0  0  0  0  0  0  0  0  0  0  0  0
    3.8233   -0.3485   42.0557 C   0  0  2  0  0  0  0  0  0  0  0  0
   -2.0162   -1.8513   41.6057 O   0  0  0  0  0  0  0  0  0  0  0  0
   -2.8322   -2.0262   40.5296 C   0  0  0  0  0  0  0  0  0  0  0  0
    4.6681   -1.4281   41.9051 N   0  0  0  0  0  0  0  0  0  0  0  0
    4.5829   -2.3734   42.9822 C   0  0  0  0  0  0  0  0  0  0  0  0
    4.6147   -2.2964   44.3999 C   0  0  0  0  0  0  0  0  0  0  0  0
    4.4606   -3.2896   45.2193 C   0  0  0  0  0  0  0  0  0  0  0  0
    4.6385   -3.1312   46.6127 C   0  0  0  0  0  0  0  0  0  0  0  0
    5.6315   -3.3396   47.1401 C   0  0  0  0  0  0  0  0  0  0  0  0
    6.1890   -4.7072   47.1900 C   0  0  0  0  0  0  0  0  0  0  0  0
    6.2646   -5.4435   48.2870 C   0  0  0  0  0  0  0  0  0  0  0  0
    6.6265   -4.7111   49.4176 C   0  0  0  0  0  0  0  0  0  0  0  0
    8.0356   -4.5435   49.6791 N   0  0  0  0  0  0  0  0  0  0  0  0
    8.6102   -5.3209   50.0483 C   0  0  0  0  0  0  0  0  0  0  0  0
    3.9038   -4.5266   44.7081 C   0  0  0  0  0  0  0  0  0  0  0  0
    3.0697   -5.3368   45.0611 C   0  0  0  0  0  0  0  0  0  0  0  0
    2.7379   -6.5820   44.4486 C   0  0  0  0  0  0  0  0  0  0  0  0
    1.7999   -7.4560   45.0254 C   0  0  0  0  0  0  0  0  0  0  0  0
    0.5475   -6.8993   45.6316 C   0  0  0  0  0  0  0  0  0  0  0  0
   -0.3986   -7.7107   46.1558 C   0  0  0  0  0  0  0  0  0  0  0  0
   -1.7856   -7.3720   45.9571 C   0  0  0  0  0  0  0  0  0  0  0  0
   -2.6859   -8.4146   46.1210 C   0  0  0  0  0  0  0  0  0  0  0  0
   -2.3507   -9.5719   46.7455 C   0  0  0  0  0  0  0  0  0  0  0  0
   -1.0828   -9.8164   47.1040 C   0  0  0  0  0  0  0  0  0  0  0  0
   -0.0322   -8.9393   46.7082 C   0  0  0  0  0  0  0  0  0  0  0  0
  3  5  1  0
  5  6  2  0
  6  9  1  0
  9 10  1  0
  5 11  1  0
 10 11  1  0
  1 12  1  0
 12 13  1  0
 11 14  1  6
 14 15  1  0
 15 16  1  0
 16 17  2  3
 17 18  1  0
 18 19  2  3
 19 20  1  0
 20 21  1  0
 21 22  1  0
 22 23  1  0
 23 24  1  0
 17 25  1  0
 25 26  2  3
 26 27  1  0
 27 28  2  3
 28 29  1  0
 29 30  1  0
  1  2  2  0
  2  3  1  0
  3  8  2  0
  8  7  1  0
  7  4  2  0
  4  1  1  0
 30 31  2  0
 31 32  1  0
 32 33  2  0
 33 34  1  0
 34 35  2  0
 35 30  1  0
M  END
$$$$
O14757_PocketFlow_idx-in-all-generaetd-888
     RDKit          3D

 32 34  0  0  0  0  0  0  0  0999 V2000
    0.2881   -2.9111   42.4378 C   0  0  0  0  0  0  0  0  0  0  0  0
    1.1784   -3.4293   42.9321 C   0  0  0  0  0  0  0  0  0  0  0  0
    2.4696   -2.7231   42.8997 C   0  0  0  0  0  0  0  0  0  0  0  0
    3.6320   -3.1839   43.6508 C   0  0  0  0  0  0  0  0  0  0  0  0
    3.6589   -3.6935   44.7115 C   0  0  0  0  0  0  0  0  0  0  0  0
    2.3060   -4.4027   45.0245 C   0  0  0  0  0  0  0  0  0  0  0  0
    1.1569   -4.1569   44.2540 C   0  0  0  0  0  0  0  0  0  0  0  0
   -0.4290   -3.8123   41.4588 C   0  0  0  0  0  0  0  0  0  0  0  0
   -0.1692   -1.5323   42.2401 C   0  0  0  0  0  0  0  0  0  0  0  0
   -1.3013   -1.2763   41.6498 O   0  0  0  0  0  0  0  0  0  0  0  0
    0.5754   -0.5465   42.6196 O   0  0  0  0  0  0  0  0  0  0  0  0
    4.7473   -4.0304   45.5819 C   0  0  0  0  0  0  0  0  0  0  0  0
    4.6624   -4.4843   46.8352 C   0  0  0  0  0  0  0  0  0  0  0  0
    5.8189   -4.5652   47.6554 C   0  0  0  0  0  0  0  0  0  0  0  0
    7.0333   -4.0164   47.3034 C   0  0  0  0  0  0  0  0  0  0  0  0
    7.0514   -3.3352   45.9971 C   0  0  0  0  0  0  0  0  0  0  0  0
    5.8994   -3.2824   45.2302 C   0  0  0  0  0  0  0  0  0  0  0  0
    8.1860   -3.9757   48.1453 C   0  0  0  0  0  0  0  0  0  0  0  0
    8.9558   -5.0502   48.2494 C   0  0  1  0  0  0  0  0  0  0  0  0
    8.6777   -6.2097   48.1016 C   0  0  0  0  0  0  0  0  0  0  0  0
    9.6130   -7.3283   48.0351 C   0  0  0  0  0  0  0  0  0  0  0  0
    9.1807   -8.6709   47.7590 C   0  0  0  0  0  0  0  0  0  0  0  0
    7.8045   -8.8746   47.7048 C   0  0  0  0  0  0  0  0  0  0  0  0
    6.8849   -7.9205   47.8827 C   0  0  0  0  0  0  0  0  0  0  0  0
    7.2789   -6.6792   48.0849 C   0  0  0  0  0  0  0  0  0  0  0  0
   10.4732   -4.6638   48.2417 C   0  0  0  0  0  0  0  0  0  0  0  0
   11.1298   -4.4962   47.2094 N   0  0  0  0  0  0  0  0  0  0  0  0
   11.4975   -3.4950   46.7407 C   0  0  0  0  0  0  0  0  0  0  0  0
   11.8757   -2.4596   47.0765 C   0  0  0  0  0  0  0  0  0  0  0  0
   11.7819   -1.4167   47.1970 C   0  0  0  0  0  0  0  0  0  0  0  0
   11.5338   -0.1787   47.5357 C   0  0  0  0  0  0  0  0  0  0  0  0
   12.7639    0.6602   47.5357 C   0  0  0  0  0  0  0  0  0  0  0  0
  1  2  1  0
  1  8  2  0
  1  9  1  0
  9 10  2  0
  9 11  1  0
  5 12  1  0
 15 18  1  0
 19 18  1  6
 19 20  1  0
 19 26  1  0
 26 27  1  0
 27 28  1  0
 28 29  2  3
 29 30  1  0
 30 31  2  3
 31 32  1  0
 12 13  2  0
 13 14  1  0
 14 15  2  0
 15 16  1  0
 16 17  2  0
 17 12  1  0
  2  3  2  0
  3  4  1  0
  4  5  2  0
  5  6  1  0
  6  7  2  0
  7  2  1  0
 20 21  2  0
 21 22  1  0
 22 23  2  0
 23 24  1  0
 24 25  2  0
 25 20  1  0
M  END
$$$$
O14757_PocketFlow_idx-in-all-generaetd-889
     RDKit          3D

 33 35  0  0  0  0  0  0  0  0999 V2000
    0.2881   -2.9111   42.4378 C   0  0  0  0  0  0  0  0  0  0  0  0
    1.3023   -2.0648   42.1981 C   0  0  0  0  0  0  0  0  0  0  0  0
    1.0183   -0.8915   41.4899 C   0  0  0  0  0  0  0  0  0  0  0  0
    0.6183   -4.1900   43.0459 C   0  0  0  0  0  0  0  0  0  0  0  0
    1.7821   -4.2576   43.8203 C   0  0  0  0  0  0  0  0  0  0  0  0
    2.7511   -3.2642   43.7093 C   0  0  0  0  0  0  0  0  0  0  0  0
    2.5114   -2.1263   42.8883 C   0  0  0  0  0  0  0  0  0  0  0  0
    4.0208   -3.3815   44.4848 C   0  0  0  0  0  0  0  0  0  0  0  0
    4.2702   -4.4382   45.2813 C   0  0  0  0  0  0  0  0  0  0  0  0
    4.9859   -2.3394   44.3388 C   0  0  0  0  0  0  0  0  0  0  0  0
    4.9509   -1.1823   43.6272 C   0  0  2  0  0  0  0  0  0  0  0  0
    5.8228   -0.1095   43.6509 C   0  0  0  0  0  0  0  0  0  0  0  0
    3.7570   -0.8888   42.7436 C   0  0  0  0  0  0  0  0  0  0  0  0
    3.9097   -4.2377   46.7402 C   0  0  0  0  0  0  0  0  0  0  0  0
   -0.8288   -2.8781   41.7883 O   0  0  0  0  0  0  0  0  0  0  0  0
    5.2594   -3.8130   47.4862 C   0  0  0  0  0  0  0  0  0  0  0  0
    5.8995   -4.8520   48.2284 C   0  0  0  0  0  0  0  0  0  0  0  0
    6.9864   -4.4450   48.9782 C   0  0  0  0  0  0  0  0  0  0  0  0
    8.1936   -4.8173   49.0152 C   0  0  0  0  0  0  0  0  0  0  0  0
    8.6393   -5.7116   48.0702 C   0  0  0  0  0  0  0  0  0  0  0  0
    7.8541   -6.7701   47.8583 C   0  0  0  0  0  0  0  0  0  0  0  0
    6.5111   -6.9229   47.6240 C   0  0  0  0  0  0  0  0  0  0  0  0
    5.7755   -6.0554   47.7427 C   0  0  0  0  0  0  0  0  0  0  0  0
    1.9314   -0.1956   40.9667 O   0  0  0  0  0  0  0  0  0  0  0  0
   -0.2135   -0.5671   41.3248 O   0  0  0  0  0  0  0  0  0  0  0  0
   10.0258   -5.5638   47.5418 C   0  0  1  0  0  0  0  0  0  0  0  0
   10.4414   -6.4920   46.7900 C   0  0  0  0  0  0  0  0  0  0  0  0
   10.7178   -4.3053   47.6732 C   0  0  0  0  0  0  0  0  0  0  0  0
   10.4539   -3.3185   47.1585 C   0  0  0  0  0  0  0  0  0  0  0  0
   11.2673   -2.0744   47.2854 C   0  0  0  0  0  0  0  0  0  0  0  0
   12.2576   -1.9843   48.1845 C   0  0  0  0  0  0  0  0  0  0  0  0
   12.5204   -3.1711   48.8753 C   0  0  0  0  0  0  0  0  0  0  0  0
   11.7965   -4.3390   48.6916 C   0  0  0  0  0  0  0  0  0  0  0  0
  2  3  1  0
  6  8  1  0
  8  9  2  3
  8 10  1  0
 10 11  1  0
 11 12  1  1
  7 13  1  0
 11 13  1  0
  9 14  1  0
  1 15  1  0
 14 16  1  0
 16 17  1  0
 17 18  2  0
 18 19  1  0
 19 20  2  0
 20 21  1  0
 21 22  2  0
 17 23  1  0
 22 23  1  0
  3 24  2  0
  3 25  1  0
 20 26  1  0
 26 27  1  6
 26 28  1  0
 28 29  2  3
 29 30  1  0
 30 31  2  3
 31 32  1  0
 32 33  2  0
  1  2  2  0
  2  7  1  0
  7  6  2  0
  6  5  1  0
  5  4  2  0
  4  1  1  0
M  END
$$$$
O14757_PocketFlow_idx-in-all-generaetd-890
     RDKit          3D

 32 34  0  0  0  0  0  0  0  0999 V2000
   -0.6395   -2.0713   41.4947 C   0  0  0  0  0  0  0  0  0  0  0  0
    0.6719   -2.2449   41.7518 C   0  0  0  0  0  0  0  0  0  0  0  0
    1.3815   -1.6359   42.7231 C   0  0  0  0  0  0  0  0  0  0  0  0
   -1.3884   -2.9047   40.6798 C   0  0  0  0  0  0  0  0  0  0  0  0
    2.7413   -2.0881   43.0207 C   0  0  2  0  0  0  0  0  0  0  0  0
    3.0175   -3.1895   43.8927 C   0  0  0  0  0  0  0  0  0  0  0  0
    2.1656   -4.1405   44.3537 C   0  0  0  0  0  0  0  0  0  0  0  0
    2.3184   -4.9300   45.1540 C   0  0  0  0  0  0  0  0  0  0  0  0
    1.2674   -5.8732   45.6861 C   0  0  0  0  0  0  0  0  0  0  0  0
    0.8133   -6.7744   44.9839 C   0  0  0  0  0  0  0  0  0  0  0  0
   -0.3775   -7.5904   45.4218 C   0  0  0  0  0  0  0  0  0  0  0  0
   -0.7682   -7.5573   46.6896 C   0  0  0  0  0  0  0  0  0  0  0  0
   -0.2288   -6.4326   47.4866 C   0  0  0  0  0  0  0  0  0  0  0  0
    0.7667   -5.6064   47.0399 C   0  0  0  0  0  0  0  0  0  0  0  0
    3.8183   -5.2157   45.4152 C   0  0  0  0  0  0  0  0  0  0  0  0
    4.7733   -4.2913   45.0679 C   0  0  0  0  0  0  0  0  0  0  0  0
    4.4219   -3.3011   44.2559 C   0  0  0  0  0  0  0  0  0  0  0  0
    3.7489   -1.1794   42.6177 C   0  0  0  0  0  0  0  0  0  0  0  0
    4.0151    0.0203   43.4196 C   0  0  0  0  0  0  0  0  0  0  0  0
    5.0891    0.7881   42.8206 N   0  0  0  0  0  0  0  0  0  0  0  0
   -1.9153   -8.3129   47.1318 C   0  0  0  0  0  0  0  0  0  0  0  0
   -2.2715   -8.4870   48.2274 O   0  0  0  0  0  0  0  0  0  0  0  0
   -2.6325   -8.9495   46.0806 O   0  0  0  0  0  0  0  0  0  0  0  0
   -2.3702   -3.3030   41.0690 N   0  0  0  0  0  0  0  0  0  0  0  0
   -3.9403   -8.5669   45.9366 C   0  0  2  0  0  0  0  0  0  0  0  0
   -4.2012   -8.0696   44.5732 C   0  0  0  0  0  0  0  0  0  0  0  0
   -3.3366   -8.4541   43.5200 C   0  0  0  0  0  0  0  0  0  0  0  0
   -5.4475   -7.5069   44.1936 C   0  0  0  0  0  0  0  0  0  0  0  0
   -5.8006   -7.1752   42.8940 C   0  0  0  0  0  0  0  0  0  0  0  0
   -3.6996   -8.0789   42.2042 C   0  0  0  0  0  0  0  0  0  0  0  0
   -4.9056   -7.4972   41.9641 C   0  0  0  0  0  0  0  0  0  0  0  0
   -4.2753   -7.6818   46.9302 O   0  0  0  0  0  0  0  0  0  0  0  0
  1  2  1  0
  2  3  2  3
  1  4  1  0
  3  5  1  0
  8  9  1  0
  5 18  1  1
 18 19  1  0
 19 20  3  0
 12 21  1  0
 21 22  2  0
 21 23  1  0
  4 24  1  0
 23 25  1  0
 25 26  1  0
 25 32  1  1
  5  6  1  0
 26 27  2  0
 27 30  1  0
 30 31  2  0
 31 29  1  0
 29 28  2  0
 28 26  1  0
  6  7  2  0
  7  8  1  0
  8 15  2  0
 15 16  1  0
 16 17  2  0
 17  6  1  0
  9 10  2  0
 10 11  1  0
 11 12  2  0
 12 13  1  0
 13 14  2  0
 14  9  1  0
M  END
$$$$
O14757_PocketFlow_idx-in-all-generaetd-891
     RDKit          3D

  9  9  0  0  0  0  0  0  0  0999 V2000
   -0.6395   -2.0713   41.4947 C   0  0  0  0  0  0  0  0  0  0  0  0
   -0.2671   -3.2464   41.6546 C   0  0  0  0  0  0  0  0  0  0  0  0
    0.2407   -0.9706   41.5952 C   0  0  0  0  0  0  0  0  0  0  0  0
    1.6195   -1.2958   41.8767 C   0  0  0  0  0  0  0  0  0  0  0  0
    1.9162   -2.6816   42.2016 C   0  0  0  0  0  0  0  0  0  0  0  0
    0.9422   -3.6324   42.1156 C   0  0  0  0  0  0  0  0  0  0  0  0
    2.6136   -0.2815   42.1191 C   0  0  0  0  0  0  0  0  0  0  0  0
    3.9096   -0.5773   42.5950 C   0  0  0  0  0  0  0  0  0  0  0  0
    4.0819   -1.8037   43.3231 C   0  0  0  0  0  0  0  0  0  0  0  0
  4  7  1  0
  7  8  2  3
  8  9  1  0
  1  2  2  0
  2  6  1  0
  6  5  2  0
  5  4  1  0
  4  3  2  0
  3  1  1  0
M  END
$$$$
O14757_PocketFlow_idx-in-all-generaetd-892
     RDKit          3D

  9  9  0  0  0  0  0  0  0  0999 V2000
   -0.6395   -2.0713   41.4947 C   0  0  0  0  0  0  0  0  0  0  0  0
   -0.2671   -3.2464   41.6546 C   0  0  0  0  0  0  0  0  0  0  0  0
    0.2407   -0.9706   41.5952 C   0  0  0  0  0  0  0  0  0  0  0  0
    1.6195   -1.2958   41.8767 C   0  0  0  0  0  0  0  0  0  0  0  0
    1.9162   -2.6816   42.2016 C   0  0  0  0  0  0  0  0  0  0  0  0
    0.9422   -3.6324   42.1156 C   0  0  0  0  0  0  0  0  0  0  0  0
    2.7441   -0.4311   42.1842 C   0  0  0  0  0  0  0  0  0  0  0  0
    3.9659   -0.7440   42.6462 C   0  0  0  0  0  0  0  0  0  0  0  0
    4.1168   -2.0899   43.1631 C   0  0  0  0  0  0  0  0  0  0  0  0
  4  7  1  0
  7  8  2  3
  8  9  1  0
  1  2  2  0
  2  6  1  0
  6  5  2  0
  5  4  1  0
  4  3  2  0
  3  1  1  0
M  END
$$$$
O14757_PocketFlow_idx-in-all-generaetd-893
     RDKit          3D

 18 19  0  0  0  0  0  0  0  0999 V2000
    0.2881   -2.9111   42.4378 C   0  0  0  0  0  0  0  0  0  0  0  0
    1.1381   -2.2090   42.3841 O   0  0  0  0  0  0  0  0  0  0  0  0
    0.5829   -4.2771   42.9177 C   0  0  0  0  0  0  0  0  0  0  0  0
   -0.2057   -5.3297   42.9535 C   0  0  0  0  0  0  0  0  0  0  0  0
   -0.8534   -2.7182   41.8785 O   0  0  0  0  0  0  0  0  0  0  0  0
    0.1538   -6.5242   43.6271 C   0  0  0  0  0  0  0  0  0  0  0  0
    1.2342   -6.4637   44.5225 C   0  0  0  0  0  0  0  0  0  0  0  0
    2.0419   -5.3027   44.5829 C   0  0  0  0  0  0  0  0  0  0  0  0
    1.6968   -4.1999   43.9054 C   0  0  0  0  0  0  0  0  0  0  0  0
    3.3143   -5.1323   45.3231 C   0  0  0  0  0  0  0  0  0  0  0  0
    3.9741   -4.0589   45.5471 C   0  0  0  0  0  0  0  0  0  0  0  0
    5.0991   -3.9360   46.3847 C   0  0  0  0  0  0  0  0  0  0  0  0
    5.3357   -4.9531   47.3713 C   0  0  0  0  0  0  0  0  0  0  0  0
    4.6636   -6.1681   47.1243 C   0  0  0  0  0  0  0  0  0  0  0  0
    3.6344   -6.2905   46.2680 C   0  0  0  0  0  0  0  0  0  0  0  0
    6.3939   -4.7986   48.3806 C   0  0  0  0  0  0  0  0  0  0  0  0
    7.0157   -3.8434   48.4575 O   0  0  0  0  0  0  0  0  0  0  0  0
    6.2776   -5.6957   49.3514 O   0  0  0  0  0  0  0  0  0  0  0  0
  1  2  2  0
  1  3  1  0
  1  5  1  0
  8 10  1  0
 13 16  1  0
 16 17  2  0
 16 18  1  0
  3  4  2  0
  4  6  1  0
  6  7  2  0
  7  8  1  0
  8  9  2  0
  9  3  1  0
 10 11  2  0
 11 12  1  0
 12 13  2  0
 13 14  1  0
 14 15  2  0
 15 10  1  0
M  END
$$$$
O14757_PocketFlow_idx-in-all-generaetd-894
     RDKit          3D

 35 39  0  0  0  0  0  0  0  0999 V2000
   -0.6395   -2.0713   41.4947 C   0  0  0  0  0  0  0  0  0  0  0  0
   -0.2671   -3.2464   41.6546 C   0  0  0  0  0  0  0  0  0  0  0  0
    0.2407   -0.9706   41.5952 C   0  0  0  0  0  0  0  0  0  0  0  0
    1.6195   -1.2958   41.8767 C   0  0  0  0  0  0  0  0  0  0  0  0
    1.9162   -2.6816   42.2016 C   0  0  0  0  0  0  0  0  0  0  0  0
    0.8512   -3.4415   42.5412 C   0  0  0  0  0  0  0  0  0  0  0  0
    2.6357   -0.2794   42.0117 C   0  0  0  0  0  0  0  0  0  0  0  0
    3.9325   -0.5646   42.5693 C   0  0  0  0  0  0  0  0  0  0  0  0
    4.9033    0.3638   42.8278 C   0  0  0  0  0  0  0  0  0  0  0  0
   -1.8799   -1.7968   41.0339 F   0  0  0  0  0  0  0  0  0  0  0  0
    6.0226   -0.1459   43.5136 C   0  0  0  0  0  0  0  0  0  0  0  0
    6.0232   -1.3684   44.2902 C   0  0  0  0  0  0  0  0  0  0  0  0
    4.8857   -2.2215   44.0125 C   0  0  0  0  0  0  0  0  0  0  0  0
    3.8727   -1.8423   43.2537 C   0  0  0  0  0  0  0  0  0  0  0  0
    4.8985   -3.5592   44.6827 C   0  0  0  0  0  0  0  0  0  0  0  0
    5.4387   -3.7744   45.9653 C   0  0  0  0  0  0  0  0  0  0  0  0
    6.1772   -2.7844   46.6896 C   0  0  0  0  0  0  0  0  0  0  0  0
    6.7012   -3.3071   47.8947 C   0  0  0  0  0  0  0  0  0  0  0  0
    6.3092   -4.5482   48.4720 C   0  0  0  0  0  0  0  0  0  0  0  0
    5.4636   -5.3930   47.7214 C   0  0  0  0  0  0  0  0  0  0  0  0
    5.0710   -4.9986   46.5317 C   0  0  0  0  0  0  0  0  0  0  0  0
    3.0242   -2.7269   43.0125 N   0  0  0  0  0  0  0  0  0  0  0  0
    6.7133   -4.8177   49.7407 O   0  0  0  0  0  0  0  0  0  0  0  0
    2.3845    0.8437   41.4553 O   0  0  0  0  0  0  0  0  0  0  0  0
    4.2802   -5.8423   45.8838 O   0  0  0  0  0  0  0  0  0  0  0  0
    2.8890   -5.6002   45.8006 C   0  0  0  0  0  0  0  0  0  0  0  0
    2.1410   -6.7543   45.3302 C   0  0  0  0  0  0  0  0  0  0  0  0
    0.7908   -6.5411   45.0845 C   0  0  0  0  0  0  0  0  0  0  0  0
   -0.0399   -7.5007   44.3698 C   0  0  0  0  0  0  0  0  0  0  0  0
   -1.4119   -7.1208   44.1714 C   0  0  0  0  0  0  0  0  0  0  0  0
   -2.2668   -7.8619   44.9787 C   0  0  1  0  0  0  0  0  0  0  0  0
   -2.0285   -8.2296   46.3268 C   0  0  0  0  0  0  0  0  0  0  0  0
   -1.3658   -7.4207   47.0678 C   0  0  0  0  0  0  0  0  0  0  0  0
   -0.1159   -6.6450   46.5555 C   0  0  0  0  0  0  0  0  0  0  0  0
   -3.6379   -8.1439   44.5096 C   0  0  0  0  0  0  0  0  0  0  0  0
  4  7  1  0
  7  8  1  0
  1 10  1  0
 13 15  1  0
  5 22  1  0
 14 22  1  0
 19 23  1  0
  7 24  2  0
 21 25  1  0
 25 26  1  0
 26 27  1  0
 27 28  2  3
 28 29  1  0
 29 30  2  0
 30 31  1  0
 31 32  1  0
 32 33  2  0
 28 34  1  0
 33 34  1  0
 31 35  1  1
 15 16  1  0
  1  2  2  0
  2  6  1  0
  6  5  2  0
  5  4  1  0
  4  3  2  0
  3  1  1  0
  8  9  2  0
  9 11  1  0
 11 12  2  0
 12 13  1  0
 13 14  2  0
 14  8  1  0
 16 17  2  0
 17 18  1  0
 18 19  2  0
 19 20  1  0
 20 21  2  0
 21 16  1  0
M  END
$$$$
O14757_PocketFlow_idx-in-all-generaetd-895
     RDKit          3D

 35 37  0  0  0  0  0  0  0  0999 V2000
   -0.6395   -2.0713   41.4947 C   0  0  0  0  0  0  0  0  0  0  0  0
    0.1859   -1.1027   41.5970 C   0  0  0  0  0  0  0  0  0  0  0  0
   -2.0077   -1.8651   41.2043 C   0  0  0  0  0  0  0  0  0  0  0  0
    1.5974   -1.2445   41.7640 C   0  0  0  0  0  0  0  0  0  0  0  0
    2.5563   -0.2262   41.8331 C   0  0  0  0  0  0  0  0  0  0  0  0
    3.8717   -0.4554   42.2584 C   0  0  0  0  0  0  0  0  0  0  0  0
    4.1299   -1.6986   42.9429 C   0  0  0  0  0  0  0  0  0  0  0  0
    3.1038   -2.6042   43.1230 C   0  0  0  0  0  0  0  0  0  0  0  0
    1.8553   -2.3256   42.6160 C   0  0  0  0  0  0  0  0  0  0  0  0
    3.4605   -3.7983   43.9324 C   0  0  0  0  0  0  0  0  0  0  0  0
    2.5442   -4.7190   44.3466 C   0  0  0  0  0  0  0  0  0  0  0  0
    2.8288   -5.9247   44.9168 C   0  0  0  0  0  0  0  0  0  0  0  0
    1.8405   -6.8497   45.1974 C   0  0  0  0  0  0  0  0  0  0  0  0
    0.5586   -6.6384   44.8631 C   0  0  0  0  0  0  0  0  0  0  0  0
    0.2056   -5.3225   44.3329 C   0  0  0  0  0  0  0  0  0  0  0  0
    1.1658   -4.4288   44.1010 C   0  0  0  0  0  0  0  0  0  0  0  0
    0.7786   -3.2186   43.2900 C   0  0  0  0  0  0  0  0  0  0  0  0
   -0.5159   -7.5940   45.1269 C   0  0  0  0  0  0  0  0  0  0  0  0
   -1.4011   -7.2400   46.2485 C   0  0  0  0  0  0  0  0  0  0  0  0
   -2.6138   -7.9496   46.4547 C   0  0  2  0  0  0  0  0  0  0  0  0
   -2.5828   -8.7150   47.5589 C   0  0  0  0  0  0  0  0  0  0  0  0
   -2.4354  -10.0553   47.4002 C   0  0  0  0  0  0  0  0  0  0  0  0
   -1.7131  -10.4707   46.6717 O   0  0  0  0  0  0  0  0  0  0  0  0
   -2.8314   -2.7732   40.8688 F   0  0  0  0  0  0  0  0  0  0  0  0
   -2.0918   -0.8848   40.2389 F   0  0  0  0  0  0  0  0  0  0  0  0
   -3.1455  -10.9418   48.2347 N   0  0  0  0  0  0  0  0  0  0  0  0
    4.9709    0.8200   42.4808 Cl  0  0  0  0  0  0  0  0  0  0  0  0
    4.7365   -3.9833   44.2227 O   0  0  0  0  0  0  0  0  0  0  0  0
   -2.7114   -1.1831   42.2712 F   0  0  0  0  0  0  0  0  0  0  0  0
   -3.9913  -10.5166   49.3422 C   0  0  0  0  0  0  0  0  0  0  0  0
   -2.9686  -12.3559   48.0574 C   0  0  0  0  0  0  0  0  0  0  0  0
   -3.5331   -7.9847   45.5505 N   0  0  0  0  0  0  0  0  0  0  0  0
   -3.4398   -8.1695   44.2581 C   0  0  0  0  0  0  0  0  0  0  0  0
   -4.5752   -8.1615   43.4234 C   0  0  0  0  0  0  0  0  0  0  0  0
   -4.6332   -8.6840   42.2198 C   0  0  0  0  0  0  0  0  0  0  0  0
  1  2  2  3
  1  3  1  0
  2  4  1  0
  8 10  1  0
 10 11  1  0
  9 17  1  0
 16 17  1  0
 14 18  1  0
 18 19  1  0
 20 19  1  6
 20 21  1  0
 21 22  1  0
 22 23  2  0
  3 24  1  0
  3 25  1  0
 22 26  1  0
  6 27  1  0
 10 28  2  0
  3 29  1  0
 26 30  1  0
 26 31  1  0
 20 32  1  0
 32 33  1  0
 33 34  1  0
 34 35  2  0
 11 12  2  0
 12 13  1  0
 13 14  2  0
 14 15  1  0
 15 16  2  0
 16 11  1  0
  4  5  2  0
  5  6  1  0
  6  7  2  0
  7  8  1  0
  8  9  2  0
  9  4  1  0
M  END
$$$$
O14757_PocketFlow_idx-in-all-generaetd-896
     RDKit          3D

 17 18  0  0  0  0  0  0  0  0999 V2000
    0.2881   -2.9111   42.4378 C   0  0  0  0  0  0  0  0  0  0  0  0
   -0.0650   -2.5021   41.5798 C   0  0  0  0  0  0  0  0  0  0  0  0
    1.5584   -2.5265   43.0884 C   0  0  0  0  0  0  0  0  0  0  0  0
    2.2571   -1.5118   42.4661 C   0  0  0  0  0  0  0  0  0  0  0  0
    1.6355   -0.8966   41.3660 C   0  0  0  0  0  0  0  0  0  0  0  0
    0.4783   -1.3291   40.8710 C   0  0  0  0  0  0  0  0  0  0  0  0
    3.5156   -1.0635   43.0107 C   0  0  0  0  0  0  0  0  0  0  0  0
    4.2507   -0.0362   42.5207 C   0  0  0  0  0  0  0  0  0  0  0  0
    4.0582   -1.7201   44.2316 C   0  0  0  0  0  0  0  0  0  0  0  0
    5.2814   -1.3340   44.7889 C   0  0  0  0  0  0  0  0  0  0  0  0
    5.4844    0.3750   43.1741 C   0  0  0  0  0  0  0  0  0  0  0  0
    5.8137   -2.0884   45.8962 C   0  0  0  0  0  0  0  0  0  0  0  0
    6.0212   -0.3215   44.1672 C   0  0  0  0  0  0  0  0  0  0  0  0
    7.1752   -2.2686   46.1743 C   0  0  0  0  0  0  0  0  0  0  0  0
    7.7023   -3.1992   46.9509 C   0  0  0  0  0  0  0  0  0  0  0  0
    6.8597   -4.0028   47.7354 C   0  0  0  0  0  0  0  0  0  0  0  0
    7.3220   -4.9153   48.6740 C   0  0  0  0  0  0  0  0  0  0  0  0
  4  7  1  0
 10 12  1  0
 12 14  2  3
 14 15  1  0
 15 16  2  3
 16 17  1  0
  7  8  2  0
  8 11  1  0
 11 13  2  0
 13 10  1  0
 10  9  2  0
  9  7  1  0
  1  2  2  0
  2  6  1  0
  6  5  2  0
  5  4  1  0
  4  3  2  0
  3  1  1  0
M  END
$$$$
O14757_PocketFlow_idx-in-all-generaetd-897
     RDKit          3D

 35 36  0  0  0  0  0  0  0  0999 V2000
   -0.6395   -2.0713   41.4947 C   0  0  2  0  0  0  0  0  0  0  0  0
    0.1859   -1.1027   41.5970 C   0  0  0  0  0  0  0  0  0  0  0  0
    1.5836   -1.3270   41.4670 C   0  0  0  0  0  0  0  0  0  0  0  0
   -0.2462   -3.3905   41.2409 C   0  0  0  0  0  0  0  0  0  0  0  0
    2.5675   -0.3472   41.7943 C   0  0  0  0  0  0  0  0  0  0  0  0
    3.8546   -0.6776   42.2362 C   0  0  0  0  0  0  0  0  0  0  0  0
    4.7501    0.3011   42.7357 C   0  0  0  0  0  0  0  0  0  0  0  0
    0.0921   -3.9184   42.1473 C   0  0  0  0  0  0  0  0  0  0  0  0
   -1.9875   -1.7799   41.3553 O   0  0  0  0  0  0  0  0  0  0  0  0
    5.8351   -0.2478   43.4442 N   0  0  0  0  0  0  0  0  0  0  0  0
   -0.1157   -3.8928   43.4381 C   0  0  0  0  0  0  0  0  0  0  0  0
    0.9901   -4.3257   44.4345 C   0  0  0  0  0  0  0  0  0  0  0  0
    2.2309   -3.7158   44.5235 C   0  0  0  0  0  0  0  0  0  0  0  0
    3.2616   -4.1694   45.3314 C   0  0  0  0  0  0  0  0  0  0  0  0
    0.6958   -5.2017   45.5005 C   0  0  0  0  0  0  0  0  0  0  0  0
    1.7496   -5.6853   46.3417 C   0  0  0  0  0  0  0  0  0  0  0  0
    2.9803   -5.1398   46.2794 C   0  0  0  0  0  0  0  0  0  0  0  0
    4.6191   -3.5390   45.2655 C   0  0  1  0  0  0  0  0  0  0  0  0
    5.5186   -3.6940   46.2464 C   0  0  0  0  0  0  0  0  0  0  0  0
    6.8090   -3.1465   46.1397 C   0  0  0  0  0  0  0  0  0  0  0  0
    7.9065   -3.3911   46.9559 C   0  0  0  0  0  0  0  0  0  0  0  0
    9.2312   -2.9040   46.7694 C   0  0  0  0  0  0  0  0  0  0  0  0
   10.2919   -3.4374   47.4359 C   0  0  0  0  0  0  0  0  0  0  0  0
    7.6554   -3.9953   48.2521 C   0  0  0  0  0  0  0  0  0  0  0  0
    8.7613   -4.3402   49.1057 C   0  0  0  0  0  0  0  0  0  0  0  0
   10.0480   -3.9881   48.7311 C   0  0  0  0  0  0  0  0  0  0  0  0
    4.9707   -2.8323   44.0940 C   0  0  0  0  0  0  0  0  0  0  0  0
   -0.5145   -5.7917   45.5593 O   0  0  0  0  0  0  0  0  0  0  0  0
   -0.6695   -7.0907   46.1851 C   0  0  0  0  0  0  0  0  0  0  0  0
   -1.8252   -7.6978   45.8479 C   0  0  1  0  0  0  0  0  0  0  0  0
   -2.3323   -7.6483   44.5548 C   0  0  0  0  0  0  0  0  0  0  0  0
   -3.5161   -8.3746   44.1988 C   0  0  0  0  0  0  0  0  0  0  0  0
   -4.0704   -8.2147   42.9058 C   0  0  0  0  0  0  0  0  0  0  0  0
   -3.9496   -9.4407   45.0667 C   0  0  0  0  0  0  0  0  0  0  0  0
   -2.4411   -8.6342   46.7745 C   0  0  0  0  0  0  0  0  0  0  0  0
  1  2  1  0
  2  3  2  3
  1  4  1  0
  3  5  1  0
  5  6  1  0
  6  7  1  0
  4  8  1  0
  1  9  1  6
  7 10  1  0
  8 11  2  3
 11 12  1  0
 14 18  1  0
 18 19  1  0
 19 20  2  3
 20 21  1  0
 18 27  1  6
 15 28  1  0
 28 29  1  0
 29 30  1  0
 30 31  1  0
 31 32  2  3
 32 33  1  0
 32 34  1  0
 30 35  1  6
 12 13  2  0
 13 14  1  0
 14 17  2  0
 17 16  1  0
 16 15  2  0
 15 12  1  0
 21 22  2  0
 22 23  1  0
 23 26  2  0
 26 25  1  0
 25 24  2  0
 24 21  1  0
M  END
$$$$
O14757_PocketFlow_idx-in-all-generaetd-898
     RDKit          3D

 26 29  0  0  0  0  0  0  0  0999 V2000
   -0.6395   -2.0713   41.4947 C   0  0  0  0  0  0  0  0  0  0  0  0
    0.6719   -2.2449   41.7518 C   0  0  0  0  0  0  0  0  0  0  0  0
    1.5951   -1.1948   41.6106 C   0  0  0  0  0  0  0  0  0  0  0  0
    2.9587   -1.3961   42.0240 C   0  0  0  0  0  0  0  0  0  0  0  0
    3.1652   -2.3460   43.1085 C   0  0  0  0  0  0  0  0  0  0  0  0
    4.5010   -2.4269   43.6771 C   0  0  0  0  0  0  0  0  0  0  0  0
    5.3513   -1.3399   43.5095 C   0  0  0  0  0  0  0  0  0  0  0  0
   -1.5182   -3.1745   41.5008 C   0  0  0  0  0  0  0  0  0  0  0  0
   -0.8615   -4.3866   41.5338 N   0  0  0  0  0  0  0  0  0  0  0  0
    5.0307   -0.3128   42.6530 C   0  0  0  0  0  0  0  0  0  0  0  0
    3.7651   -0.2340   42.1196 C   0  0  0  0  0  0  0  0  0  0  0  0
    4.7151   -3.6058   44.4963 C   0  0  0  0  0  0  0  0  0  0  0  0
    5.4397   -3.4702   45.7366 C   0  0  0  0  0  0  0  0  0  0  0  0
    5.4135   -4.5137   46.7139 C   0  0  0  0  0  0  0  0  0  0  0  0
    6.1544   -4.3302   47.9208 C   0  0  0  0  0  0  0  0  0  0  0  0
    7.1099   -4.6856   48.3476 C   0  0  0  0  0  0  0  0  0  0  0  0
    7.6878   -4.3557   49.6679 C   0  0  0  0  0  0  0  0  0  0  0  0
    8.9179   -4.6945   50.1996 C   0  0  0  0  0  0  0  0  0  0  0  0
    9.6737   -5.5154   49.4283 C   0  0  0  0  0  0  0  0  0  0  0  0
    9.2168   -5.9516   48.1837 C   0  0  0  0  0  0  0  0  0  0  0  0
    8.0120   -5.5092   47.6615 C   0  0  0  0  0  0  0  0  0  0  0  0
    0.7109   -3.7257   41.8477 C   0  0  0  0  0  0  0  0  0  0  0  0
    1.2534   -0.0997   40.8893 C   0  0  0  0  0  0  0  0  0  0  0  0
    4.5726   -5.6173   46.5164 C   0  0  0  0  0  0  0  0  0  0  0  0
    3.8345   -5.6988   45.3672 N   0  0  0  0  0  0  0  0  0  0  0  0
    3.8139   -4.6800   44.3914 C   0  0  0  0  0  0  0  0  0  0  0  0
  1  2  1  0
  2  3  2  3
  3  4  1  0
  1  8  1  0
  8  9  2  0
  6 12  1  0
 15 16  1  0
  2 22  1  0
  9 22  1  0
  3 23  1  0
 15 14  1  0
  4  5  2  0
  5  6  1  0
  6  7  2  0
  7 10  1  0
 10 11  2  0
 11  4  1  0
 12 13  2  0
 13 14  1  0
 14 24  2  0
 24 25  1  0
 25 26  2  0
 26 12  1  0
 16 17  2  0
 17 18  1  0
 18 19  2  0
 19 20  1  0
 20 21  2  0
 21 16  1  0
M  END
$$$$
O14757_PocketFlow_idx-in-all-generaetd-899
     RDKit          3D

 17 17  0  0  0  0  0  0  0  0999 V2000
   -0.6395   -2.0713   41.4947 C   0  0  0  0  0  0  0  0  0  0  0  0
    0.1859   -1.1027   41.5970 C   0  0  0  0  0  0  0  0  0  0  0  0
    1.5836   -1.3270   41.4670 C   0  0  0  0  0  0  0  0  0  0  0  0
   -0.2462   -3.3905   41.2409 C   0  0  0  0  0  0  0  0  0  0  0  0
    2.5675   -0.3473   41.7943 C   0  0  0  0  0  0  0  0  0  0  0  0
    3.3930   -0.4657   42.9022 C   0  0  0  0  0  0  0  0  0  0  0  0
    3.6964   -1.6719   43.4848 C   0  0  0  0  0  0  0  0  0  0  0  0
    4.8134   -1.9108   44.3300 C   0  0  0  0  0  0  0  0  0  0  0  0
    4.8228   -2.8612   45.3085 C   0  0  0  0  0  0  0  0  0  0  0  0
    5.8626   -2.9549   46.2917 C   0  0  0  0  0  0  0  0  0  0  0  0
    5.8413   -4.0058   47.2690 C   0  0  0  0  0  0  0  0  0  0  0  0
    6.7682   -4.0807   48.3076 C   0  0  0  0  0  0  0  0  0  0  0  0
    6.4344   -4.9179   49.4169 C   0  0  0  0  0  0  0  0  0  0  0  0
    5.6505   -6.0866   49.1173 C   0  0  0  0  0  0  0  0  0  0  0  0
    5.0046   -6.1906   47.9177 C   0  0  0  0  0  0  0  0  0  0  0  0
    5.0185   -5.1164   46.9932 C   0  0  0  0  0  0  0  0  0  0  0  0
   -1.0809   -4.3767   41.4251 N   0  0  0  0  0  0  0  0  0  0  0  0
  1  2  1  0
  2  3  2  3
  1  4  1  0
  3  5  1  0
  5  6  1  0
  6  7  1  0
  7  8  2  3
  8  9  1  0
  9 10  2  3
 10 11  1  0
  4 17  1  0
 11 12  2  0
 12 13  1  0
 13 14  2  0
 14 15  1  0
 15 16  2  0
 16 11  1  0
M  END
$$$$
O14757_PocketFlow_idx-in-all-generaetd-900
     RDKit          3D

 27 29  0  0  0  0  0  0  0  0999 V2000
    0.0138   -2.7927   42.5918 N   0  0  0  0  0  0  0  0  0  0  0  0
    1.0651   -2.2375   42.1679 C   0  0  1  0  0  0  0  0  0  0  0  0
    0.8947   -1.0867   41.3479 C   0  0  0  0  0  0  0  0  0  0  0  0
   -0.2362   -0.8428   41.0382 F   0  0  0  0  0  0  0  0  0  0  0  0
    1.4374    0.0869   42.1578 F   0  0  0  0  0  0  0  0  0  0  0  0
    2.1311   -2.1490   43.2823 C   0  0  0  0  0  0  0  0  0  0  0  0
    2.5061   -3.2439   44.1151 C   0  0  0  0  0  0  0  0  0  0  0  0
    1.7136   -4.3082   44.4597 C   0  0  0  0  0  0  0  0  0  0  0  0
    2.0610   -5.0915   45.5849 C   0  0  0  0  0  0  0  0  0  0  0  0
    1.1789   -6.1277   45.9755 C   0  0  0  0  0  0  0  0  0  0  0  0
   -0.0545   -6.2361   45.2700 C   0  0  0  0  0  0  0  0  0  0  0  0
   -0.8826   -7.3243   45.6686 C   0  0  0  0  0  0  0  0  0  0  0  0
   -1.9801   -7.6786   44.7975 C   0  0  0  0  0  0  0  0  0  0  0  0
   -2.9079   -8.5773   45.1917 C   0  0  0  0  0  0  0  0  0  0  0  0
   -2.7665   -9.2986   46.3708 C   0  0  0  0  0  0  0  0  0  0  0  0
   -1.7349   -8.9421   47.2718 C   0  0  0  0  0  0  0  0  0  0  0  0
   -0.8457   -7.8897   46.9694 C   0  0  0  0  0  0  0  0  0  0  0  0
    3.8308   -3.1309   44.7206 C   0  0  0  0  0  0  0  0  0  0  0  0
    4.7221   -2.0361   44.3722 C   0  0  0  0  0  0  0  0  0  0  0  0
    5.9084   -1.9102   45.0589 C   0  0  0  0  0  0  0  0  0  0  0  0
    6.3581   -2.9712   45.9032 C   0  0  0  0  0  0  0  0  0  0  0  0
    5.5171   -4.0308   46.1539 C   0  0  0  0  0  0  0  0  0  0  0  0
    4.2575   -4.1026   45.5975 C   0  0  0  0  0  0  0  0  0  0  0  0
    3.3485   -5.0363   46.0695 C   0  0  0  0  0  0  0  0  0  0  0  0
    7.7873   -2.8503   46.3910 C   0  0  0  0  0  0  0  0  0  0  0  0
    8.4747   -3.9640   46.8850 C   0  0  0  0  0  0  0  0  0  0  0  0
    9.7879   -3.7920   47.3092 C   0  0  0  0  0  0  0  0  0  0  0  0
  2  1  1  1
  2  3  1  0
  3  4  1  0
  3  5  1  0
  2  6  1  0
  6  7  1  0
 10 11  1  0
 11 12  1  0
 21 25  1  0
 25 26  2  3
 26 27  1  0
 10  9  1  0
 12 13  2  0
 13 14  1  0
 14 15  2  0
 15 16  1  0
 16 17  2  0
 17 12  1  0
  7  8  2  0
  8  9  1  0
  9 24  2  0
 24 23  1  0
 18  7  1  0
 18 19  2  0
 19 20  1  0
 20 21  2  0
 21 22  1  0
 22 23  2  0
 23 18  1  0
M  END
$$$$
O14757_PocketFlow_idx-in-all-generaetd-901
     RDKit          3D

  9  9  0  0  0  0  0  0  0  0999 V2000
   -0.6395   -2.0713   41.4947 C   0  0  0  0  0  0  0  0  0  0  0  0
    0.1859   -1.1027   41.5970 C   0  0  0  0  0  0  0  0  0  0  0  0
   -0.2410   -3.3795   41.5297 C   0  0  0  0  0  0  0  0  0  0  0  0
    1.6125   -1.3642   41.8466 C   0  0  0  0  0  0  0  0  0  0  0  0
    1.9568   -2.7213   42.1561 C   0  0  0  0  0  0  0  0  0  0  0  0
    0.9568   -3.6932   42.0424 C   0  0  0  0  0  0  0  0  0  0  0  0
    2.5419   -0.3107   42.1030 C   0  0  0  0  0  0  0  0  0  0  0  0
    3.8498   -0.5462   42.5716 C   0  0  0  0  0  0  0  0  0  0  0  0
    4.1597   -1.6999   43.3407 C   0  0  0  0  0  0  0  0  0  0  0  0
  4  7  1  0
  7  8  1  0
  8  9  2  0
  1  2  2  0
  2  4  1  0
  4  5  2  0
  5  6  1  0
  6  3  2  0
  3  1  1  0
M  END
$$$$
O14757_PocketFlow_idx-in-all-generaetd-902
     RDKit          3D

 14 15  0  0  0  0  0  0  0  0999 V2000
   -0.6395   -2.0713   41.4947 C   0  0  0  0  0  0  0  0  0  0  0  0
   -0.2671   -3.2464   41.6546 C   0  0  0  0  0  0  0  0  0  0  0  0
    0.2277   -0.9875   41.6495 C   0  0  0  0  0  0  0  0  0  0  0  0
    1.6284   -1.2752   41.8841 C   0  0  0  0  0  0  0  0  0  0  0  0
    1.8971   -2.6873   42.1685 C   0  0  0  0  0  0  0  0  0  0  0  0
    0.9380   -3.6379   42.0922 C   0  0  0  0  0  0  0  0  0  0  0  0
    2.5765   -0.2838   42.1328 C   0  0  0  0  0  0  0  0  0  0  0  0
    3.8925   -0.5890   42.5973 C   0  0  0  0  0  0  0  0  0  0  0  0
    4.8815    0.4312   42.7745 C   0  0  0  0  0  0  0  0  0  0  0  0
   -1.9752   -1.7780   41.0944 N   0  0  0  0  0  0  0  0  0  0  0  0
    4.2248   -1.8873   43.0437 C   0  0  0  0  0  0  0  0  0  0  0  0
    5.2347   -2.0972   44.0512 C   0  0  0  0  0  0  0  0  0  0  0  0
    6.1743   -1.0880   44.3292 C   0  0  0  0  0  0  0  0  0  0  0  0
    5.9375    0.1574   43.7041 C   0  0  0  0  0  0  0  0  0  0  0  0
  4  7  1  0
  1 10  1  0
  7  8  1  0
  8  9  2  0
  9 14  1  0
 14 13  2  0
 13 12  1  0
 12 11  2  0
 11  8  1  0
  1  2  2  0
  2  6  1  0
  6  5  2  0
  5  4  1  0
  4  3  2  0
  3  1  1  0
M  END
$$$$
O14757_PocketFlow_idx-in-all-generaetd-903
     RDKit          3D

 10 11  0  0  0  0  0  0  0  0999 V2000
    0.2881   -2.9111   42.4378 C   0  0  0  0  0  0  0  0  0  0  0  0
    1.1784   -3.4293   42.9321 C   0  0  0  0  0  0  0  0  0  0  0  0
    1.1643   -4.3749   43.9960 C   0  0  0  0  0  0  0  0  0  0  0  0
    1.8790   -4.1402   45.1620 C   0  0  0  0  0  0  0  0  0  0  0  0
    0.4442   -1.7764   41.5237 C   0  0  0  0  0  0  0  0  0  0  0  0
    1.3858   -0.8582   41.9888 C   0  0  0  0  0  0  0  0  0  0  0  0
    2.5157   -1.2584   42.6576 C   0  0  0  0  0  0  0  0  0  0  0  0
    2.3977   -2.5446   43.4119 C   0  0  0  0  0  0  0  0  0  0  0  0
    1.9708   -5.1012   46.2323 C   0  0  0  0  0  0  0  0  0  0  0  0
    2.9301   -3.0224   44.5541 N   0  0  0  0  0  0  0  0  0  0  0  0
  2  3  1  0
  3  4  1  0
  4  9  2  0
  4 10  1  0
  8 10  1  0
  1  2  2  0
  2  8  1  0
  8  7  2  0
  7  6  1  0
  6  5  2  0
  5  1  1  0
M  END
$$$$
O14757_PocketFlow_idx-in-all-generaetd-904
     RDKit          3D

 14 15  0  0  0  0  0  0  0  0999 V2000
   -0.6395   -2.0713   41.4947 C   0  0  0  0  0  0  0  0  0  0  0  0
    0.1859   -1.1027   41.5970 C   0  0  0  0  0  0  0  0  0  0  0  0
   -0.2410   -3.3795   41.5297 C   0  0  0  0  0  0  0  0  0  0  0  0
    1.6125   -1.3641   41.8466 C   0  0  0  0  0  0  0  0  0  0  0  0
    2.5720   -0.3568   42.0335 C   0  0  0  0  0  0  0  0  0  0  0  0
    3.8647   -0.6704   42.4195 C   0  0  0  0  0  0  0  0  0  0  0  0
    4.8191    0.2819   42.7564 C   0  0  0  0  0  0  0  0  0  0  0  0
    1.0700   -3.7296   41.8502 C   0  0  0  0  0  0  0  0  0  0  0  0
    1.9536   -2.6774   42.0173 C   0  0  0  0  0  0  0  0  0  0  0  0
   -2.0063   -1.8509   41.1817 N   0  0  0  0  0  0  0  0  0  0  0  0
    6.0100   -0.2659   43.3790 C   0  0  0  0  0  0  0  0  0  0  0  0
    5.8047   -1.2511   44.4114 C   0  0  0  0  0  0  0  0  0  0  0  0
    4.7857   -2.2309   44.2039 C   0  0  0  0  0  0  0  0  0  0  0  0
    3.7054   -1.8119   43.3593 C   0  0  0  0  0  0  0  0  0  0  0  0
  4  5  1  0
  1 10  1  0
  5  6  1  0
  1  2  2  0
  2  4  1  0
  4  9  2  0
  9  8  1  0
  8  3  2  0
  3  1  1  0
  6  7  2  0
  7 11  1  0
 11 12  2  0
 12 13  1  0
 13 14  2  0
 14  6  1  0
M  END
$$$$
O14757_PocketFlow_idx-in-all-generaetd-905
     RDKit          3D

 16 17  0  0  0  0  0  0  0  0999 V2000
   -0.6395   -2.0713   41.4947 C   0  0  0  0  0  0  0  0  0  0  0  0
    0.1859   -1.1027   41.5970 C   0  0  0  0  0  0  0  0  0  0  0  0
   -0.2410   -3.3795   41.5297 C   0  0  0  0  0  0  0  0  0  0  0  0
    1.6125   -1.3642   41.8466 C   0  0  0  0  0  0  0  0  0  0  0  0
    1.9568   -2.7213   42.1561 C   0  0  0  0  0  0  0  0  0  0  0  0
    0.9568   -3.6932   42.0424 C   0  0  0  0  0  0  0  0  0  0  0  0
    2.6717   -0.4922   42.0678 C   0  0  0  0  0  0  0  0  0  0  0  0
    3.9464   -0.7097   42.5850 C   0  0  0  0  0  0  0  0  0  0  0  0
    4.9510    0.2268   42.7566 C   0  0  0  0  0  0  0  0  0  0  0  0
   -2.0782   -1.8132   41.0632 C   0  0  0  0  0  0  0  0  0  0  0  0
   -2.5871   -0.6881   41.3849 O   0  0  0  0  0  0  0  0  0  0  0  0
   -2.7795   -2.6849   40.5327 O   0  0  0  0  0  0  0  0  0  0  0  0
    4.1833   -2.0015   43.1703 C   0  0  0  0  0  0  0  0  0  0  0  0
    3.1044   -2.9774   42.8584 N   0  0  0  0  0  0  0  0  0  0  0  0
    5.1907   -2.4758   43.6228 F   0  0  0  0  0  0  0  0  0  0  0  0
    5.6392    0.1232   43.8292 O   0  0  0  0  0  0  0  0  0  0  0  0
  8  9  1  0
  1 10  1  0
 10 11  2  0
 10 12  1  0
 13 15  1  0
  9 16  1  0
  1  2  2  0
  2  4  1  0
  5  6  1  0
  6  3  2  0
  3  1  1  0
  4  5  2  0
  5 14  1  0
 14 13  2  0
 13  8  1  0
  8  7  2  0
  7  4  1  0
M  END
$$$$
O14757_PocketFlow_idx-in-all-generaetd-906
     RDKit          3D

 35 40  0  0  0  0  0  0  0  0999 V2000
    0.2881   -2.9111   42.4378 C   0  0  2  0  0  0  0  0  0  0  0  0
    1.3023   -2.0648   42.1981 C   0  0  0  0  0  0  0  0  0  0  0  0
    0.9971   -0.8647   41.5341 C   0  0  0  0  0  0  0  0  0  0  0  0
    0.6174   -4.1995   43.0267 C   0  0  0  0  0  0  0  0  0  0  0  0
    1.7533   -4.2645   43.8391 C   0  0  0  0  0  0  0  0  0  0  0  0
    2.7390   -3.2837   43.7596 C   0  0  0  0  0  0  0  0  0  0  0  0
    2.5276   -2.1471   42.9633 C   0  0  0  0  0  0  0  0  0  0  0  0
    3.9798   -3.4332   44.5493 C   0  0  0  0  0  0  0  0  0  0  0  0
    4.8828   -2.4470   44.4954 C   0  0  0  0  0  0  0  0  0  0  0  0
    5.9812   -2.4777   45.3928 C   0  0  0  0  0  0  0  0  0  0  0  0
    6.2502   -3.6091   46.1656 C   0  0  0  0  0  0  0  0  0  0  0  0
    5.1904   -4.5132   46.2774 C   0  0  0  0  0  0  0  0  0  0  0  0
    4.0484   -4.4538   45.4751 C   0  0  0  0  0  0  0  0  0  0  0  0
    7.4846   -3.6619   46.9698 C   0  0  0  0  0  0  0  0  0  0  0  0
    7.5705   -4.3045   48.2071 C   0  0  0  0  0  0  0  0  0  0  0  0
    8.6848   -4.2493   49.0095 C   0  0  0  0  0  0  0  0  0  0  0  0
    8.7435   -3.0700   46.5629 C   0  0  0  0  0  0  0  0  0  0  0  0
    9.8642   -3.0750   47.3160 C   0  0  0  0  0  0  0  0  0  0  0  0
    9.8332   -3.6547   48.5718 C   0  0  0  0  0  0  0  0  0  0  0  0
   -0.8067   -2.9040   41.7810 F   0  0  0  0  0  0  0  0  0  0  0  0
    2.0442    0.2073   41.5440 C   0  0  0  0  0  0  0  0  0  0  0  0
    2.8377    0.3722   42.5361 C   0  0  0  0  0  0  0  0  0  0  0  0
    3.4004   -0.9230   43.0579 C   0  0  0  0  0  0  0  0  0  0  0  0
    4.6626   -1.1098   43.7801 C   0  0  0  0  0  0  0  0  0  0  0  0
    5.5459   -0.2123   43.6934 O   0  0  0  0  0  0  0  0  0  0  0  0
   11.0852   -2.4284   46.8059 C   0  0  0  0  0  0  0  0  0  0  0  0
   11.7083   -1.4998   47.4335 N   0  0  0  0  0  0  0  0  0  0  0  0
   11.3484   -0.8494   48.2990 C   0  0  0  0  0  0  0  0  0  0  0  0
   13.0642   -1.1509   46.8522 C   0  0  0  0  0  0  0  0  0  0  0  0
   11.4851   -3.0342   45.7270 O   0  0  0  0  0  0  0  0  0  0  0  0
   13.2951    0.1447   46.8406 C   0  0  0  0  0  0  0  0  0  0  0  0
   12.0713    0.3147   48.8939 C   0  0  0  0  0  0  0  0  0  0  0  0
   13.1137    0.8326   48.1579 C   0  0  0  0  0  0  0  0  0  0  0  0
    8.5715   -4.8317   50.2635 O   0  0  0  0  0  0  0  0  0  0  0  0
    3.4879   -5.5342   45.3345 O   0  0  0  0  0  0  0  0  0  0  0  0
  1  2  1  0
  1  4  1  0
  4  5  1  0
  5  6  1  0
  6  7  1  0
  6  8  1  0
 11 14  1  0
  1 20  1  6
  9 24  1  0
 23 24  1  0
 24 25  2  0
 18 26  1  0
 26 27  1  0
 27 28  1  0
 27 29  1  0
 26 30  2  0
 31 33  1  0
 32 33  1  0
 16 34  1  0
 13 35  1  0
 28 32  1  0
 31 29  1  0
  8 13  2  0
 13 12  1  0
 12 11  2  0
 11 10  1  0
 10  9  2  0
  9  8  1  0
  2  3  2  0
  3 21  1  0
 21 22  2  0
 22 23  1  0
 23  7  2  0
  7  2  1  0
 14 15  2  0
 15 16  1  0
 16 19  2  0
 19 18  1  0
 18 17  2  0
 17 14  1  0
M  END
$$$$
O14757_PocketFlow_idx-in-all-generaetd-907
     RDKit          3D

 22 23  0  0  0  0  0  0  0  0999 V2000
   -0.8794   -1.9236   41.9357 O   0  0  0  0  0  0  0  0  0  0  0  0
    0.3070   -1.6014   41.6735 C   0  0  0  0  0  0  0  0  0  0  0  0
    1.2176   -1.8259   42.4685 C   0  0  0  0  0  0  0  0  0  0  0  0
    2.6471   -1.5469   42.2528 C   0  0  0  0  0  0  0  0  0  0  0  0
    3.3484   -0.8080   42.8562 C   0  0  0  0  0  0  0  0  0  0  0  0
    4.2251   -1.4158   43.9321 C   0  0  0  0  0  0  0  0  0  0  0  0
    4.1651   -2.6009   44.5479 C   0  0  0  0  0  0  0  0  0  0  0  0
    5.1054   -2.9979   45.5161 C   0  0  0  0  0  0  0  0  0  0  0  0
    5.0001   -4.1071   46.3486 C   0  0  0  0  0  0  0  0  0  0  0  0
    3.9500   -4.9792   46.0223 C   0  0  0  0  0  0  0  0  0  0  0  0
    3.1355   -4.7021   44.9344 C   0  0  0  0  0  0  0  0  0  0  0  0
    3.1974   -3.4946   44.2103 C   0  0  0  0  0  0  0  0  0  0  0  0
    5.9881   -4.4006   47.3715 C   0  0  2  0  0  0  0  0  0  0  0  0
    5.6758   -5.1193   48.3401 O   0  0  0  0  0  0  0  0  0  0  0  0
    6.8036   -3.3997   47.5930 F   0  0  0  0  0  0  0  0  0  0  0  0
    2.0404   -5.6841   44.6263 C   0  0  0  0  0  0  0  0  0  0  0  0
    2.1074   -6.9513   45.0306 C   0  0  0  0  0  0  0  0  0  0  0  0
    0.9099   -7.6900   45.3160 C   0  0  0  0  0  0  0  0  0  0  0  0
   -0.3276   -7.0873   44.8470 C   0  0  0  0  0  0  0  0  0  0  0  0
   -0.2834   -5.8983   44.1026 C   0  0  0  0  0  0  0  0  0  0  0  0
    0.8922   -5.1198   44.1011 C   0  0  0  0  0  0  0  0  0  0  0  0
    0.3716   -0.7416   40.7637 O   0  0  0  0  0  0  0  0  0  0  0  0
  1  2  1  0
  2  3  2  3
  3  4  1  0
  4  5  1  0
  5  6  2  3
  6  7  1  0
  9 13  1  0
 13 14  1  1
 13 15  1  0
 11 16  1  0
  2 22  1  0
  7  8  2  0
  8  9  1  0
  9 10  2  0
 10 11  1  0
 11 12  2  0
 12  7  1  0
 16 17  2  0
 17 18  1  0
 18 19  2  0
 19 20  1  0
 20 21  2  0
 21 16  1  0
M  END
$$$$
O14757_PocketFlow_idx-in-all-generaetd-908
     RDKit          3D

 25 27  0  0  0  0  0  0  0  0999 V2000
   -0.6395   -2.0713   41.4947 C   0  0  0  0  0  0  0  0  0  0  0  0
   -0.2671   -3.2464   41.6546 C   0  0  0  0  0  0  0  0  0  0  0  0
    0.2277   -0.9875   41.6495 C   0  0  0  0  0  0  0  0  0  0  0  0
    1.6284   -1.2752   41.8841 C   0  0  0  0  0  0  0  0  0  0  0  0
    1.8971   -2.6873   42.1685 C   0  0  0  0  0  0  0  0  0  0  0  0
    0.9380   -3.6379   42.0922 C   0  0  0  0  0  0  0  0  0  0  0  0
    2.5827   -0.2858   42.1122 C   0  0  0  0  0  0  0  0  0  0  0  0
    3.8936   -0.5691   42.6035 C   0  0  0  0  0  0  0  0  0  0  0  0
    4.8813    0.4358   42.7715 C   0  0  0  0  0  0  0  0  0  0  0  0
   -2.1003   -1.9717   41.1194 C   0  0  0  0  0  0  0  0  0  0  0  0
   -3.0509   -1.5933   40.8977 N   0  0  0  0  0  0  0  0  0  0  0  0
    4.2133   -1.8645   43.0813 C   0  0  0  0  0  0  0  0  0  0  0  0
    4.8059   -1.9864   44.4274 C   0  0  0  0  0  0  0  0  0  0  0  0
    4.5606   -2.9414   45.3559 C   0  0  0  0  0  0  0  0  0  0  0  0
    3.5534   -3.7814   45.3823 C   0  0  0  0  0  0  0  0  0  0  0  0
    3.5098   -4.8242   45.8391 C   0  0  0  0  0  0  0  0  0  0  0  0
    4.6115   -5.2966   46.7584 C   0  0  0  0  0  0  0  0  0  0  0  0
    5.6032   -4.3779   47.0265 C   0  0  0  0  0  0  0  0  0  0  0  0
    5.7465   -3.2269   46.2064 C   0  0  0  0  0  0  0  0  0  0  0  0
    5.8100   -0.8910   44.6780 C   0  0  0  0  0  0  0  0  0  0  0  0
    5.6922    0.3105   43.8818 N   0  0  0  0  0  0  0  0  0  0  0  0
    6.7294   -4.7252   47.9774 C   0  0  0  0  0  0  0  0  0  0  0  0
    6.9992   -3.7596   48.6982 F   0  0  0  0  0  0  0  0  0  0  0  0
    6.1818   -5.6969   48.8732 F   0  0  0  0  0  0  0  0  0  0  0  0
    7.7608   -5.1667   47.4202 F   0  0  0  0  0  0  0  0  0  0  0  0
  4  7  1  0
  7  8  2  3
  8  9  1  0
  1 10  1  0
 10 11  3  0
  8 12  1  0
 12 13  1  0
 13 14  1  0
 13 20  1  0
  9 21  1  0
 20 21  1  0
 18 22  1  0
 22 23  1  0
 22 24  1  0
 22 25  1  0
 14 15  2  0
 15 16  1  0
 16 17  2  0
 17 18  1  0
 18 19  2  0
 19 14  1  0
  1  2  2  0
  2  6  1  0
  6  5  2  0
  5  4  1  0
  4  3  2  0
  3  1  1  0
M  END
$$$$
O14757_PocketFlow_idx-in-all-generaetd-909
     RDKit          3D

 35 38  0  0  0  0  0  0  0  0999 V2000
   -0.6395   -2.0713   41.4947 C   0  0  0  0  0  0  0  0  0  0  0  0
    0.1859   -1.1027   41.5970 C   0  0  0  0  0  0  0  0  0  0  0  0
   -0.2410   -3.3795   41.5297 C   0  0  0  0  0  0  0  0  0  0  0  0
    1.6125   -1.3641   41.8466 C   0  0  0  0  0  0  0  0  0  0  0  0
    1.9568   -2.7213   42.1561 C   0  0  0  0  0  0  0  0  0  0  0  0
    0.9568   -3.6932   42.0424 C   0  0  0  0  0  0  0  0  0  0  0  0
    2.5392   -0.3092   42.1184 C   0  0  0  0  0  0  0  0  0  0  0  0
    3.8447   -0.5588   42.5830 C   0  0  0  0  0  0  0  0  0  0  0  0
    4.1543   -1.7091   43.3464 C   0  0  0  0  0  0  0  0  0  0  0  0
    3.1280   -2.8511   43.0659 C   0  0  0  0  0  0  0  0  0  0  0  0
    5.3150   -2.0082   44.0217 C   0  0  0  0  0  0  0  0  0  0  0  0
    5.3732   -2.1983   45.2796 N   0  0  0  0  0  0  0  0  0  0  0  0
    6.4360   -2.8053   45.9713 C   0  0  0  0  0  0  0  0  0  0  0  0
    7.7396   -2.6044   45.5240 C   0  0  0  0  0  0  0  0  0  0  0  0
    6.1432   -3.8078   46.9606 C   0  0  0  0  0  0  0  0  0  0  0  0
    4.8111   -4.1090   47.3247 C   0  0  0  0  0  0  0  0  0  0  0  0
    8.7498   -3.2812   46.3457 C   0  0  0  0  0  0  0  0  0  0  0  0
    7.2365   -4.4406   47.7194 C   0  0  0  0  0  0  0  0  0  0  0  0
    8.5216   -4.1267   47.3690 C   0  0  0  0  0  0  0  0  0  0  0  0
   -2.0424   -1.7573   41.0020 C   0  0  0  0  0  0  0  0  0  0  0  0
   -2.5299   -0.6225   41.3214 O   0  0  0  0  0  0  0  0  0  0  0  0
   -2.7346   -2.6212   40.2949 O   0  0  0  0  0  0  0  0  0  0  0  0
    4.6741    0.4374   42.7419 F   0  0  0  0  0  0  0  0  0  0  0  0
    4.4823   -5.3389   47.3684 O   0  0  0  0  0  0  0  0  0  0  0  0
    3.9347   -3.2034   47.2213 O   0  0  0  0  0  0  0  0  0  0  0  0
    9.6425   -4.8008   48.0115 C   0  0  0  0  0  0  0  0  0  0  0  0
   10.6726   -4.9903   47.5728 C   0  0  0  0  0  0  0  0  0  0  0  0
   11.8389   -5.6144   48.2135 C   0  0  0  0  0  0  0  0  0  0  0  0
   11.6084   -6.1925   49.4270 C   0  0  0  0  0  0  0  0  0  0  0  0
    9.5220   -5.4860   49.3591 C   0  0  0  0  0  0  0  0  0  0  0  0
   10.4193   -6.0534   50.0403 C   0  0  0  0  0  0  0  0  0  0  0  0
    3.4072   -4.0142   43.5933 O   0  0  0  0  0  0  0  0  0  0  0  0
   13.0448   -5.7052   47.5585 O   0  0  0  0  0  0  0  0  0  0  0  0
   13.6767   -4.5891   47.4239 C   0  0  0  0  0  0  0  0  0  0  0  0
   13.1858   -3.4556   47.0265 C   0  0  0  0  0  0  0  0  0  0  0  0
  9 11  1  0
 11 12  1  0
 12 13  1  0
 15 16  1  0
  1 20  1  0
 20 21  2  0
 20 22  1  0
  8 23  1  0
 16 24  1  0
 16 25  2  0
 19 26  1  0
 10 32  1  0
 28 33  1  0
 33 34  1  0
 34 35  1  0
  1  2  2  0
  2  4  1  0
  5  6  1  0
  6  3  2  0
  3  1  1  0
  4  5  2  0
  5 10  1  0
 10  9  2  0
  9  8  1  0
  8  7  2  0
  7  4  1  0
 13 14  2  0
 14 17  1  0
 17 19  2  0
 19 18  1  0
 18 15  2  0
 15 13  1  0
 26 27  2  0
 27 28  1  0
 28 29  2  0
 29 31  1  0
 31 30  2  0
 30 26  1  0
M  END
$$$$
O14757_PocketFlow_idx-in-all-generaetd-910
     RDKit          3D

 30 34  0  0  0  0  0  0  0  0999 V2000
    0.0138   -2.7927   42.5918 N   0  0  0  0  0  0  0  0  0  0  0  0
   -0.1707   -2.5494   41.4965 C   0  0  0  0  0  0  0  0  0  0  0  0
    1.2399   -3.4297   42.9825 C   0  0  0  0  0  0  0  0  0  0  0  0
    2.3245   -2.6211   42.6078 C   0  0  0  0  0  0  0  0  0  0  0  0
    2.1828   -1.6098   41.7247 C   0  0  0  0  0  0  0  0  0  0  0  0
    0.8736   -1.5769   41.0609 C   0  0  0  0  0  0  0  0  0  0  0  0
    1.2900   -4.2061   44.2328 C   0  0  0  0  0  0  0  0  0  0  0  0
    2.4889   -4.6385   44.7496 C   0  0  0  0  0  0  0  0  0  0  0  0
    3.6858   -3.9205   44.3989 C   0  0  0  0  0  0  0  0  0  0  0  0
    3.6160   -2.9294   43.3467 C   0  0  0  0  0  0  0  0  0  0  0  0
    4.9405   -4.1984   45.0123 C   0  0  0  0  0  0  0  0  0  0  0  0
    5.7783   -3.0169   45.3852 C   0  0  2  0  0  0  0  0  0  0  0  0
    5.6570   -1.7924   44.8478 C   0  0  0  0  0  0  0  0  0  0  0  0
    4.5518   -1.6935   43.7755 C   0  0  1  0  0  0  0  0  0  0  0  0
    6.9817   -3.2253   46.2698 C   0  0  0  0  0  0  0  0  0  0  0  0
    7.0327   -3.9773   47.4018 C   0  0  0  0  0  0  0  0  0  0  0  0
    5.9571   -4.3225   48.1155 C   0  0  0  0  0  0  0  0  0  0  0  0
    6.1294   -4.9389   49.4502 C   0  0  0  0  0  0  0  0  0  0  0  0
    7.4776   -5.1802   49.7910 C   0  0  0  0  0  0  0  0  0  0  0  0
    8.5898   -4.8170   49.1207 C   0  0  0  0  0  0  0  0  0  0  0  0
    8.4252   -4.1542   47.9005 C   0  0  0  0  0  0  0  0  0  0  0  0
    8.2178   -2.7498   45.7806 N   0  0  0  0  0  0  0  0  0  0  0  0
    2.6811   -6.1412   44.4097 C   0  0  0  0  0  0  0  0  0  0  0  0
   -1.2791   -2.5287   40.9602 O   0  0  0  0  0  0  0  0  0  0  0  0
    4.5119   -0.4246   43.0620 C   0  0  2  0  0  0  0  0  0  0  0  0
    5.5764    0.1321   42.9914 F   0  0  0  0  0  0  0  0  0  0  0  0
    3.4690    0.4322   43.6155 N   0  0  0  0  0  0  0  0  0  0  0  0
    9.1724   -2.3063   46.2803 C   0  0  0  0  0  0  0  0  0  0  0  0
    9.6059   -2.4330   47.5373 C   0  0  0  0  0  0  0  0  0  0  0  0
    9.1178   -3.1345   48.1560 C   0  0  0  0  0  0  0  0  0  0  0  0
  1  2  1  0
  1  3  1  0
  2  6  1  0
  5  6  1  0
  9 11  1  0
 11 12  1  0
 12 13  1  0
 10 14  1  0
 14 13  1  6
 12 15  1  6
 15 16  1  0
 15 22  2  0
  8 23  1  0
  2 24  2  0
 14 25  1  0
 25 26  1  0
 25 27  1  1
 22 28  1  0
 28 29  2  0
 21 30  1  0
 29 30  1  0
  4  5  1  0
  3  4  2  0
  4 10  1  0
 10  9  2  0
  9  8  1  0
  8  7  2  0
  7  3  1  0
 16 17  2  0
 17 18  1  0
 18 19  2  0
 19 20  1  0
 20 21  2  0
 21 16  1  0
M  END
$$$$
O14757_PocketFlow_idx-in-all-generaetd-911
     RDKit          3D

 19 19  0  0  0  0  0  0  0  0999 V2000
   -0.6395   -2.0713   41.4947 C   0  0  0  0  0  0  0  0  0  0  0  0
   -0.2671   -3.2464   41.6546 C   0  0  0  0  0  0  0  0  0  0  0  0
   -2.0053   -1.6706   41.3987 C   0  0  0  0  0  0  0  0  0  0  0  0
   -2.2928   -0.3176   41.3208 C   0  0  0  0  0  0  0  0  0  0  0  0
   -3.5679   -0.0116   41.1750 N   0  0  0  0  0  0  0  0  0  0  0  0
    0.3164   -1.0112   41.7697 C   0  0  0  0  0  0  0  0  0  0  0  0
    1.6893   -1.3277   41.7243 C   0  0  0  0  0  0  0  0  0  0  0  0
    2.6529   -0.3093   41.7483 C   0  0  0  0  0  0  0  0  0  0  0  0
    2.5890    0.6137   42.7881 C   0  0  0  0  0  0  0  0  0  0  0  0
   -0.1564   -3.9610   42.4239 N   0  0  0  0  0  0  0  0  0  0  0  0
   -0.1784   -3.8830   40.3246 O   0  0  0  0  0  0  0  0  0  0  0  0
    3.9674    1.2214   42.9550 C   0  0  0  0  0  0  0  0  0  0  0  0
    4.7556    0.2005   43.4684 C   0  0  0  0  0  0  0  0  0  0  0  0
    4.6015   -1.0695   43.8760 C   0  0  0  0  0  0  0  0  0  0  0  0
    5.6863   -1.7666   44.4899 C   0  0  0  0  0  0  0  0  0  0  0  0
    5.5014   -3.0276   45.0719 C   0  0  0  0  0  0  0  0  0  0  0  0
    4.3972   -3.7979   44.7133 C   0  0  0  0  0  0  0  0  0  0  0  0
    3.3760   -3.1444   43.9704 C   0  0  0  0  0  0  0  0  0  0  0  0
    3.5037   -1.8105   43.5745 C   0  0  0  0  0  0  0  0  0  0  0  0
  1  2  1  0
  1  3  2  3
  3  4  1  0
  4  5  1  0
  1  6  1  0
  6  7  1  0
  7  8  1  0
  8  9  1  0
  2 10  1  0
  2 11  2  0
  9 12  1  0
 12 13  1  0
 13 14  1  0
 14 15  2  0
 15 16  1  0
 16 17  2  0
 17 18  1  0
 18 19  2  0
 19 14  1  0
M  END
$$$$
O14757_PocketFlow_idx-in-all-generaetd-912
     RDKit          3D

 35 38  0  0  0  0  0  0  0  0999 V2000
    0.2881   -2.9111   42.4378 C   0  0  0  0  0  0  0  0  0  0  0  0
   -0.0650   -2.5021   41.5798 C   0  0  0  0  0  0  0  0  0  0  0  0
    1.6221   -3.4772   42.5980 C   0  0  0  0  0  0  0  0  0  0  0  0
    2.0908   -4.0216   43.8699 C   0  0  0  0  0  0  0  0  0  0  0  0
    1.0527   -4.4694   44.7582 C   0  0  0  0  0  0  0  0  0  0  0  0
   -0.1864   -3.9673   44.5941 C   0  0  0  0  0  0  0  0  0  0  0  0
   -0.4628   -3.2964   43.4916 N   0  0  0  0  0  0  0  0  0  0  0  0
    0.6981   -2.0547   40.6503 F   0  0  0  0  0  0  0  0  0  0  0  0
   -0.8478   -1.2699   41.7938 F   0  0  0  0  0  0  0  0  0  0  0  0
   -1.0465   -3.2825   40.9018 F   0  0  0  0  0  0  0  0  0  0  0  0
    1.4749   -5.0919   46.0158 C   0  0  0  0  0  0  0  0  0  0  0  0
    2.6540   -5.1159   46.2400 O   0  0  0  0  0  0  0  0  0  0  0  0
    0.5289   -5.4856   46.7778 O   0  0  0  0  0  0  0  0  0  0  0  0
    3.5136   -6.0917   45.7928 C   0  0  0  0  0  0  0  0  0  0  0  0
    4.7672   -5.9348   46.1599 C   0  0  0  0  0  0  0  0  0  0  0  0
    5.1163   -4.5407   46.5159 C   0  0  0  0  0  0  0  0  0  0  0  0
    6.2085   -4.2826   47.4360 C   0  0  0  0  0  0  0  0  0  0  0  0
    7.3706   -3.6300   46.9603 C   0  0  0  0  0  0  0  0  0  0  0  0
    8.5084   -3.4252   47.7432 C   0  0  0  0  0  0  0  0  0  0  0  0
    9.6207   -2.6693   47.1805 C   0  0  0  0  0  0  0  0  0  0  0  0
   10.8911   -2.7696   47.5917 C   0  0  0  0  0  0  0  0  0  0  0  0
   11.9048   -1.9716   46.9799 C   0  0  0  0  0  0  0  0  0  0  0  0
   11.4855   -1.1849   45.8808 C   0  0  0  0  0  0  0  0  0  0  0  0
   10.1740   -1.1086   45.5499 C   0  0  0  0  0  0  0  0  0  0  0  0
    9.2339   -1.7862   46.1429 C   0  0  0  0  0  0  0  0  0  0  0  0
    8.1020   -2.9438   49.0771 C   0  0  0  0  0  0  0  0  0  0  0  0
    9.1922   -2.7005   50.0527 C   0  0  0  0  0  0  0  0  0  0  0  0
    8.7631   -2.3637   51.3991 C   0  0  0  0  0  0  0  0  0  0  0  0
    7.3516   -2.6076   51.7080 C   0  0  0  0  0  0  0  0  0  0  0  0
    6.5323   -3.0849   50.7695 C   0  0  0  0  0  0  0  0  0  0  0  0
    6.9197   -3.4189   49.5830 C   0  0  0  0  0  0  0  0  0  0  0  0
    5.9380   -3.9860   48.7297 C   0  0  0  0  0  0  0  0  0  0  0  0
    9.7260   -1.7488   52.2879 C   0  0  0  0  0  0  0  0  0  0  0  0
   10.5891   -1.2760   51.9754 O   0  0  0  0  0  0  0  0  0  0  0  0
    9.5307   -2.1206   53.5674 O   0  0  0  0  0  0  0  0  0  0  0  0
  1  2  1  0
  2  8  1  0
  2  9  1  0
  2 10  1  0
  5 11  1  0
 11 12  1  0
 11 13  2  0
 12 14  1  0
 14 15  1  0
 15 16  1  0
 16 17  1  0
 28 33  1  0
 33 34  2  0
 33 35  1  0
 19 20  1  0
 26 27  1  0
 27 28  2  0
 28 29  1  0
 29 30  2  0
 30 31  1  0
 17 18  2  0
 18 19  1  0
 19 26  2  0
 26 31  1  0
 31 32  2  0
 32 17  1  0
 20 21  2  0
 21 22  1  0
 22 23  2  0
 23 24  1  0
 24 25  2  0
 25 20  1  0
  1  3  2  0
  3  4  1  0
  4  5  2  0
  5  6  1  0
  6  7  2  0
  7  1  1  0
M  END
$$$$
O14757_PocketFlow_idx-in-all-generaetd-913
     RDKit          3D

 23 24  0  0  0  0  0  0  0  0999 V2000
   -0.6395   -2.0713   41.4947 C   0  0  0  0  0  0  0  0  0  0  0  0
    0.1859   -1.1027   41.5970 C   0  0  0  0  0  0  0  0  0  0  0  0
    1.5836   -1.3270   41.4670 C   0  0  0  0  0  0  0  0  0  0  0  0
   -0.2462   -3.3905   41.2409 C   0  0  0  0  0  0  0  0  0  0  0  0
    2.5788   -0.3160   41.7511 C   0  0  0  0  0  0  0  0  0  0  0  0
    3.2643   -0.2450   42.7909 C   0  0  0  0  0  0  0  0  0  0  0  0
    3.9455   -1.4369   43.3064 C   0  0  0  0  0  0  0  0  0  0  0  0
    5.0464   -1.4626   44.1803 C   0  0  1  0  0  0  0  0  0  0  0  0
    5.3171   -2.6039   44.9507 C   0  0  0  0  0  0  0  0  0  0  0  0
    6.4115   -2.7227   45.8336 C   0  0  0  0  0  0  0  0  0  0  0  0
    6.6359   -3.9095   46.5658 C   0  0  0  0  0  0  0  0  0  0  0  0
    5.7043   -4.2232   47.2366 C   0  0  0  0  0  0  0  0  0  0  0  0
    4.2878   -4.0407   46.6920 C   0  0  0  0  0  0  0  0  0  0  0  0
    4.1714   -3.0252   45.7682 C   0  0  0  0  0  0  0  0  0  0  0  0
    1.1662   -3.6069   41.1596 C   0  0  0  0  0  0  0  0  0  0  0  0
    2.0424   -2.5825   41.2647 C   0  0  0  0  0  0  0  0  0  0  0  0
    6.0716   -0.4929   43.8605 C   0  0  0  0  0  0  0  0  0  0  0  0
    5.8476   -5.3462   48.2635 C   0  0  0  0  0  0  0  0  0  0  0  0
    5.2979   -6.4054   48.2582 O   0  0  0  0  0  0  0  0  0  0  0  0
    6.4518   -4.9953   49.4543 N   0  0  0  0  0  0  0  0  0  0  0  0
   -2.0098   -1.8278   41.5637 O   0  0  0  0  0  0  0  0  0  0  0  0
   -2.6946   -1.3520   40.4614 C   0  0  0  0  0  0  0  0  0  0  0  0
   -4.1015   -1.1273   40.9039 C   0  0  0  0  0  0  0  0  0  0  0  0
  3  5  1  0
  5  6  2  3
  6  7  1  0
  7  8  1  0
  8 17  1  6
 12 18  1  0
 18 19  2  0
 18 20  1  0
  1 21  1  0
 21 22  1  0
 22 23  1  0
  8  9  1  0
  9 10  2  0
 10 11  1  0
 11 12  2  0
 12 13  1  0
 13 14  2  0
 14  9  1  0
  1  2  2  0
  2  3  1  0
  3 16  2  0
 16 15  1  0
 15  4  2  0
  4  1  1  0
M  END
$$$$
O14757_PocketFlow_idx-in-all-generaetd-914
     RDKit          3D

  6  6  0  0  0  0  0  0  0  0999 V2000
   -0.6395   -2.0713   41.4947 C   0  0  0  0  0  0  0  0  0  0  0  0
    0.6719   -2.2449   41.7518 C   0  0  0  0  0  0  0  0  0  0  0  0
    1.5951   -1.1948   41.6106 C   0  0  0  0  0  0  0  0  0  0  0  0
    1.1176    0.0935   41.3870 C   0  0  0  0  0  0  0  0  0  0  0  0
   -1.0854   -0.7301   41.2910 C   0  0  0  0  0  0  0  0  0  0  0  0
   -0.2020    0.2853   41.2374 C   0  0  0  0  0  0  0  0  0  0  0  0
  1  2  2  0
  2  3  1  0
  3  4  2  0
  4  6  1  0
  6  5  2  0
  5  1  1  0
M  END
$$$$
O14757_PocketFlow_idx-in-all-generaetd-915
     RDKit          3D

 18 19  0  0  0  0  0  0  0  0999 V2000
   -0.6395   -2.0713   41.4947 C   0  0  0  0  0  0  0  0  0  0  0  0
    0.6719   -2.2449   41.7518 C   0  0  0  0  0  0  0  0  0  0  0  0
    1.5951   -1.1948   41.6106 C   0  0  0  0  0  0  0  0  0  0  0  0
    2.8936   -1.2860   42.2441 C   0  0  0  0  0  0  0  0  0  0  0  0
    3.7940   -0.2219   42.2897 C   0  0  0  0  0  0  0  0  0  0  0  0
   -1.1202   -0.7267   41.4285 C   0  0  0  0  0  0  0  0  0  0  0  0
    5.0197   -0.3636   42.9953 C   0  0  0  0  0  0  0  0  0  0  0  0
    5.3027   -1.4908   43.7796 C   0  0  0  0  0  0  0  0  0  0  0  0
    4.3158   -2.5588   43.7202 C   0  0  0  0  0  0  0  0  0  0  0  0
    3.1201   -2.3952   43.0154 C   0  0  0  0  0  0  0  0  0  0  0  0
    4.5289   -3.7952   44.4836 C   0  0  0  0  0  0  0  0  0  0  0  0
    5.1303   -3.7995   45.7708 C   0  0  0  0  0  0  0  0  0  0  0  0
    4.6261   -3.9918   46.8692 C   0  0  0  0  0  0  0  0  0  0  0  0
    5.4290   -3.9412   48.1629 C   0  0  0  0  0  0  0  0  0  0  0  0
    6.8266   -3.8273   48.0233 C   0  0  0  0  0  0  0  0  0  0  0  0
    7.3983   -3.5433   46.7850 C   0  0  0  0  0  0  0  0  0  0  0  0
    6.6368   -3.5363   45.6643 C   0  0  0  0  0  0  0  0  0  0  0  0
   -2.3971   -0.6391   41.1279 F   0  0  0  0  0  0  0  0  0  0  0  0
  1  2  1  0
  2  3  1  0
  3  4  1  0
  1  6  1  0
  9 11  1  0
  6 18  1  0
 11 12  1  0
 12 13  2  0
 13 14  1  0
 14 15  2  0
 15 16  1  0
 16 17  2  0
 17 12  1  0
  4  5  2  0
  5  7  1  0
  7  8  2  0
  8  9  1  0
  9 10  2  0
 10  4  1  0
M  END
$$$$
O14757_PocketFlow_idx-in-all-generaetd-916
     RDKit          3D

  9  8  0  0  0  0  0  0  0  0999 V2000
    0.2881   -2.9111   42.4378 C   0  0  0  0  0  0  0  0  0  0  0  0
   -0.0650   -2.5021   41.5798 C   0  0  0  0  0  0  0  0  0  0  0  0
    0.3903   -4.2958   42.8988 C   0  0  0  0  0  0  0  0  0  0  0  0
    0.9259   -4.6857   44.1305 C   0  0  0  0  0  0  0  0  0  0  0  0
    0.6526   -5.7776   44.8682 C   0  0  0  0  0  0  0  0  0  0  0  0
    0.0343   -1.0493   41.2425 C   0  0  0  0  0  0  0  0  0  0  0  0
    1.5044   -6.3380   45.7525 C   0  0  0  0  0  0  0  0  0  0  0  0
    2.6999   -5.5833   46.0966 C   0  0  0  0  0  0  0  0  0  0  0  0
    3.0538   -4.6786   45.1479 C   0  0  0  0  0  0  0  0  0  0  0  0
  1  2  1  0
  1  3  1  0
  3  4  2  3
  4  5  1  0
  2  6  1  0
  5  7  2  3
  7  8  1  0
  8  9  2  0
M  END
$$$$
O14757_PocketFlow_idx-in-all-generaetd-917
     RDKit          3D

 27 30  0  0  0  0  0  0  0  0999 V2000
   -0.6395   -2.0713   41.4947 C   0  0  0  0  0  0  0  0  0  0  0  0
    0.6719   -2.2449   41.7518 C   0  0  0  0  0  0  0  0  0  0  0  0
    1.4016   -1.8693   42.6957 C   0  0  0  0  0  0  0  0  0  0  0  0
    2.8369   -2.0203   42.6801 C   0  0  2  0  0  0  0  0  0  0  0  0
    3.5476   -2.5239   43.7639 C   0  0  0  0  0  0  0  0  0  0  0  0
    3.0853   -3.5957   44.5229 C   0  0  0  0  0  0  0  0  0  0  0  0
    3.9694   -4.0371   45.5942 C   0  0  0  0  0  0  0  0  0  0  0  0
    5.2006   -3.4467   45.7635 C   0  0  0  0  0  0  0  0  0  0  0  0
    5.6231   -2.3393   45.0082 C   0  0  0  0  0  0  0  0  0  0  0  0
    4.8389   -1.8900   44.0437 C   0  0  0  0  0  0  0  0  0  0  0  0
    6.0689   -3.8680   46.9678 C   0  0  0  0  0  0  0  0  0  0  0  0
    6.8501   -4.5311   47.0628 C   0  0  0  0  0  0  0  0  0  0  0  0
    7.7120   -4.8399   48.2444 C   0  0  0  0  0  0  0  0  0  0  0  0
   -1.6062   -3.0659   41.0898 C   0  0  0  0  0  0  0  0  0  0  0  0
    7.1440   -4.3493   49.4250 C   0  0  0  0  0  0  0  0  0  0  0  0
    5.9696   -3.6511   49.4073 C   0  0  0  0  0  0  0  0  0  0  0  0
    5.3722   -3.3255   48.2829 C   0  0  0  0  0  0  0  0  0  0  0  0
    5.2609   -0.8091   43.1651 C   0  0  0  0  0  0  0  0  0  0  0  0
    4.2746    0.2744   42.9260 C   0  0  0  0  0  0  0  0  0  0  0  0
    3.0971   -0.1870   42.2377 C   0  0  0  0  0  0  0  0  0  0  0  0
   -1.1928   -0.6861   41.5085 C   0  0  0  0  0  0  0  0  0  0  0  0
    1.9003   -4.2654   44.2491 C   0  0  0  0  0  0  0  0  0  0  0  0
    1.8288   -5.6340   44.7246 C   0  0  0  0  0  0  0  0  0  0  0  0
    0.6135   -6.3452   44.4388 C   0  0  0  0  0  0  0  0  0  0  0  0
   -0.2550   -5.8917   43.5253 C   0  0  0  0  0  0  0  0  0  0  0  0
    0.0982   -4.6796   42.8154 C   0  0  0  0  0  0  0  0  0  0  0  0
    1.1278   -3.9089   43.2395 N   0  0  0  0  0  0  0  0  0  0  0  0
  1  2  2  3
  2  3  1  0
  4  3  1  1
  4  5  1  0
  8 11  1  0
  1 14  1  0
 10 18  1  0
 18 19  1  0
  4 20  1  0
 19 20  1  0
  1 21  1  0
  6 22  1  0
 11 12  2  0
 12 13  1  0
 13 15  2  0
 15 16  1  0
 16 17  2  0
 17 11  1  0
  5  6  2  0
  6  7  1  0
  7  8  2  0
  8  9  1  0
  9 10  2  0
 10  5  1  0
 22 23  2  0
 23 24  1  0
 24 25  2  0
 25 26  1  0
 26 27  2  0
 27 22  1  0
M  END
$$$$
O14757_PocketFlow_idx-in-all-generaetd-918
     RDKit          3D

 18 19  0  0  0  0  0  0  0  0999 V2000
    0.2881   -2.9111   42.4378 C   0  0  0  0  0  0  0  0  0  0  0  0
    1.1784   -3.4293   42.9321 C   0  0  0  0  0  0  0  0  0  0  0  0
    2.4507   -2.7243   42.9621 C   0  0  0  0  0  0  0  0  0  0  0  0
    3.6020   -3.2282   43.7398 C   0  0  0  0  0  0  0  0  0  0  0  0
    4.7688   -2.4047   43.9090 C   0  0  0  0  0  0  0  0  0  0  0  0
    5.7650   -2.7027   44.9133 C   0  0  0  0  0  0  0  0  0  0  0  0
    0.4292   -1.7741   41.5661 C   0  0  0  0  0  0  0  0  0  0  0  0
   -0.6429   -1.2100   40.8373 C   0  0  0  0  0  0  0  0  0  0  0  0
    5.5736   -3.9207   45.6382 C   0  0  0  0  0  0  0  0  0  0  0  0
    4.4162   -4.6187   45.5432 C   0  0  0  0  0  0  0  0  0  0  0  0
    3.4029   -4.2580   44.7140 C   0  0  0  0  0  0  0  0  0  0  0  0
    2.5443   -1.5322   42.2156 C   0  0  0  0  0  0  0  0  0  0  0  0
    1.5957   -1.0567   41.5298 C   0  0  0  0  0  0  0  0  0  0  0  0
    6.9770   -1.8939   44.9421 C   0  0  0  0  0  0  0  0  0  0  0  0
    7.9151   -2.2840   45.6686 O   0  0  0  0  0  0  0  0  0  0  0  0
    7.0527   -0.7665   44.3041 O   0  0  0  0  0  0  0  0  0  0  0  0
   -1.9787   -1.5093   41.5676 C   0  0  0  0  0  0  0  0  0  0  0  0
   -2.9745   -1.5615   40.4076 C   0  0  0  0  0  0  0  0  0  0  0  0
  3  4  1  0
  7  8  1  0
  6 14  1  0
 14 15  2  0
 14 16  1  0
  8 17  1  0
 17 18  1  0
  1  2  2  0
  2  3  1  0
  3 12  2  0
 12 13  1  0
 13  7  2  0
  7  1  1  0
  4  5  2  0
  5  6  1  0
  6  9  2  0
  9 10  1  0
 10 11  2  0
 11  4  1  0
M  END
$$$$
O14757_PocketFlow_idx-in-all-generaetd-919
     RDKit          3D

 16 16  0  0  0  0  0  0  0  0999 V2000
   -0.6395   -2.0713   41.4947 C   0  0  0  0  0  0  0  0  0  0  0  0
    0.6719   -2.2449   41.7518 C   0  0  0  0  0  0  0  0  0  0  0  0
    1.5951   -1.1948   41.6106 C   0  0  0  0  0  0  0  0  0  0  0  0
    2.9587   -1.3961   42.0240 C   0  0  1  0  0  0  0  0  0  0  0  0
    3.8815   -0.3441   42.0598 C   0  0  0  0  0  0  0  0  0  0  0  0
    4.4886   -0.0976   43.3461 C   0  0  0  0  0  0  0  0  0  0  0  0
    4.8965   -1.1525   44.2224 C   0  0  0  0  0  0  0  0  0  0  0  0
    4.0678   -2.3326   44.1621 C   0  0  2  0  0  0  0  0  0  0  0  0
    4.2632   -3.4118   45.0492 C   0  0  0  0  0  0  0  0  0  0  0  0
    3.1724   -2.5220   43.0160 C   0  0  0  0  0  0  0  0  0  0  0  0
    5.2004   -3.4171   46.0574 C   0  0  0  0  0  0  0  0  0  0  0  0
    5.1797   -4.5670   46.9206 C   0  0  0  0  0  0  0  0  0  0  0  0
    6.0789   -4.5324   48.0988 C   0  0  0  0  0  0  0  0  0  0  0  0
    5.7380   -5.3652   49.1834 C   0  0  0  0  0  0  0  0  0  0  0  0
   -1.0109   -0.7809   41.2191 C   0  0  0  0  0  0  0  0  0  0  0  0
   -2.3937   -0.5896   41.0437 N   0  0  0  0  0  0  0  0  0  0  0  0
  1  2  1  0
  2  3  2  3
  3  4  1  0
  4  5  1  1
  5  6  1  0
  6  7  1  0
  8  7  1  6
  8  9  1  0
  4 10  1  0
  8 10  1  0
  9 11  2  3
 11 12  1  0
 12 13  2  3
 13 14  1  0
  1 15  2  3
 15 16  1  0
M  END
$$$$
O14757_PocketFlow_idx-in-all-generaetd-920
     RDKit          3D

 35 38  0  0  0  0  0  0  0  0999 V2000
    0.2881   -2.9111   42.4378 C   0  0  0  0  0  0  0  0  0  0  0  0
    1.3023   -2.0648   42.1981 C   0  0  0  0  0  0  0  0  0  0  0  0
    0.9971   -0.8647   41.5341 C   0  0  0  0  0  0  0  0  0  0  0  0
   -0.8695   -2.6458   41.8673 N   0  0  0  0  0  0  0  0  0  0  0  0
    2.0692    0.0047   41.3837 N   0  0  0  0  0  0  0  0  0  0  0  0
    0.5073   -4.1142   43.0961 N   0  0  0  0  0  0  0  0  0  0  0  0
   -0.3526   -0.6204   41.4046 C   0  0  0  0  0  0  0  0  0  0  0  0
   -1.2575   -1.4957   41.4536 C   0  0  0  0  0  0  0  0  0  0  0  0
   -2.5803   -1.4647   41.2038 N   0  0  0  0  0  0  0  0  0  0  0  0
    1.0012   -4.2430   44.3981 C   0  0  0  0  0  0  0  0  0  0  0  0
    0.9413   -5.4890   45.0702 C   0  0  2  0  0  0  0  0  0  0  0  0
   -0.1384   -5.6792   45.9877 C   0  0  0  0  0  0  0  0  0  0  0  0
   -0.5619   -6.9933   46.3306 C   0  0  0  0  0  0  0  0  0  0  0  0
   -1.7628   -7.4118   46.0066 C   0  0  0  0  0  0  0  0  0  0  0  0
   -1.9726   -7.5504   44.5779 C   0  0  0  0  0  0  0  0  0  0  0  0
   -3.1901   -8.1469   44.0966 C   0  0  0  0  0  0  0  0  0  0  0  0
   -4.1249   -8.2006   44.8529 C   0  0  0  0  0  0  0  0  0  0  0  0
   -4.1005   -8.0944   46.3111 C   0  0  0  0  0  0  0  0  0  0  0  0
   -2.8662   -7.6397   46.8128 C   0  0  0  0  0  0  0  0  0  0  0  0
   -5.5208   -8.7156   44.3503 C   0  0  0  0  0  0  0  0  0  0  0  0
   -6.0495   -7.8857   43.4583 C   0  0  0  0  0  0  0  0  0  0  0  0
   -5.4835  -10.1242   43.8427 C   0  0  0  0  0  0  0  0  0  0  0  0
    2.3159   -5.7722   45.7193 C   0  0  0  0  0  0  0  0  0  0  0  0
    3.0601   -6.7811   45.1329 C   0  0  0  0  0  0  0  0  0  0  0  0
    2.7159   -1.9597   42.4645 N   0  0  0  0  0  0  0  0  0  0  0  0
    3.5991   -1.2717   42.4221 C   0  0  0  0  0  0  0  0  0  0  0  0
    4.8577   -1.2352   42.8745 N   0  0  0  0  0  0  0  0  0  0  0  0
    3.2337    0.0823   41.7986 C   0  0  0  0  0  0  0  0  0  0  0  0
    5.3782   -0.4075   43.8498 C   0  0  0  0  0  0  0  0  0  0  0  0
    5.8371   -1.0940   45.0658 C   0  0  0  0  0  0  0  0  0  0  0  0
    4.8923   -1.8956   45.6971 C   0  0  0  0  0  0  0  0  0  0  0  0
    5.3751   -2.9910   46.5577 C   0  0  0  0  0  0  0  0  0  0  0  0
    6.7673   -3.1045   46.7909 C   0  0  0  0  0  0  0  0  0  0  0  0
    7.6735   -2.2647   46.0363 C   0  0  0  0  0  0  0  0  0  0  0  0
    7.2424   -1.4666   45.1089 C   0  0  0  0  0  0  0  0  0  0  0  0
  8  9  1  0
  6 10  1  0
 11 10  1  1
 11 12  1  0
 12 13  1  0
 13 14  1  0
 17 20  1  0
 20 21  1  0
 20 22  1  0
 11 23  1  0
 23 24  1  0
 26 27  1  0
 27 29  1  0
 29 30  1  0
  6  1  1  0
  3  5  1  0
  5 28  2  0
 28 26  1  0
 26 25  2  0
 25  2  1  0
 30 31  2  0
 31 32  1  0
 32 33  2  0
 33 34  1  0
 34 35  2  0
 35 30  1  0
  1  2  2  0
  2  3  1  0
  3  7  2  0
  7  8  1  0
  8  4  2  0
  4  1  1  0
 14 15  2  0
 15 16  1  0
 16 17  2  0
 17 18  1  0
 18 19  2  0
 19 14  1  0
M  END
$$$$
O14757_PocketFlow_idx-in-all-generaetd-921
     RDKit          3D

 23 25  0  0  0  0  0  0  0  0999 V2000
   -0.6395   -2.0713   41.4947 C   0  0  0  0  0  0  0  0  0  0  0  0
    0.6719   -2.2449   41.7518 C   0  0  1  0  0  0  0  0  0  0  0  0
    1.1287   -3.3339   42.4778 C   0  0  2  0  0  0  0  0  0  0  0  0
    0.1404   -4.2568   42.9148 C   0  0  0  0  0  0  0  0  0  0  0  0
    0.6032   -5.2594   43.6933 N   0  0  0  0  0  0  0  0  0  0  0  0
   -1.0790   -0.8799   40.8722 C   0  0  0  0  0  0  0  0  0  0  0  0
    1.5793   -4.9751   44.5313 C   0  0  0  0  0  0  0  0  0  0  0  0
    2.5914   -4.0242   44.2816 C   0  0  0  0  0  0  0  0  0  0  0  0
    2.2563   -3.0544   43.3830 C   0  0  0  0  0  0  0  0  0  0  0  0
    1.5791   -1.7894   40.7647 C   0  0  0  0  0  0  0  0  0  0  0  0
    3.7590   -3.8422   45.1510 C   0  0  0  0  0  0  0  0  0  0  0  0
    4.6222   -2.7516   45.0056 C   0  0  0  0  0  0  0  0  0  0  0  0
    5.8063   -2.7435   45.8274 C   0  0  0  0  0  0  0  0  0  0  0  0
    6.8066   -1.7358   45.6371 C   0  0  0  0  0  0  0  0  0  0  0  0
    6.5588   -0.8392   44.5475 C   0  0  0  0  0  0  0  0  0  0  0  0
    5.4525   -0.9000   43.7252 C   0  0  0  0  0  0  0  0  0  0  0  0
    4.5031   -1.8397   43.9750 C   0  0  0  0  0  0  0  0  0  0  0  0
    3.2170   -1.9741   43.0485 C   0  0  0  0  0  0  0  0  0  0  0  0
    8.0468   -1.6751   46.3339 C   0  0  0  0  0  0  0  0  0  0  0  0
    8.3035   -2.4483   47.2797 O   0  0  0  0  0  0  0  0  0  0  0  0
    8.8621   -0.5853   46.1980 O   0  0  0  0  0  0  0  0  0  0  0  0
   -0.0661   -6.5402   43.6977 C   0  0  0  0  0  0  0  0  0  0  0  0
   -2.5483   -0.7008   41.1156 C   0  0  0  0  0  0  0  0  0  0  0  0
  1  2  1  0
  3  4  1  1
  4  5  1  0
  1  6  1  0
  5  7  1  0
  3  9  1  0
  2 10  1  6
 14 19  1  0
 19 20  2  0
 19 21  1  0
  5 22  1  0
  6 23  1  0
  2  3  1  0
  8  7  1  0
 12 13  1  0
 13 14  2  0
 14 15  1  0
 15 16  2  0
 16 17  1  0
  8  9  2  0
  9 18  1  0
 18 17  2  0
 17 12  1  0
 12 11  2  0
 11  8  1  0
M  END
$$$$
O14757_PocketFlow_idx-in-all-generaetd-922
     RDKit          3D

 20 22  0  0  0  0  0  0  0  0999 V2000
   -0.6395   -2.0713   41.4947 C   0  0  0  0  0  0  0  0  0  0  0  0
    0.1859   -1.1027   41.5970 C   0  0  0  0  0  0  0  0  0  0  0  0
    1.5836   -1.3270   41.4669 C   0  0  0  0  0  0  0  0  0  0  0  0
   -0.2462   -3.3905   41.2409 C   0  0  0  0  0  0  0  0  0  0  0  0
    2.3477   -1.2946   42.4061 C   0  0  0  0  0  0  0  0  0  0  0  0
    2.7729   -2.4267   43.1219 C   0  0  0  0  0  0  0  0  0  0  0  0
    3.8521   -2.3414   44.1380 C   0  0  0  0  0  0  0  0  0  0  0  0
    4.4194   -1.0950   44.2330 C   0  0  0  0  0  0  0  0  0  0  0  0
    4.1962   -0.0666   43.4391 C   0  0  0  0  0  0  0  0  0  0  0  0
    3.2479   -0.1214   42.4944 C   0  0  0  0  0  0  0  0  0  0  0  0
    4.1308   -3.4956   44.9429 C   0  0  0  0  0  0  0  0  0  0  0  0
    3.4897   -4.6572   44.7190 C   0  0  0  0  0  0  0  0  0  0  0  0
    2.3757   -4.8604   44.0171 C   0  0  0  0  0  0  0  0  0  0  0  0
    1.4815   -5.9293   44.1279 C   0  0  0  0  0  0  0  0  0  0  0  0
    1.6383   -6.7237   45.2601 C   0  0  0  0  0  0  0  0  0  0  0  0
    2.9023   -6.7949   45.8497 C   0  0  0  0  0  0  0  0  0  0  0  0
    3.7306   -5.7506   45.7655 C   0  0  0  0  0  0  0  0  0  0  0  0
    0.7479   -3.5827   40.4651 F   0  0  0  0  0  0  0  0  0  0  0  0
    1.9767   -3.6875   43.2120 N   0  0  0  0  0  0  0  0  0  0  0  0
   -0.0129   -4.0862   42.4812 F   0  0  0  0  0  0  0  0  0  0  0  0
  1  2  1  0
  2  3  2  3
  1  4  1  0
  3  5  1  0
  4 18  1  0
  4 20  1  0
 13 14  1  0
 14 15  2  0
 15 16  1  0
 16 17  2  0
 17 12  1  0
  7 11  1  0
 11 12  2  0
 12 13  1  0
 13 19  2  0
 19  6  1  0
  5  6  2  0
  6  7  1  0
  7  8  2  0
  8  9  1  0
  9 10  2  0
 10  5  1  0
M  END
$$$$
O14757_PocketFlow_idx-in-all-generaetd-923
     RDKit          3D

 20 22  0  0  0  0  0  0  0  0999 V2000
   -0.6395   -2.0713   41.4947 C   0  0  0  0  0  0  0  0  0  0  0  0
    0.1859   -1.1027   41.5970 C   0  0  0  0  0  0  0  0  0  0  0  0
    1.5836   -1.3270   41.4669 C   0  0  0  0  0  0  0  0  0  0  0  0
   -0.2462   -3.3905   41.2409 C   0  0  0  0  0  0  0  0  0  0  0  0
    2.1669   -2.0426   41.8814 C   0  0  0  0  0  0  0  0  0  0  0  0
    3.6784   -1.6340   42.1829 C   0  0  0  0  0  0  0  0  0  0  0  0
    4.3263   -2.2502   43.3297 C   0  0  0  0  0  0  0  0  0  0  0  0
    5.2938   -1.5800   44.1073 C   0  0  0  0  0  0  0  0  0  0  0  0
    5.7974   -2.2240   45.2617 C   0  0  0  0  0  0  0  0  0  0  0  0
    5.3273   -3.4536   45.7026 C   0  0  0  0  0  0  0  0  0  0  0  0
    4.4243   -4.1286   44.9218 C   0  0  0  0  0  0  0  0  0  0  0  0
    3.8481   -3.5394   43.7701 C   0  0  0  0  0  0  0  0  0  0  0  0
    0.1808   -3.9972   42.0764 C   0  0  0  0  0  0  0  0  0  0  0  0
    5.9729   -4.0749   46.8845 C   0  0  0  0  0  0  0  0  0  0  0  0
    5.2255   -5.0481   47.6570 C   0  0  0  0  0  0  0  0  0  0  0  0
    5.8728   -5.5342   48.8242 C   0  0  0  0  0  0  0  0  0  0  0  0
    7.0301   -4.8454   49.3552 C   0  0  0  0  0  0  0  0  0  0  0  0
    7.6492   -3.8590   48.6036 C   0  0  0  0  0  0  0  0  0  0  0  0
    7.0969   -3.4128   47.4468 C   0  0  0  0  0  0  0  0  0  0  0  0
    1.7122   -3.5007   42.4102 C   0  0  0  0  0  0  0  0  0  0  0  0
  1  2  1  0
  2  3  2  0
  1  4  2  0
  3  5  1  0
  5  6  1  0
  6  7  1  0
  4 13  1  0
 10 14  1  0
  5 20  1  0
 13 20  2  0
 14 15  2  0
 15 16  1  0
 16 17  2  0
 17 18  1  0
 18 19  2  0
 19 14  1  0
  7  8  2  0
  8  9  1  0
  9 10  2  0
 10 11  1  0
 11 12  2  0
 12  7  1  0
M  END
$$$$
O14757_PocketFlow_idx-in-all-generaetd-924
     RDKit          3D

 26 29  0  0  0  0  0  0  0  0999 V2000
   -0.6395   -2.0713   41.4947 C   0  0  0  0  0  0  0  0  0  0  0  0
    0.1859   -1.1027   41.5970 C   0  0  0  0  0  0  0  0  0  0  0  0
    1.5836   -1.3270   41.4670 C   0  0  0  0  0  0  0  0  0  0  0  0
   -0.1523   -3.2959   41.2401 C   0  0  0  0  0  0  0  0  0  0  0  0
    2.5722   -0.3183   41.7929 C   0  0  0  0  0  0  0  0  0  0  0  0
    3.8565   -0.6536   42.2215 C   0  0  0  0  0  0  0  0  0  0  0  0
    3.9356   -1.9143   42.9874 C   0  0  0  0  0  0  0  0  0  0  0  0
    5.0988   -2.2294   43.8018 C   0  0  0  0  0  0  0  0  0  0  0  0
    1.1645   -3.5446   41.1726 N   0  0  0  0  0  0  0  0  0  0  0  0
    2.0156   -2.5463   41.3136 C   0  0  0  0  0  0  0  0  0  0  0  0
    5.9544   -1.1276   44.0632 C   0  0  0  0  0  0  0  0  0  0  0  0
    7.0041   -1.5056   44.9921 C   0  0  0  0  0  0  0  0  0  0  0  0
    7.1053   -2.6714   45.6963 C   0  0  0  0  0  0  0  0  0  0  0  0
    5.9900   -3.5991   45.5073 C   0  0  0  0  0  0  0  0  0  0  0  0
    5.0120   -3.3290   44.6112 C   0  0  0  0  0  0  0  0  0  0  0  0
   -2.0342   -1.9024   41.4252 N   0  0  0  0  0  0  0  0  0  0  0  0
    8.1503   -2.9247   46.6338 C   0  0  0  0  0  0  0  0  0  0  0  0
    9.3219   -2.2552   46.6590 C   0  0  0  0  0  0  0  0  0  0  0  0
   10.3736   -2.5216   47.5287 C   0  0  0  0  0  0  0  0  0  0  0  0
   10.2652   -3.6187   48.3663 C   0  0  0  0  0  0  0  0  0  0  0  0
    8.1500   -4.0531   47.5183 C   0  0  0  0  0  0  0  0  0  0  0  0
    9.1443   -4.3947   48.3277 C   0  0  0  0  0  0  0  0  0  0  0  0
    2.9871   -2.9202   42.6922 C   0  0  0  0  0  0  0  0  0  0  0  0
   -2.8028   -1.3938   40.4227 C   0  0  0  0  0  0  0  0  0  0  0  0
   -3.8781   -1.3684   40.5186 O   0  0  0  0  0  0  0  0  0  0  0  0
   -2.1555   -1.0794   39.4935 O   0  0  0  0  0  0  0  0  0  0  0  0
  1 16  1  0
 13 17  1  0
 16 24  1  0
 24 25  2  0
 24 26  1  0
  8  7  1  0
  3  5  2  0
  5  6  1  0
  6  7  2  0
  7 23  1  0
 23 10  2  0
 17 18  2  0
 18 19  1  0
 19 20  2  0
 20 22  1  0
 22 21  2  0
 21 17  1  0
  8 11  2  0
 11 12  1  0
 12 13  2  0
 13 14  1  0
 14 15  2  0
 15  8  1  0
  1  2  2  0
  2  3  1  0
  3 10  1  0
 10  9  1  0
  9  4  2  0
  4  1  1  0
M  END
$$$$
O14757_PocketFlow_idx-in-all-generaetd-925
     RDKit          3D

 25 26  0  0  0  0  0  0  0  0999 V2000
   -0.6395   -2.0713   41.4947 C   0  0  0  0  0  0  0  0  0  0  0  0
    0.1859   -1.1027   41.5970 C   0  0  0  0  0  0  0  0  0  0  0  0
    1.5836   -1.3270   41.4669 C   0  0  0  0  0  0  0  0  0  0  0  0
   -0.2462   -3.3905   41.2409 C   0  0  0  0  0  0  0  0  0  0  0  0
    2.3477   -1.2946   42.4061 C   0  0  0  0  0  0  0  0  0  0  0  0
    2.7729   -2.4267   43.1219 C   0  0  0  0  0  0  0  0  0  0  0  0
    3.9011   -2.5916   43.8820 C   0  0  0  0  0  0  0  0  0  0  0  0
    4.3449   -3.7484   44.5567 C   0  0  0  0  0  0  0  0  0  0  0  0
    3.5391   -4.9054   44.3952 C   0  0  0  0  0  0  0  0  0  0  0  0
    3.4243   -0.2883   42.5390 C   0  0  0  0  0  0  0  0  0  0  0  0
    4.5820   -0.3193   43.2999 C   0  0  0  0  0  0  0  0  0  0  0  0
    4.8626   -1.4542   43.9327 C   0  0  0  0  0  0  0  0  0  0  0  0
    6.0634   -1.6205   44.7535 C   0  0  0  0  0  0  0  0  0  0  0  0
    5.4792   -3.8300   45.3632 C   0  0  0  0  0  0  0  0  0  0  0  0
    6.3488   -2.7453   45.4287 C   0  0  0  0  0  0  0  0  0  0  0  0
   -0.9725   -4.4633   41.6530 N   0  0  0  0  0  0  0  0  0  0  0  0
    2.5745   -5.2697   45.4616 C   0  0  0  0  0  0  0  0  0  0  0  0
    1.7973   -6.4352   45.2996 C   0  0  0  0  0  0  0  0  0  0  0  0
    0.4201   -6.2908   45.5965 C   0  0  0  0  0  0  0  0  0  0  0  0
   -0.3561   -7.4904   45.5318 C   0  0  0  0  0  0  0  0  0  0  0  0
   -1.6665   -7.3376   44.9912 C   0  0  0  0  0  0  0  0  0  0  0  0
   -2.7101   -8.1934   45.4132 C   0  0  2  0  0  0  0  0  0  0  0  0
   -2.6585   -8.9757   46.6645 Cl  0  0  0  0  0  0  0  0  0  0  0  0
   -3.8511   -8.4071   44.4898 C   0  0  0  0  0  0  0  0  0  0  0  0
   -3.6837   -8.1408   43.2022 N   0  0  0  0  0  0  0  0  0  0  0  0
  1  2  1  0
  2  3  2  3
  1  4  1  0
  3  5  1  0
  4 16  1  0
  9 17  1  0
 17 18  1  0
 18 19  1  0
 19 20  1  0
 20 21  1  0
 21 22  1  0
 22 23  1  6
 22 24  1  0
 24 25  1  0
  9  8  1  0
  5  6  2  0
  6  7  1  0
 12 11  1  0
 11 10  2  0
 10  5  1  0
  7  8  2  0
  8 14  1  0
 14 15  2  0
 15 13  1  0
 13 12  2  0
 12  7  1  0
M  END
$$$$
O14757_PocketFlow_idx-in-all-generaetd-926
     RDKit          3D

 12 12  0  0  0  0  0  0  0  0999 V2000
   -0.6395   -2.0713   41.4947 C   0  0  0  0  0  0  0  0  0  0  0  0
    0.1859   -1.1027   41.5970 C   0  0  0  0  0  0  0  0  0  0  0  0
    1.5836   -1.3270   41.4670 C   0  0  0  0  0  0  0  0  0  0  0  0
   -0.2462   -3.3905   41.2409 C   0  0  0  0  0  0  0  0  0  0  0  0
    2.0075   -2.6977   41.3341 C   0  0  0  0  0  0  0  0  0  0  0  0
    1.0655   -3.6470   41.1373 C   0  0  0  0  0  0  0  0  0  0  0  0
    2.4818   -0.3899   41.6447 F   0  0  0  0  0  0  0  0  0  0  0  0
   -2.0304   -1.8328   41.6063 O   0  0  0  0  0  0  0  0  0  0  0  0
   -2.8001   -1.9615   40.4981 C   0  0  0  0  0  0  0  0  0  0  0  0
   -3.9231   -1.0480   40.5061 C   0  0  0  0  0  0  0  0  0  0  0  0
   -3.8045   -0.0337   41.2585 O   0  0  0  0  0  0  0  0  0  0  0  0
   -5.0561   -1.3941   40.0359 O   0  0  0  0  0  0  0  0  0  0  0  0
  3  7  1  0
  1  8  1  0
  8  9  1  0
  9 10  1  0
 10 11  2  0
 10 12  1  0
  1  2  2  0
  2  3  1  0
  3  5  2  0
  5  6  1  0
  6  4  2  0
  4  1  1  0
M  END
$$$$
O14757_PocketFlow_idx-in-all-generaetd-927
     RDKit          3D

 23 25  0  0  0  0  0  0  0  0999 V2000
   -0.6395   -2.0713   41.4947 C   0  0  0  0  0  0  0  0  0  0  0  0
   -0.2671   -3.2464   41.6546 C   0  0  0  0  0  0  0  0  0  0  0  0
    0.2407   -0.9706   41.5952 C   0  0  0  0  0  0  0  0  0  0  0  0
    1.6195   -1.2958   41.8767 C   0  0  0  0  0  0  0  0  0  0  0  0
    1.9162   -2.6816   42.2016 C   0  0  0  0  0  0  0  0  0  0  0  0
    0.9422   -3.6324   42.1156 C   0  0  0  0  0  0  0  0  0  0  0  0
    2.6088   -0.2775   42.1300 C   0  0  0  0  0  0  0  0  0  0  0  0
    3.9059   -0.5876   42.5995 C   0  0  0  0  0  0  0  0  0  0  0  0
    4.9047    0.3979   42.7294 C   0  0  0  0  0  0  0  0  0  0  0  0
   -1.9681   -1.7817   41.0776 N   0  0  0  0  0  0  0  0  0  0  0  0
    4.2115   -1.8853   43.0867 C   0  0  0  0  0  0  0  0  0  0  0  0
    5.3766   -1.9175   43.9888 C   0  0  0  0  0  0  0  0  0  0  0  0
    5.6454   -3.1184   44.7313 C   0  0  0  0  0  0  0  0  0  0  0  0
    4.6492   -4.0394   44.9761 C   0  0  0  0  0  0  0  0  0  0  0  0
    4.8664   -5.0787   45.8258 C   0  0  0  0  0  0  0  0  0  0  0  0
    3.9543   -5.0501   46.9005 C   0  0  0  0  0  0  0  0  0  0  0  0
    6.0312    0.1972   43.4765 C   0  0  0  0  0  0  0  0  0  0  0  0
    6.2780   -0.8562   44.1108 C   0  0  0  0  0  0  0  0  0  0  0  0
    3.1967   -4.3662   46.7298 C   0  0  0  0  0  0  0  0  0  0  0  0
    3.0775   -3.6877   45.4262 C   0  0  0  0  0  0  0  0  0  0  0  0
   -2.6017   -0.5815   41.2773 C   0  0  0  0  0  0  0  0  0  0  0  0
   -2.7642   -2.7345   40.4850 C   0  0  0  0  0  0  0  0  0  0  0  0
   -3.5502   -0.4231   40.7004 Cl  0  0  0  0  0  0  0  0  0  0  0  0
  4  7  1  0
  1 10  1  0
 12 13  1  0
 13 14  2  3
 14 15  1  0
 15 16  2  0
 16 19  1  0
 14 20  1  0
 19 20  1  0
 10 21  1  0
 10 22  1  0
 21 23  1  0
  7  8  1  0
  8  9  2  0
  9 17  1  0
 17 18  2  0
 18 12  1  0
 12 11  2  0
 11  8  1  0
  1  2  2  0
  2  6  1  0
  6  5  2  0
  5  4  1  0
  4  3  2  0
  3  1  1  0
M  END
$$$$
O14757_PocketFlow_idx-in-all-generaetd-928
     RDKit          3D

 33 36  0  0  0  0  0  0  0  0999 V2000
   -0.8794   -1.9236   41.9357 O   0  0  0  0  0  0  0  0  0  0  0  0
    0.3182   -2.2442   41.7073 C   0  0  0  0  0  0  0  0  0  0  0  0
    1.3036   -2.2273   42.6607 C   0  0  2  0  0  0  0  0  0  0  0  0
    2.4264   -2.9993   42.6027 C   0  0  0  0  0  0  0  0  0  0  0  0
    3.2298   -2.8943   43.8567 C   0  0  0  0  0  0  0  0  0  0  0  0
    4.3004   -1.9644   43.9245 C   0  0  0  0  0  0  0  0  0  0  0  0
    4.5835   -0.8830   43.0471 C   0  0  0  0  0  0  0  0  0  0  0  0
    3.7028   -0.3495   42.1629 C   0  0  0  0  0  0  0  0  0  0  0  0
    2.3415   -0.5507   42.1511 C   0  0  2  0  0  0  0  0  0  0  0  0
    1.6300   -0.0493   41.0129 C   0  0  1  0  0  0  0  0  0  0  0  0
    1.2715    0.2998   42.6767 C   0  0  0  0  0  0  0  0  0  0  0  0
    2.7486    0.8395   40.8500 C   0  0  0  0  0  0  0  0  0  0  0  0
    3.9506    0.5801   41.3139 N   0  0  0  0  0  0  0  0  0  0  0  0
    0.2894   -0.3038   43.0344 O   0  0  0  0  0  0  0  0  0  0  0  0
    0.6926   -2.7479   43.8152 O   0  0  0  0  0  0  0  0  0  0  0  0
    5.1869   -2.2455   45.0653 C   0  0  0  0  0  0  0  0  0  0  0  0
    5.5677   -3.0395   45.5597 C   0  0  0  0  0  0  0  0  0  0  0  0
    6.6528   -3.1580   46.5980 C   0  0  0  0  0  0  0  0  0  0  0  0
    7.6052   -2.1355   46.4627 C   0  0  0  0  0  0  0  0  0  0  0  0
    7.3478   -1.0629   45.5947 C   0  0  0  0  0  0  0  0  0  0  0  0
    6.2809   -1.0051   44.8628 C   0  0  0  0  0  0  0  0  0  0  0  0
    5.7609   -0.1676   43.5412 C   0  0  0  0  0  0  0  0  0  0  0  0
   -1.1575   -0.6925   41.6046 C   0  0  0  0  0  0  0  0  0  0  0  0
    1.7113    1.3581   43.0339 O   0  0  0  0  0  0  0  0  0  0  0  0
   -2.4784   -0.5501   41.0953 O   0  0  0  0  0  0  0  0  0  0  0  0
    6.8329   -4.2692   47.5117 C   0  0  0  0  0  0  0  0  0  0  0  0
    5.8074   -4.5376   48.4373 C   0  0  0  0  0  0  0  0  0  0  0  0
    6.0258   -5.5940   49.3868 C   0  0  0  0  0  0  0  0  0  0  0  0
    6.3730   -6.7538   48.8295 C   0  0  0  0  0  0  0  0  0  0  0  0
    7.6390   -6.6618   48.1155 C   0  0  0  0  0  0  0  0  0  0  0  0
    7.7909   -5.3588   47.3159 C   0  0  0  0  0  0  0  0  0  0  0  0
   -0.4636    0.0668   41.2861 O   0  0  0  0  0  0  0  0  0  0  0  0
    1.0502   -0.5217   40.2808 O   0  0  0  0  0  0  0  0  0  0  0  0
  1  2  1  0
  2  3  1  0
  3  4  1  0
  4  5  1  0
  5  6  2  3
  6  7  1  0
  7  8  2  3
  8  9  1  0
  9 10  1  0
  9 11  1  1
 10 12  1  0
  8 13  1  0
 12 13  1  0
 11 14  1  0
  3 15  1  1
  6 16  1  0
  7 22  1  0
 21 22  1  0
  1 23  1  0
 11 24  1  0
 23 25  1  0
 18 26  1  0
 23 32  2  0
 10 33  1  6
 26 27  2  0
 27 28  1  0
 28 29  2  0
 29 30  1  0
 30 31  2  0
 31 26  1  0
 16 17  2  0
 17 18  1  0
 18 19  2  0
 19 20  1  0
 20 21  2  0
 21 16  1  0
M  END
$$$$
O14757_PocketFlow_idx-in-all-generaetd-929
     RDKit          3D

 35 37  0  0  0  0  0  0  0  0999 V2000
   -0.6395   -2.0713   41.4947 C   0  0  0  0  0  0  0  0  0  0  0  0
   -0.2671   -3.2464   41.6546 C   0  0  0  0  0  0  0  0  0  0  0  0
    0.2407   -0.9706   41.5952 C   0  0  0  0  0  0  0  0  0  0  0  0
    1.6195   -1.2958   41.8767 C   0  0  0  0  0  0  0  0  0  0  0  0
    1.9162   -2.6816   42.2016 C   0  0  0  0  0  0  0  0  0  0  0  0
    0.9422   -3.6324   42.1156 C   0  0  0  0  0  0  0  0  0  0  0  0
    2.4594   -0.2052   42.1939 C   0  0  0  0  0  0  0  0  0  0  0  0
    2.2771    0.9439   42.3223 N   0  0  0  0  0  0  0  0  0  0  0  0
    3.8251   -0.5690   42.2641 F   0  0  0  0  0  0  0  0  0  0  0  0
   -2.2697   -1.6623   40.9800 Cl  0  0  0  0  0  0  0  0  0  0  0  0
    3.1089   -2.8802   42.6983 O   0  0  0  0  0  0  0  0  0  0  0  0
    3.2931   -3.5540   43.8718 C   0  0  0  0  0  0  0  0  0  0  0  0
    2.4567   -4.3532   44.4586 C   0  0  0  0  0  0  0  0  0  0  0  0
    2.8181   -4.8990   45.6490 C   0  0  0  0  0  0  0  0  0  0  0  0
    4.0729   -4.6806   46.2411 C   0  0  0  0  0  0  0  0  0  0  0  0
    4.9580   -3.7497   45.6383 C   0  0  0  0  0  0  0  0  0  0  0  0
    4.6014   -3.2106   44.4749 C   0  0  0  0  0  0  0  0  0  0  0  0
    6.2727   -3.4997   46.2630 C   0  0  0  0  0  0  0  0  0  0  0  0
    7.0833   -2.8714   45.5293 F   0  0  0  0  0  0  0  0  0  0  0  0
    6.1436   -2.7058   47.4240 F   0  0  0  0  0  0  0  0  0  0  0  0
    6.8503   -4.6414   46.7358 F   0  0  0  0  0  0  0  0  0  0  0  0
    1.9747   -5.7373   46.2992 O   0  0  0  0  0  0  0  0  0  0  0  0
    0.8977   -6.1496   45.5957 C   0  0  0  0  0  0  0  0  0  0  0  0
   -0.4135   -5.9164   46.0374 C   0  0  0  0  0  0  0  0  0  0  0  0
   -0.8975   -6.8238   46.8256 O   0  0  0  0  0  0  0  0  0  0  0  0
   -2.0204   -7.5600   46.4232 C   0  0  1  0  0  0  0  0  0  0  0  0
   -2.0001   -7.6626   44.9968 C   0  0  0  0  0  0  0  0  0  0  0  0
   -3.1985   -8.1246   44.2949 C   0  0  0  0  0  0  0  0  0  0  0  0
   -3.2713   -8.0709   42.8881 C   0  0  0  0  0  0  0  0  0  0  0  0
   -4.4855   -8.4586   42.3276 C   0  0  0  0  0  0  0  0  0  0  0  0
   -5.5329   -8.8760   43.0741 C   0  0  0  0  0  0  0  0  0  0  0  0
   -5.4853   -8.9612   44.4593 C   0  0  0  0  0  0  0  0  0  0  0  0
   -4.3087   -8.5189   45.1079 C   0  0  0  0  0  0  0  0  0  0  0  0
   -2.0115   -8.8811   47.1614 C   0  0  0  0  0  0  0  0  0  0  0  0
   -1.1429   -8.8331   48.2250 C   0  0  0  0  0  0  0  0  0  0  0  0
  4  7  1  0
  7  8  2  3
  7  9  1  0
  1 10  1  0
  5 11  1  0
 11 12  1  0
 16 18  1  0
 18 19  1  0
 18 20  1  0
 18 21  1  0
 14 22  1  0
 22 23  1  0
 23 24  1  0
 24 25  1  0
 25 26  1  0
 26 27  1  6
 26 34  1  0
 34 35  1  0
 27 28  1  0
 12 13  2  0
 13 14  1  0
 14 15  2  0
 15 16  1  0
 16 17  2  0
 17 12  1  0
 28 29  2  0
 29 30  1  0
 30 31  2  0
 31 32  1  0
 32 33  2  0
 33 28  1  0
  1  2  2  0
  2  6  1  0
  6  5  2  0
  5  4  1  0
  4  3  2  0
  3  1  1  0
M  END
$$$$
O14757_PocketFlow_idx-in-all-generaetd-930
     RDKit          3D

 35 39  0  0  0  0  0  0  0  0999 V2000
    0.2881   -2.9111   42.4378 C   0  0  0  0  0  0  0  0  0  0  0  0
    1.3023   -2.0648   42.1981 C   0  0  0  0  0  0  0  0  0  0  0  0
    2.5313   -2.2887   42.6989 C   0  0  0  0  0  0  0  0  0  0  0  0
    3.5902   -1.3681   42.6298 C   0  0  0  0  0  0  0  0  0  0  0  0
    4.8714   -1.6160   43.2849 C   0  0  0  0  0  0  0  0  0  0  0  0
    0.5674   -4.0093   43.2620 C   0  0  0  0  0  0  0  0  0  0  0  0
    1.7193   -4.0624   44.0235 C   0  0  0  0  0  0  0  0  0  0  0  0
    2.7656   -3.1701   43.8038 C   0  0  0  0  0  0  0  0  0  0  0  0
    4.9476   -2.5900   44.2535 C   0  0  0  0  0  0  0  0  0  0  0  0
    3.9330   -3.3984   44.5461 C   0  0  0  0  0  0  0  0  0  0  0  0
   -0.8749   -2.8798   41.7224 N   0  0  0  0  0  0  0  0  0  0  0  0
    4.0417   -4.4908   45.4673 C   0  0  0  0  0  0  0  0  0  0  0  0
    3.3022   -5.6293   45.5186 C   0  0  0  0  0  0  0  0  0  0  0  0
    1.9539   -5.3611   44.8439 C   0  0  0  0  0  0  0  0  0  0  0  0
    0.9024   -6.2842   45.0292 C   0  0  0  0  0  0  0  0  0  0  0  0
    0.9884   -7.0457   45.9442 O   0  0  0  0  0  0  0  0  0  0  0  0
   -0.0461   -6.4661   44.1181 N   0  0  0  0  0  0  0  0  0  0  0  0
    1.0952   -1.0752   41.2592 N   0  0  0  0  0  0  0  0  0  0  0  0
    2.1069   -0.1502   41.0532 C   0  0  0  0  0  0  0  0  0  0  0  0
    3.2956   -0.2305   41.6894 N   0  0  0  0  0  0  0  0  0  0  0  0
   -1.1068   -7.4535   44.2702 C   0  0  0  0  0  0  0  0  0  0  0  0
   -1.4750   -7.7045   45.6343 C   0  0  0  0  0  0  0  0  0  0  0  0
   -2.3026   -8.1879   45.9500 C   0  0  0  0  0  0  0  0  0  0  0  0
   -2.7588   -8.4950   47.3575 C   0  0  0  0  0  0  0  0  0  0  0  0
   -3.8805   -9.1216   47.7703 C   0  0  0  0  0  0  0  0  0  0  0  0
   -3.5425   -8.7029   45.1406 C   0  0  0  0  0  0  0  0  0  0  0  0
   -4.6154   -9.3943   45.5397 C   0  0  0  0  0  0  0  0  0  0  0  0
   -4.8038   -9.5540   46.9225 C   0  0  0  0  0  0  0  0  0  0  0  0
    6.1921   -2.6211   44.9085 N   0  0  0  0  0  0  0  0  0  0  0  0
    6.6574   -1.7580   45.9083 C   0  0  0  0  0  0  0  0  0  0  0  0
    8.0451   -1.9999   46.1970 C   0  0  0  0  0  0  0  0  0  0  0  0
    8.4490   -3.2683   46.8255 C   0  0  0  0  0  0  0  0  0  0  0  0
    7.5915   -4.1495   47.2213 C   0  0  0  0  0  0  0  0  0  0  0  0
    8.0140   -5.2652   47.9730 C   0  0  0  0  0  0  0  0  0  0  0  0
    9.3483   -5.5436   48.0476 C   0  0  0  0  0  0  0  0  0  0  0  0
  1 11  1  0
 14 15  1  0
 15 16  2  0
 15 17  1  0
 17 21  1  0
 21 22  1  0
  9 29  1  0
 29 30  1  0
 30 31  1  0
 31 32  1  0
 32 33  1  0
 33 34  2  3
 34 35  1  0
 22 23  1  0
  4  5  1  0
  5  9  2  0
  9 10  1  0
 23 24  2  0
 24 25  1  0
 25 28  2  0
 28 27  1  0
 27 26  2  0
 26 23  1  0
  1  2  2  0
  3  8  2  0
  7  6  2  0
  6  1  1  0
  7  8  1  0
  8 10  1  0
 10 12  2  0
 12 13  1  0
 13 14  2  0
 14  7  1  0
  2  3  1  0
  3  4  1  0
  4 20  2  0
 20 19  1  0
 19 18  2  0
 18  2  1  0
M  END
$$$$
O14757_PocketFlow_idx-in-all-generaetd-931
     RDKit          3D

 11 10  0  0  0  0  0  0  0  0999 V2000
   -0.6395   -2.0713   41.4947 C   0  0  0  0  0  0  0  0  0  0  0  0
    0.1859   -1.1027   41.5970 C   0  0  0  0  0  0  0  0  0  0  0  0
    0.4133   -0.3094   42.2420 C   0  0  0  0  0  0  0  0  0  0  0  0
   -0.5062   -3.2637   40.8029 C   0  0  0  0  0  0  0  0  0  0  0  0
   -1.3018   -4.2573   41.1571 N   0  0  0  0  0  0  0  0  0  0  0  0
    1.5584    0.6116   42.1339 C   0  0  0  0  0  0  0  0  0  0  0  0
    2.8900   -0.0916   42.2376 C   0  0  1  0  0  0  0  0  0  0  0  0
    4.0721    0.5435   42.6346 C   0  0  0  0  0  0  0  0  0  0  0  0
    5.2088   -0.2783   42.8490 C   0  0  0  0  0  0  0  0  0  0  0  0
    5.0642   -1.6588   42.9176 C   0  0  0  0  0  0  0  0  0  0  0  0
    2.9288   -1.4108   42.4208 F   0  0  0  0  0  0  0  0  0  0  0  0
  1  2  1  0
  2  3  2  3
  1  4  1  0
  4  5  1  0
  3  6  1  0
  6  7  1  0
  7  8  1  0
  8  9  2  3
  9 10  1  0
  7 11  1  1
M  END
$$$$
O14757_PocketFlow_idx-in-all-generaetd-932
     RDKit          3D

 30 33  0  0  0  0  0  0  0  0999 V2000
   -0.8794   -1.9236   41.9357 O   0  0  0  0  0  0  0  0  0  0  0  0
    0.3182   -2.2442   41.7073 C   0  0  0  0  0  0  0  0  0  0  0  0
    1.3766   -1.3498   41.6019 C   0  0  0  0  0  0  0  0  0  0  0  0
    1.9368   -1.0086   42.7216 C   0  0  2  0  0  0  0  0  0  0  0  0
    3.1357   -0.0683   42.6358 C   0  0  0  0  0  0  0  0  0  0  0  0
    0.5049   -3.5596   41.8183 O   0  0  0  0  0  0  0  0  0  0  0  0
    4.3752   -0.3822   43.2065 C   0  0  0  0  0  0  0  0  0  0  0  0
    4.5808   -1.5588   43.9125 C   0  0  0  0  0  0  0  0  0  0  0  0
    5.5934   -1.6993   44.8736 C   0  0  0  0  0  0  0  0  0  0  0  0
    5.5800   -2.8199   45.7454 C   0  0  0  0  0  0  0  0  0  0  0  0
    6.6541   -3.0715   46.6648 C   0  0  0  0  0  0  0  0  0  0  0  0
    7.8519   -2.3864   46.4904 C   0  0  0  0  0  0  0  0  0  0  0  0
    7.8429   -1.2785   45.5156 C   0  0  0  0  0  0  0  0  0  0  0  0
    6.8196   -1.0576   44.6928 C   0  0  0  0  0  0  0  0  0  0  0  0
    4.3386   -3.5537   45.9603 C   0  0  0  0  0  0  0  0  0  0  0  0
    4.0610   -4.2384   47.0601 C   0  0  0  0  0  0  0  0  0  0  0  0
    3.3636   -3.6443   44.9399 C   0  0  0  0  0  0  0  0  0  0  0  0
    3.3840   -2.4535   43.9863 C   0  0  0  0  0  0  0  0  0  0  0  0
    2.2149   -2.1203   43.2817 C   0  0  0  0  0  0  0  0  0  0  0  0
    8.9970   -2.6586   47.3285 C   0  0  0  0  0  0  0  0  0  0  0  0
    9.7147   -3.6106   47.2590 C   0  0  0  0  0  0  0  0  0  0  0  0
    9.2808   -4.8921   46.9829 C   0  0  0  0  0  0  0  0  0  0  0  0
   10.0924   -6.0433   46.8155 C   0  0  0  0  0  0  0  0  0  0  0  0
   11.4757   -5.8666   46.8691 C   0  0  0  0  0  0  0  0  0  0  0  0
   11.9995   -4.6394   47.1988 C   0  0  0  0  0  0  0  0  0  0  0  0
   11.1944   -3.5268   47.3556 C   0  0  0  0  0  0  0  0  0  0  0  0
    2.5028   -4.3571   44.7507 F   0  0  0  0  0  0  0  0  0  0  0  0
    5.3516    0.4756   43.0984 O   0  0  0  0  0  0  0  0  0  0  0  0
    9.2782   -1.5695   48.3412 C   0  0  0  0  0  0  0  0  0  0  0  0
   -1.9449   -2.3742   41.1035 C   0  0  0  0  0  0  0  0  0  0  0  0
  1  2  1  0
  2  3  1  0
  4  3  1  6
  4  5  1  0
  2  6  2  0
  5  7  1  0
  7  8  1  0
 15 16  1  0
  4 19  1  0
 18 19  1  0
 12 20  1  0
 20 21  1  0
 17 27  1  0
  7 28  2  0
 20 29  1  0
  1 30  1  0
  8  9  2  0
 10 15  2  0
 15 17  1  0
 17 18  2  0
 18  8  1  0
  9 10  1  0
 10 11  1  0
 11 12  2  0
 12 13  1  0
 13 14  2  0
 14  9  1  0
 21 22  2  0
 22 23  1  0
 23 24  2  0
 24 25  1  0
 25 26  2  0
 26 21  1  0
M  END
$$$$
O14757_PocketFlow_idx-in-all-generaetd-933
     RDKit          3D

 18 18  0  0  0  0  0  0  0  0999 V2000
   -0.6395   -2.0713   41.4947 C   0  0  0  0  0  0  0  0  0  0  0  0
   -0.2671   -3.2464   41.6546 C   0  0  0  0  0  0  0  0  0  0  0  0
    0.2407   -0.9706   41.5952 C   0  0  0  0  0  0  0  0  0  0  0  0
    1.6195   -1.2958   41.8767 C   0  0  0  0  0  0  0  0  0  0  0  0
    1.9162   -2.6816   42.2016 C   0  0  0  0  0  0  0  0  0  0  0  0
    0.9422   -3.6324   42.1156 C   0  0  0  0  0  0  0  0  0  0  0  0
    2.6088   -0.2775   42.1300 C   0  0  0  0  0  0  0  0  0  0  0  0
    3.9059   -0.5876   42.5995 C   0  0  0  0  0  0  0  0  0  0  0  0
    4.9047    0.3979   42.7294 C   0  0  0  0  0  0  0  0  0  0  0  0
   -2.2862   -1.7074   40.9756 Cl  0  0  0  0  0  0  0  0  0  0  0  0
    4.2087   -1.8871   43.0887 C   0  0  0  0  0  0  0  0  0  0  0  0
    5.3867   -1.8818   43.9744 C   0  0  0  0  0  0  0  0  0  0  0  0
    5.6855   -3.0561   44.7620 C   0  0  0  0  0  0  0  0  0  0  0  0
    4.6990   -3.9545   45.1183 C   0  0  0  0  0  0  0  0  0  0  0  0
    4.7603   -4.7076   46.2616 C   0  0  0  0  0  0  0  0  0  0  0  0
    5.8152   -4.2673   47.2419 C   0  0  0  0  0  0  0  0  0  0  0  0
    5.8693   -4.9526   48.5024 C   0  0  0  0  0  0  0  0  0  0  0  0
    6.9870   -5.6842   48.7499 C   0  0  0  0  0  0  0  0  0  0  0  0
  4  7  1  0
  7  8  2  3
  8  9  1  0
  1 10  1  0
  8 11  1  0
 11 12  2  3
 12 13  1  0
 13 14  1  0
 14 15  2  3
 15 16  1  0
 16 17  1  0
 17 18  1  0
  1  2  2  0
  2  6  1  0
  6  5  2  0
  5  4  1  0
  4  3  2  0
  3  1  1  0
M  END
$$$$
O14757_PocketFlow_idx-in-all-generaetd-934
     RDKit          3D

 17 20  0  0  0  0  0  0  0  0999 V2000
   -0.8794   -1.9236   41.9357 O   0  0  0  0  0  0  0  0  0  0  0  0
    0.3182   -2.2442   41.7073 C   0  0  1  0  0  0  0  0  0  0  0  0
    1.3766   -1.3498   41.6019 C   0  0  0  0  0  0  0  0  0  0  0  0
    2.6423   -1.6963   42.1387 C   0  0  0  0  0  0  0  0  0  0  0  0
    3.6599   -0.7394   42.2848 C   0  0  0  0  0  0  0  0  0  0  0  0
    4.8835   -1.0337   42.9772 C   0  0  0  0  0  0  0  0  0  0  0  0
    4.6892   -1.4929   44.2983 C   0  0  0  0  0  0  0  0  0  0  0  0
    4.0392   -2.7928   44.4793 C   0  0  0  0  0  0  0  0  0  0  0  0
    2.7398   -3.1572   43.9965 C   0  0  0  0  0  0  0  0  0  0  0  0
    2.0934   -4.2821   44.5184 C   0  0  0  0  0  0  0  0  0  0  0  0
    2.1519   -2.5994   42.8770 C   0  0  0  0  0  0  0  0  0  0  0  0
    0.8084   -4.5829   44.0599 C   0  0  0  0  0  0  0  0  0  0  0  0
    0.9265   -3.1609   42.6287 C   0  0  0  0  0  0  0  0  0  0  0  0
    0.1133   -4.1423   43.1729 C   0  0  0  0  0  0  0  0  0  0  0  0
    4.6379   -3.5477   45.5962 C   0  0  0  0  0  0  0  0  0  0  0  0
    4.3300   -4.8108   45.8354 C   0  0  0  0  0  0  0  0  0  0  0  0
    2.9278   -5.1948   45.4451 C   0  0  0  0  0  0  0  0  0  0  0  0
  2  1  1  1
  2  3  1  0
  3  4  2  0
  4  5  1  0
  5  6  1  0
  6  7  1  0
  7  8  1  0
  4 11  1  0
  2 13  1  0
 10 12  1  0
 12 14  2  0
 14 13  1  0
 13 11  2  0
 11  9  1  0
  8  9  2  0
  9 10  1  0
 10 17  2  0
 17 16  1  0
 16 15  2  0
 15  8  1  0
M  END
$$$$
O14757_PocketFlow_idx-in-all-generaetd-935
     RDKit          3D

 33 37  0  0  0  0  0  0  0  0999 V2000
    0.2881   -2.9111   42.4378 C   0  0  0  0  0  0  0  0  0  0  0  0
   -0.0650   -2.5021   41.5798 C   0  0  0  0  0  0  0  0  0  0  0  0
    1.5111   -2.4518   43.1047 C   0  0  0  0  0  0  0  0  0  0  0  0
    2.1892   -1.4341   42.4770 C   0  0  0  0  0  0  0  0  0  0  0  0
    1.5990   -0.8333   41.3694 C   0  0  0  0  0  0  0  0  0  0  0  0
    0.4724   -1.3248   40.8538 C   0  0  0  0  0  0  0  0  0  0  0  0
    3.4542   -0.9703   43.0418 C   0  0  0  0  0  0  0  0  0  0  0  0
    4.2118    0.0180   42.5145 C   0  0  0  0  0  0  0  0  0  0  0  0
    4.0925   -1.7826   44.0775 C   0  0  0  0  0  0  0  0  0  0  0  0
    5.2829   -1.3808   44.6938 C   0  0  0  0  0  0  0  0  0  0  0  0
    5.4306    0.4234   43.1860 C   0  0  0  0  0  0  0  0  0  0  0  0
    5.9836   -0.3376   44.1475 C   0  0  0  0  0  0  0  0  0  0  0  0
   -1.5839   -3.0217   40.7849 Cl  0  0  0  0  0  0  0  0  0  0  0  0
    5.8408   -2.2732   45.7503 C   0  0  0  0  0  0  0  0  0  0  0  0
    7.1782   -2.2837   46.1101 C   0  0  0  0  0  0  0  0  0  0  0  0
    7.7215   -3.2254   46.9659 C   0  0  0  0  0  0  0  0  0  0  0  0
    6.8368   -4.0632   47.6225 C   0  0  0  0  0  0  0  0  0  0  0  0
    5.4743   -4.0195   47.3943 C   0  0  0  0  0  0  0  0  0  0  0  0
    4.9393   -3.1276   46.4649 C   0  0  0  0  0  0  0  0  0  0  0  0
    9.1634   -3.3249   47.1626 C   0  0  0  0  0  0  0  0  0  0  0  0
    9.7971   -4.5695   46.8506 C   0  0  0  0  0  0  0  0  0  0  0  0
    9.2301   -5.7293   46.7691 C   0  0  0  0  0  0  0  0  0  0  0  0
    9.9350   -6.9454   46.5606 C   0  0  0  0  0  0  0  0  0  0  0  0
   11.3076   -6.8459   46.3905 C   0  0  0  0  0  0  0  0  0  0  0  0
   11.9814   -5.6127   46.4649 C   0  0  0  0  0  0  0  0  0  0  0  0
   11.2644   -4.4625   46.7174 C   0  0  0  0  0  0  0  0  0  0  0  0
    9.8654   -2.0833   46.5728 C   0  0  0  0  0  0  0  0  0  0  0  0
    9.3722   -3.1658   48.7949 C   0  0  0  0  0  0  0  0  0  0  0  0
   10.4582   -3.1999   49.3431 C   0  0  0  0  0  0  0  0  0  0  0  0
   10.5932   -2.9672   50.7651 C   0  0  0  0  0  0  0  0  0  0  0  0
    9.4130   -2.6471   51.5028 C   0  0  0  0  0  0  0  0  0  0  0  0
    8.1650   -2.6642   50.8483 C   0  0  0  0  0  0  0  0  0  0  0  0
    8.1588   -2.8308   49.5454 C   0  0  0  0  0  0  0  0  0  0  0  0
  4  7  1  0
  2 13  1  0
 10 14  1  0
 16 20  1  0
 20 21  1  0
 20 27  1  0
 20 28  1  0
  7  8  2  0
  8 11  1  0
 11 12  2  0
 12 10  1  0
 10  9  2  0
  9  7  1  0
 14 15  2  0
 15 16  1  0
 16 17  2  0
 17 18  1  0
 18 19  2  0
 19 14  1  0
  1  2  2  0
  2  6  1  0
  6  5  2  0
  5  4  1  0
  4  3  2  0
  3  1  1  0
 28 29  2  0
 29 30  1  0
 30 31  2  0
 31 32  1  0
 32 33  2  0
 33 28  1  0
 21 22  2  0
 22 23  1  0
 23 24  2  0
 24 25  1  0
 25 26  2  0
 26 21  1  0
M  END
$$$$
O14757_PocketFlow_idx-in-all-generaetd-936
     RDKit          3D

 35 38  0  0  0  0  0  0  0  0999 V2000
   -0.6395   -2.0713   41.4947 C   0  0  0  0  0  0  0  0  0  0  0  0
    0.1859   -1.1027   41.5970 C   0  0  0  0  0  0  0  0  0  0  0  0
    1.5836   -1.3270   41.4670 C   0  0  0  0  0  0  0  0  0  0  0  0
   -0.2462   -3.3905   41.2409 C   0  0  0  0  0  0  0  0  0  0  0  0
    2.5675   -0.3473   41.7943 C   0  0  0  0  0  0  0  0  0  0  0  0
    3.8546   -0.6776   42.2362 C   0  0  0  0  0  0  0  0  0  0  0  0
    4.0077   -1.8820   43.0242 C   0  0  0  0  0  0  0  0  0  0  0  0
    2.8789   -2.7943   43.1640 C   0  0  0  0  0  0  0  0  0  0  0  0
    1.6842   -2.4135   42.4336 C   0  0  0  0  0  0  0  0  0  0  0  0
    0.8829   -3.7080   42.1645 C   0  0  0  0  0  0  0  0  0  0  0  0
    2.9423   -3.7523   44.1894 C   0  0  0  0  0  0  0  0  0  0  0  0
    1.8687   -4.3041   44.8604 C   0  0  0  0  0  0  0  0  0  0  0  0
    1.8079   -5.1296   45.7468 C   0  0  0  0  0  0  0  0  0  0  0  0
    3.0917   -5.5765   46.2419 C   0  0  0  0  0  0  0  0  0  0  0  0
    4.2629   -5.0816   45.6962 C   0  0  0  0  0  0  0  0  0  0  0  0
    4.2316   -4.1491   44.7340 C   0  0  0  0  0  0  0  0  0  0  0  0
    4.9460    0.2948   42.3839 C   0  0  0  0  0  0  0  0  0  0  0  0
    0.6112   -5.6954   46.3345 C   0  0  0  0  0  0  0  0  0  0  0  0
   -0.3863   -5.1251   46.1852 O   0  0  0  0  0  0  0  0  0  0  0  0
    0.6045   -6.8710   46.8646 O   0  0  0  0  0  0  0  0  0  0  0  0
   -2.1439   -1.7724   41.3463 C   0  0  0  0  0  0  0  0  0  0  0  0
   -2.5165   -0.5700   41.4256 O   0  0  0  0  0  0  0  0  0  0  0  0
   -2.9408   -2.6508   40.7933 O   0  0  0  0  0  0  0  0  0  0  0  0
    5.8030    0.0999   43.3586 O   0  0  0  0  0  0  0  0  0  0  0  0
    5.2221    1.0063   41.3639 O   0  0  0  0  0  0  0  0  0  0  0  0
   -0.7025   -7.4843   47.0672 C   0  0  0  0  0  0  0  0  0  0  0  0
   -1.0209   -8.4131   46.0545 C   0  0  2  0  0  0  0  0  0  0  0  0
   -0.4370   -8.1064   44.9464 C   0  0  0  0  0  0  0  0  0  0  0  0
   -1.2888   -7.3752   43.8441 C   0  0  1  0  0  0  0  0  0  0  0  0
   -0.5863   -6.8100   42.7695 C   0  0  0  0  0  0  0  0  0  0  0  0
   -2.6163   -7.7423   43.8206 C   0  0  0  0  0  0  0  0  0  0  0  0
   -3.2440   -8.2121   44.8663 N   0  0  0  0  0  0  0  0  0  0  0  0
   -2.4901   -8.6671   45.9864 C   0  0  0  0  0  0  0  0  0  0  0  0
   -4.7098   -8.3014   44.8344 C   0  0  0  0  0  0  0  0  0  0  0  0
   -5.3370   -7.7633   43.8309 C   0  0  0  0  0  0  0  0  0  0  0  0
  8 11  1  0
  6 17  1  0
 13 18  1  0
 18 19  2  0
 18 20  1  0
  1 21  1  0
 21 22  2  0
 21 23  1  0
 17 24  2  0
 17 25  1  0
 20 26  1  0
 27 26  1  1
 27 28  1  0
 29 30  1  6
 29 31  1  0
 31 32  1  0
 27 33  1  0
 32 33  1  0
 32 34  1  0
 34 35  1  0
 29 28  1  0
 11 12  2  0
 12 13  1  0
 13 14  2  0
 14 15  1  0
 15 16  2  0
 16 11  1  0
  3  5  2  0
  5  6  1  0
  6  7  2  0
  7  8  1  0
  8  9  2  0
  1  2  2  0
  2  3  1  0
  3  9  1  0
  9 10  1  0
 10  4  2  0
  4  1  1  0
M  END
$$$$
O14757_PocketFlow_idx-in-all-generaetd-937
     RDKit          3D

  5  4  0  0  0  0  0  0  0  0999 V2000
    0.2881   -2.9111   42.4378 C   0  0  0  0  0  0  0  0  0  0  0  0
    0.9507   -2.0592   42.5168 F   0  0  0  0  0  0  0  0  0  0  0  0
    0.5043   -3.8643   41.7181 F   0  0  0  0  0  0  0  0  0  0  0  0
    0.1616   -3.5227   43.7621 F   0  0  0  0  0  0  0  0  0  0  0  0
   -0.9996   -2.4143   42.1551 F   0  0  0  0  0  0  0  0  0  0  0  0
  1  2  1  0
  1  3  1  0
  1  4  1  0
  1  5  1  0
M  END
$$$$
O14757_PocketFlow_idx-in-all-generaetd-938
     RDKit          3D

 35 38  0  0  0  0  0  0  0  0999 V2000
   -0.6395   -2.0713   41.4947 C   0  0  0  0  0  0  0  0  0  0  0  0
   -0.2671   -3.2464   41.6546 C   0  0  0  0  0  0  0  0  0  0  0  0
   -0.3973   -1.1236   41.8820 C   0  0  0  0  0  0  0  0  0  0  0  0
    0.8910   -3.4382   42.5023 C   0  0  0  0  0  0  0  0  0  0  0  0
    1.4837   -2.2518   42.8648 C   0  0  0  0  0  0  0  0  0  0  0  0
    0.9066   -1.0463   42.5694 C   0  0  0  0  0  0  0  0  0  0  0  0
    2.7439   -2.3747   43.6272 C   0  0  0  0  0  0  0  0  0  0  0  0
    3.0652   -3.5402   44.3828 C   0  0  0  0  0  0  0  0  0  0  0  0
    4.3228   -3.5103   45.0295 C   0  0  0  0  0  0  0  0  0  0  0  0
    5.1797   -2.4191   44.9330 C   0  0  0  0  0  0  0  0  0  0  0  0
    4.8798   -1.4112   44.1022 C   0  0  0  0  0  0  0  0  0  0  0  0
    3.6805   -1.3244   43.4539 C   0  0  0  0  0  0  0  0  0  0  0  0
    6.5100   -2.5327   45.6098 C   0  0  0  0  0  0  0  0  0  0  0  0
    6.8183   -2.7017   46.7025 C   0  0  0  0  0  0  0  0  0  0  0  0
    8.2020   -2.8487   47.2101 C   0  0  0  0  0  0  0  0  0  0  0  0
    9.1087   -1.9443   46.7122 C   0  0  0  0  0  0  0  0  0  0  0  0
    8.6806   -1.2193   45.5031 C   0  0  0  0  0  0  0  0  0  0  0  0
    7.4943   -1.4892   44.9153 C   0  0  0  0  0  0  0  0  0  0  0  0
   10.4262   -1.7461   47.2754 C   0  0  0  0  0  0  0  0  0  0  0  0
   10.5377   -1.1317   48.1965 O   0  0  0  0  0  0  0  0  0  0  0  0
   11.4827   -2.1689   46.5857 N   0  0  0  0  0  0  0  0  0  0  0  0
   12.8581   -1.9072   47.0924 C   0  0  0  0  0  0  0  0  0  0  0  0
    3.5253   -0.3919   42.6139 F   0  0  0  0  0  0  0  0  0  0  0  0
   13.8715   -2.0533   46.2801 C   0  0  0  0  0  0  0  0  0  0  0  0
   13.8238   -1.3382   45.1866 O   0  0  0  0  0  0  0  0  0  0  0  0
   14.9680   -0.9120   44.5545 C   0  0  2  0  0  0  0  0  0  0  0  0
   14.5589   -0.0146   43.4690 C   0  0  0  0  0  0  0  0  0  0  0  0
   15.7147    0.4648   42.6294 C   0  0  0  0  0  0  0  0  0  0  0  0
   16.6460   -0.4650   42.3742 C   0  0  1  0  0  0  0  0  0  0  0  0
   17.1206   -1.2611   43.4764 C   0  0  2  0  0  0  0  0  0  0  0  0
   15.9725   -1.8635   44.1694 C   0  0  1  0  0  0  0  0  0  0  0  0
   16.3264   -2.5518   45.3388 O   0  0  0  0  0  0  0  0  0  0  0  0
   17.8491   -0.3716   44.3109 O   0  0  0  0  0  0  0  0  0  0  0  0
   17.0628   -0.7063   41.0248 C   0  0  0  0  0  0  0  0  0  0  0  0
    2.2397   -4.4672   44.5594 O   0  0  0  0  0  0  0  0  0  0  0  0
  5  7  1  0
 10 13  1  0
 16 19  1  0
 19 20  1  0
 19 21  2  3
 21 22  1  0
 12 23  1  0
 22 24  1  0
 24 25  1  0
 26 25  1  6
 26 27  1  0
 27 28  1  0
 28 29  1  0
 29 30  1  0
 26 31  1  0
 30 31  1  0
 31 32  1  1
 30 33  1  1
 29 34  1  6
  8 35  1  0
  1  2  2  0
  2  4  1  0
  4  5  2  0
  5  6  1  0
  6  3  2  0
  3  1  1  0
 13 14  2  0
 14 15  1  0
 15 16  2  0
 16 17  1  0
 17 18  2  0
 18 13  1  0
  7  8  2  0
  8  9  1  0
  9 10  2  0
 10 11  1  0
 11 12  2  0
 12  7  1  0
M  END
$$$$
O14757_PocketFlow_idx-in-all-generaetd-939
     RDKit          3D

 20 21  0  0  0  0  0  0  0  0999 V2000
   -0.6395   -2.0713   41.4947 C   0  0  0  0  0  0  0  0  0  0  0  0
    0.1859   -1.1027   41.5970 C   0  0  0  0  0  0  0  0  0  0  0  0
    1.5836   -1.3270   41.4669 C   0  0  0  0  0  0  0  0  0  0  0  0
   -0.2462   -3.3905   41.2409 C   0  0  0  0  0  0  0  0  0  0  0  0
    2.5675   -0.3472   41.7943 C   0  0  0  0  0  0  0  0  0  0  0  0
    3.8546   -0.6776   42.2362 C   0  0  1  0  0  0  0  0  0  0  0  0
    4.7501    0.3011   42.7357 C   0  0  0  0  0  0  0  0  0  0  0  0
   -1.0883   -4.3796   41.4077 N   0  0  0  0  0  0  0  0  0  0  0  0
    5.8359   -0.2660   43.4488 N   0  0  0  0  0  0  0  0  0  0  0  0
    5.7080   -1.3336   44.3100 C   0  0  1  0  0  0  0  0  0  0  0  0
    4.7671   -2.3221   43.9963 C   0  0  2  0  0  0  0  0  0  0  0  0
    3.6895   -1.9068   43.1332 C   0  0  0  0  0  0  0  0  0  0  0  0
    4.6886   -3.5810   44.6678 C   0  0  0  0  0  0  0  0  0  0  0  0
    3.8308   -4.5795   44.3185 C   0  0  0  0  0  0  0  0  0  0  0  0
    6.8016   -1.6285   45.0495 N   0  0  0  0  0  0  0  0  0  0  0  0
    5.7517   -3.8042   45.6525 C   0  0  0  0  0  0  0  0  0  0  0  0
    6.7814   -2.7795   45.8150 C   0  0  1  0  0  0  0  0  0  0  0  0
    7.9300   -3.0118   46.7478 C   0  0  0  0  0  0  0  0  0  0  0  0
    7.8993   -3.9274   47.7354 C   0  0  0  0  0  0  0  0  0  0  0  0
    8.9706   -4.0793   48.5864 C   0  0  0  0  0  0  0  0  0  0  0  0
  1  2  1  0
  2  3  2  3
  1  4  1  0
  3  5  1  0
  6  5  1  1
  6  7  1  0
  4  8  1  0
  7  9  1  0
 10  9  1  6
 10 11  1  0
  6 12  1  0
 11 12  1  1
 11 13  1  0
 13 14  2  0
 10 15  1  0
 13 16  1  0
 15 17  1  0
 17 16  1  6
 17 18  1  0
 18 19  2  3
 19 20  1  0
M  END
$$$$
O14757_PocketFlow_idx-in-all-generaetd-940
     RDKit          3D

 12 12  0  0  0  0  0  0  0  0999 V2000
   -0.6395   -2.0713   41.4947 C   0  0  0  0  0  0  0  0  0  0  0  0
    0.1859   -1.1027   41.5970 C   0  0  0  0  0  0  0  0  0  0  0  0
   -0.2410   -3.3795   41.5297 C   0  0  0  0  0  0  0  0  0  0  0  0
    1.6125   -1.3641   41.8466 C   0  0  0  0  0  0  0  0  0  0  0  0
    2.5720   -0.3568   42.0335 C   0  0  0  0  0  0  0  0  0  0  0  0
    3.8647   -0.6704   42.4195 C   0  0  0  0  0  0  0  0  0  0  0  0
    4.0924   -1.9486   43.0494 C   0  0  0  0  0  0  0  0  0  0  0  0
    5.3152   -2.3016   43.6910 C   0  0  0  0  0  0  0  0  0  0  0  0
    5.4023   -1.9138   45.0095 C   0  0  0  0  0  0  0  0  0  0  0  0
    6.5080   -2.3805   45.7885 C   0  0  0  0  0  0  0  0  0  0  0  0
    1.0768   -3.7384   41.8209 C   0  0  0  0  0  0  0  0  0  0  0  0
    1.9648   -2.6689   42.0234 C   0  0  0  0  0  0  0  0  0  0  0  0
  4  5  1  0
  5  6  2  3
  6  7  1  0
  7  8  1  0
  8  9  1  0
  9 10  2  0
  1  2  2  0
  2  4  1  0
  4 12  2  0
 12 11  1  0
 11  3  2  0
  3  1  1  0
M  END
$$$$
O14757_PocketFlow_idx-in-all-generaetd-941
     RDKit          3D

 35 39  0  0  0  0  0  0  0  0999 V2000
    0.0138   -2.7927   42.5918 N   0  0  0  0  0  0  0  0  0  0  0  0
   -0.1707   -2.5494   41.4965 C   0  0  0  0  0  0  0  0  0  0  0  0
    1.2890   -2.6566   43.0641 C   0  0  1  0  0  0  0  0  0  0  0  0
    1.8809   -3.4550   44.0580 C   0  0  0  0  0  0  0  0  0  0  0  0
    1.0660   -4.2890   44.8489 C   0  0  0  0  0  0  0  0  0  0  0  0
   -0.1720   -4.2361   44.9442 C   0  0  0  0  0  0  0  0  0  0  0  0
   -0.6182   -4.9784   46.0840 N   0  0  0  0  0  0  0  0  0  0  0  0
    0.9844   -1.8961   40.9807 N   0  0  0  0  0  0  0  0  0  0  0  0
    1.8812   -2.0729   41.9830 C   0  0  1  0  0  0  0  0  0  0  0  0
    1.7454   -5.5020   45.4557 C   0  0  0  0  0  0  0  0  0  0  0  0
    3.1866   -5.6323   45.1485 C   0  0  0  0  0  0  0  0  0  0  0  0
    3.8701   -4.6975   44.4612 C   0  0  0  0  0  0  0  0  0  0  0  0
    3.4241   -3.4108   44.1656 C   0  0  0  0  0  0  0  0  0  0  0  0
    0.8393   -6.0990   46.2844 C   0  0  0  0  0  0  0  0  0  0  0  0
   -1.4167   -2.3636   41.0452 N   0  0  0  0  0  0  0  0  0  0  0  0
    4.0951   -2.2804   43.8474 C   0  0  0  0  0  0  0  0  0  0  0  0
    5.4501   -2.2475   44.2583 C   0  0  0  0  0  0  0  0  0  0  0  0
    6.2250   -1.0317   44.1517 C   0  0  0  0  0  0  0  0  0  0  0  0
    5.6360    0.0061   43.4147 C   0  0  0  0  0  0  0  0  0  0  0  0
    4.2791   -0.0382   42.9854 C   0  0  0  0  0  0  0  0  0  0  0  0
    3.5830   -1.1595   43.2678 C   0  0  0  0  0  0  0  0  0  0  0  0
    2.4752   -1.3249   42.4509 N   0  0  0  0  0  0  0  0  0  0  0  0
    3.8328    0.9877   42.3749 F   0  0  0  0  0  0  0  0  0  0  0  0
    7.4057   -1.0175   44.6019 F   0  0  0  0  0  0  0  0  0  0  0  0
    0.3309   -7.4675   46.0527 C   0  0  0  0  0  0  0  0  0  0  0  0
   -0.7423   -7.7911   46.5098 O   0  0  0  0  0  0  0  0  0  0  0  0
    1.3166   -8.2605   45.9061 O   0  0  0  0  0  0  0  0  0  0  0  0
   -1.1478   -8.5295   47.0626 C   0  0  0  0  0  0  0  0  0  0  0  0
   -2.5526   -8.7687   47.1588 C   0  0  0  0  0  0  0  0  0  0  0  0
   -3.4154   -7.8394   46.5689 C   0  0  0  0  0  0  0  0  0  0  0  0
   -4.7746   -8.1993   46.1922 C   0  0  0  0  0  0  0  0  0  0  0  0
   -5.2625   -9.4101   46.7711 C   0  0  0  0  0  0  0  0  0  0  0  0
   -4.5120  -10.3008   47.5081 C   0  0  0  0  0  0  0  0  0  0  0  0
   -3.1689   -9.9480   47.7425 C   0  0  0  0  0  0  0  0  0  0  0  0
   -2.5172   -8.1244   48.3580 C   0  0  0  0  0  0  0  0  0  0  0  0
  1  2  1  0
  3  1  1  6
  3  4  1  0
  6  7  1  0
  2  8  2  0
  3  9  1  0
  8  9  1  0
  7 14  2  0
 10 14  1  0
  2 15  1  0
 13 16  1  0
  9 22  1  1
 21 22  1  0
 20 23  1  0
 18 24  1  0
 14 25  1  0
 25 26  1  0
 25 27  2  0
 26 28  1  0
 28 29  2  3
 29 30  1  0
 30 31  2  3
 31 32  1  0
 32 33  2  3
 33 34  1  0
 29 35  1  0
  6  5  1  0
  4  5  2  0
  5 10  1  0
 10 11  2  0
 11 12  1  0
 12 13  2  0
 13  4  1  0
 16 17  2  0
 17 18  1  0
 18 19  2  0
 19 20  1  0
 20 21  2  0
 21 16  1  0
M  END
$$$$
O14757_PocketFlow_idx-in-all-generaetd-942
     RDKit          3D

 20 19  0  0  0  0  0  0  0  0999 V2000
    0.2881   -2.9111   42.4378 C   0  0  0  0  0  0  0  0  0  0  0  0
    1.1784   -3.4293   42.9321 C   0  0  0  0  0  0  0  0  0  0  0  0
    1.6466   -3.2662   44.1990 C   0  0  0  0  0  0  0  0  0  0  0  0
   -0.0872   -3.1215   41.0206 C   0  0  0  0  0  0  0  0  0  0  0  0
    2.3488   -4.3327   44.8932 C   0  0  0  0  0  0  0  0  0  0  0  0
    3.1713   -4.8717   45.0990 C   0  0  0  0  0  0  0  0  0  0  0  0
    4.3166   -5.6782   45.4603 C   0  0  0  0  0  0  0  0  0  0  0  0
    3.6933   -6.6065   46.5185 C   0  0  0  0  0  0  0  0  0  0  0  0
    3.6806   -7.9714   45.8887 C   0  0  0  0  0  0  0  0  0  0  0  0
    2.4920   -8.6138   46.4436 C   0  0  0  0  0  0  0  0  0  0  0  0
    1.2370   -8.1731   46.0135 C   0  0  0  0  0  0  0  0  0  0  0  0
    0.3590   -7.7847   46.9620 C   0  0  0  0  0  0  0  0  0  0  0  0
   -1.1577   -7.6632   46.5836 C   0  0  1  0  0  0  0  0  0  0  0  0
   -2.0395   -8.5259   46.9434 C   0  0  0  0  0  0  0  0  0  0  0  0
   -2.3350   -9.5002   46.1392 C   0  0  0  0  0  0  0  0  0  0  0  0
   -1.4819   -6.0688   46.8874 C   0  0  0  0  0  0  0  0  0  0  0  0
   -2.8000   -9.0684   44.9617 C   0  0  0  0  0  0  0  0  0  0  0  0
   -4.1701   -9.2356   44.6079 C   0  0  0  0  0  0  0  0  0  0  0  0
   -4.6674   -8.5943   43.3454 C   0  0  0  0  0  0  0  0  0  0  0  0
   -5.9884   -8.7402   42.9249 C   0  0  0  0  0  0  0  0  0  0  0  0
  1  2  1  0
  2  3  2  3
  1  4  1  0
  3  5  1  0
  5  6  3  0
  6  7  1  0
  7  8  1  0
  8  9  1  0
  9 10  1  0
 10 11  1  0
 11 12  1  0
 12 13  1  0
 13 14  1  0
 14 15  1  0
 13 16  1  1
 15 17  1  0
 17 18  2  3
 18 19  1  0
 19 20  2  0
M  END
$$$$
O14757_PocketFlow_idx-in-all-generaetd-943
     RDKit          3D

 15 17  0  0  0  0  0  0  0  0999 V2000
    0.2881   -2.9111   42.4378 C   0  0  0  0  0  0  0  0  0  0  0  0
    1.3023   -2.0648   42.1981 C   0  0  0  0  0  0  0  0  0  0  0  0
    0.9971   -0.8647   41.5341 C   0  0  0  0  0  0  0  0  0  0  0  0
    0.6174   -4.1995   43.0267 C   0  0  0  0  0  0  0  0  0  0  0  0
    1.7533   -4.2645   43.8391 C   0  0  2  0  0  0  0  0  0  0  0  0
    2.7390   -3.2837   43.7596 C   0  0  0  0  0  0  0  0  0  0  0  0
    2.5276   -2.1471   42.9633 C   0  0  0  0  0  0  0  0  0  0  0  0
    3.9798   -3.4332   44.5493 C   0  0  0  0  0  0  0  0  0  0  0  0
    4.1628   -4.5404   45.3520 C   0  0  0  0  0  0  0  0  0  0  0  0
    4.9055   -2.3628   44.4843 C   0  0  0  0  0  0  0  0  0  0  0  0
    4.8466   -1.1989   43.8503 C   0  0  0  0  0  0  0  0  0  0  0  0
    3.5535   -1.1390   42.9342 C   0  0  0  0  0  0  0  0  0  0  0  0
    3.6202   -5.6494   45.4282 C   0  0  0  0  0  0  0  0  0  0  0  0
    2.6226   -5.9171   45.1420 C   0  0  0  0  0  0  0  0  0  0  0  0
    1.7407   -5.3175   44.2476 C   0  0  0  0  0  0  0  0  0  0  0  0
  1  2  1  0
  2  3  2  0
  1  4  1  0
  5  4  1  6
  5  6  1  0
  2  7  1  0
  8  9  1  0
  9 13  2  0
 13 14  1  0
  5 15  1  0
 14 15  1  0
  6  7  2  0
  7 12  1  0
 12 11  2  0
 11 10  1  0
 10  8  2  0
  8  6  1  0
M  END
$$$$
O14757_PocketFlow_idx-in-all-generaetd-944
     RDKit          3D

 22 25  0  0  0  0  0  0  0  0999 V2000
   -0.6395   -2.0713   41.4947 C   0  0  0  0  0  0  0  0  0  0  0  0
   -0.2671   -3.2464   41.6546 C   0  0  0  0  0  0  0  0  0  0  0  0
    0.2407   -0.9706   41.5952 C   0  0  0  0  0  0  0  0  0  0  0  0
    1.6195   -1.2958   41.8767 C   0  0  0  0  0  0  0  0  0  0  0  0
    2.6583   -0.3517   42.0703 C   0  0  0  0  0  0  0  0  0  0  0  0
    3.9275   -0.7702   42.5387 C   0  0  0  0  0  0  0  0  0  0  0  0
    3.9444   -2.1081   43.0865 C   0  0  0  0  0  0  0  0  0  0  0  0
    2.8133   -2.9027   43.1780 C   0  0  0  0  0  0  0  0  0  0  0  0
    1.6416   -2.4473   42.6184 C   0  0  0  0  0  0  0  0  0  0  0  0
    0.7418   -3.4718   42.3818 N   0  0  0  0  0  0  0  0  0  0  0  0
    5.0180   -0.0280   42.5763 N   0  0  0  0  0  0  0  0  0  0  0  0
   -2.0576   -1.6880   41.0896 C   0  0  0  0  0  0  0  0  0  0  0  0
   -2.6592   -0.5261   41.3170 N   0  0  0  0  0  0  0  0  0  0  0  0
   -2.9116   -2.6524   40.6909 N   0  0  0  0  0  0  0  0  0  0  0  0
   -3.9024   -0.5515   40.7880 C   0  0  0  0  0  0  0  0  0  0  0  0
   -4.0045   -1.8518   40.3719 N   0  0  0  0  0  0  0  0  0  0  0  0
    2.9020   -4.0638   44.0842 C   0  0  0  0  0  0  0  0  0  0  0  0
    4.0847   -4.5988   44.5112 C   0  0  0  0  0  0  0  0  0  0  0  0
    4.0340   -5.7414   45.3692 C   0  0  0  0  0  0  0  0  0  0  0  0
    2.7511   -6.3678   45.6032 C   0  0  0  0  0  0  0  0  0  0  0  0
    1.6126   -5.7817   45.1769 C   0  0  0  0  0  0  0  0  0  0  0  0
    1.6524   -4.5771   44.4598 C   0  0  0  0  0  0  0  0  0  0  0  0
  6 11  1  0
  1 12  1  0
 12 13  2  0
 12 14  1  0
 13 15  1  0
 14 16  1  0
 15 16  1  0
  8 17  1  0
  1  2  2  0
  2 10  1  0
 10  9  2  0
  4  3  2  0
  3  1  1  0
 17 18  2  0
 18 19  1  0
 19 20  2  0
 20 21  1  0
 21 22  2  0
 22 17  1  0
  4  5  1  0
  5  6  2  0
  6  7  1  0
  7  8  2  0
  8  9  1  0
  9  4  1  0
M  END
$$$$
O14757_PocketFlow_idx-in-all-generaetd-945
     RDKit          3D

 26 26  0  0  0  0  0  0  0  0999 V2000
   -0.6395   -2.0713   41.4947 C   0  0  0  0  0  0  0  0  0  0  0  0
    0.6719   -2.2449   41.7518 C   0  0  0  0  0  0  0  0  0  0  0  0
    1.5951   -1.1948   41.6106 C   0  0  0  0  0  0  0  0  0  0  0  0
    2.0398   -0.5922   42.2755 C   0  0  0  0  0  0  0  0  0  0  0  0
    3.3009    0.3885   42.2061 C   0  0  0  0  0  0  0  0  0  0  0  0
   -1.4256   -3.1436   41.2375 N   0  0  0  0  0  0  0  0  0  0  0  0
   -1.0873   -0.8481   41.2074 O   0  0  0  0  0  0  0  0  0  0  0  0
    4.5120   -0.1852   42.1273 C   0  0  0  0  0  0  0  0  0  0  0  0
    4.9316   -0.9225   43.4091 C   0  0  0  0  0  0  0  0  0  0  0  0
    4.4302   -2.1995   43.5941 C   0  0  0  0  0  0  0  0  0  0  0  0
    4.9648   -2.8887   44.7600 C   0  0  0  0  0  0  0  0  0  0  0  0
    4.3909   -4.1304   45.2119 C   0  0  0  0  0  0  0  0  0  0  0  0
    4.3277   -4.5011   46.5423 C   0  0  0  0  0  0  0  0  0  0  0  0
    5.4117   -3.8377   47.3730 C   0  0  0  0  0  0  0  0  0  0  0  0
    6.1274   -2.7721   46.8331 C   0  0  0  0  0  0  0  0  0  0  0  0
    5.8140   -2.1963   45.6389 C   0  0  0  0  0  0  0  0  0  0  0  0
    3.4658   -4.8316   44.3300 C   0  0  0  0  0  0  0  0  0  0  0  0
    2.1008   -4.6847   44.5704 C   0  0  0  0  0  0  0  0  0  0  0  0
    1.2019   -5.7490   44.5136 C   0  0  0  0  0  0  0  0  0  0  0  0
   -0.1660   -5.5145   44.8292 C   0  0  0  0  0  0  0  0  0  0  0  0
   -0.8710   -6.6078   44.9355 N   0  0  0  0  0  0  0  0  0  0  0  0
    5.6808   -4.3585   48.5995 O   0  0  0  0  0  0  0  0  0  0  0  0
    6.1959   -5.5860   48.7887 C   0  0  0  0  0  0  0  0  0  0  0  0
   -1.1444   -7.3949   44.2201 C   0  0  0  0  0  0  0  0  0  0  0  0
   -1.8660   -8.4757   44.7058 N   0  0  0  0  0  0  0  0  0  0  0  0
   -2.0416   -8.2639   46.0624 C   0  0  0  0  0  0  0  0  0  0  0  0
  1  2  1  0
  2  3  2  3
  3  4  1  0
  4  5  1  0
  1  6  1  0
  1  7  2  0
  5  8  1  0
  8  9  1  0
  9 10  2  3
 10 11  1  0
 12 17  1  0
 17 18  1  0
 18 19  2  3
 19 20  1  0
 20 21  1  0
 14 22  1  0
 22 23  1  0
 21 24  2  3
 24 25  1  0
 25 26  1  0
 11 12  2  0
 12 13  1  0
 13 14  2  0
 14 15  1  0
 15 16  2  0
 16 11  1  0
M  END
$$$$
O14757_PocketFlow_idx-in-all-generaetd-946
     RDKit          3D

 31 34  0  0  0  0  0  0  0  0999 V2000
    0.0138   -2.7927   42.5918 N   0  0  0  0  0  0  0  0  0  0  0  0
   -0.1707   -2.5494   41.4965 C   0  0  0  0  0  0  0  0  0  0  0  0
    1.2399   -3.4297   42.9825 C   0  0  0  0  0  0  0  0  0  0  0  0
    1.2714   -4.3030   44.0659 C   0  0  0  0  0  0  0  0  0  0  0  0
    0.2090   -4.8569   44.6849 C   0  0  0  0  0  0  0  0  0  0  0  0
    0.3955   -5.8126   45.7666 C   0  0  1  0  0  0  0  0  0  0  0  0
   -0.7755   -6.2956   46.3506 C   0  0  0  0  0  0  0  0  0  0  0  0
    2.6545   -4.6447   44.5557 C   0  0  0  0  0  0  0  0  0  0  0  0
    3.7691   -3.8104   44.3383 C   0  0  0  0  0  0  0  0  0  0  0  0
    3.5773   -2.7442   43.3705 C   0  0  0  0  0  0  0  0  0  0  0  0
    4.6396   -1.8262   43.1308 C   0  0  0  0  0  0  0  0  0  0  0  0
    2.2808   -2.5590   42.7874 C   0  0  0  0  0  0  0  0  0  0  0  0
    4.7022   -0.6091   43.9293 C   0  0  0  0  0  0  0  0  0  0  0  0
   -0.6784   -7.6171   47.0494 C   0  0  2  0  0  0  0  0  0  0  0  0
    0.4429   -8.3162   46.6536 C   0  0  0  0  0  0  0  0  0  0  0  0
    0.7944   -9.4146   47.5097 C   0  0  0  0  0  0  0  0  0  0  0  0
    2.0492   -9.9695   47.1678 C   0  0  0  0  0  0  0  0  0  0  0  0
    2.9036   -9.3548   46.2112 C   0  0  0  0  0  0  0  0  0  0  0  0
    2.5262   -8.2572   45.5260 C   0  0  0  0  0  0  0  0  0  0  0  0
    1.3149   -7.6519   45.8428 C   0  0  0  0  0  0  0  0  0  0  0  0
    1.1103   -6.3916   45.4369 N   0  0  0  0  0  0  0  0  0  0  0  0
    2.2835   -6.0519   44.5404 C   0  0  0  0  0  0  0  0  0  0  0  0
   -1.5188   -2.5936   41.0496 C   0  0  0  0  0  0  0  0  0  0  0  0
    0.6788   -2.1977   40.6852 O   0  0  0  0  0  0  0  0  0  0  0  0
    5.3933    0.3923   43.4186 O   0  0  0  0  0  0  0  0  0  0  0  0
    4.7700   -0.7005   45.2504 O   0  0  0  0  0  0  0  0  0  0  0  0
   -2.0294   -8.2704   47.8213 Cl  0  0  0  0  0  0  0  0  0  0  0  0
   -2.2541   -1.3175   41.1064 C   0  0  0  0  0  0  0  0  0  0  0  0
   -3.5376   -1.1813   40.6066 C   0  0  0  0  0  0  0  0  0  0  0  0
   -3.9719   -2.1112   39.9049 O   0  0  0  0  0  0  0  0  0  0  0  0
   -4.2637   -0.1280   40.8312 O   0  0  0  0  0  0  0  0  0  0  0  0
  1  2  1  0
  1  3  1  0
  6  5  1  6
  6  7  1  0
 10 11  1  0
 11 13  1  0
  7 14  1  0
 14 15  1  0
  6 21  1  0
 20 21  1  0
  8 22  1  0
 21 22  1  0
  2 23  1  0
  2 24  2  0
 13 25  1  0
 13 26  2  0
 14 27  1  6
 23 28  2  3
 28 29  1  0
 29 30  2  0
 29 31  1  0
  5  4  1  0
 15 16  2  0
 16 17  1  0
 17 18  2  0
 18 19  1  0
 19 20  2  0
 20 15  1  0
  3  4  2  0
  4  8  1  0
  8  9  2  0
  9 10  1  0
 10 12  2  0
 12  3  1  0
M  END
$$$$
O14757_PocketFlow_idx-in-all-generaetd-947
     RDKit          3D

 10 10  0  0  0  0  0  0  0  0999 V2000
   -0.8794   -1.9236   41.9357 O   0  0  0  0  0  0  0  0  0  0  0  0
    0.3182   -2.2442   41.7073 C   0  0  0  0  0  0  0  0  0  0  0  0
    1.3036   -2.2273   42.6607 C   0  0  0  0  0  0  0  0  0  0  0  0
    2.6349   -1.9130   42.3734 C   0  0  0  0  0  0  0  0  0  0  0  0
    3.5862   -1.7959   43.4053 C   0  0  0  0  0  0  0  0  0  0  0  0
    4.7368   -0.9790   43.3450 C   0  0  0  0  0  0  0  0  0  0  0  0
    5.7228   -1.1135   44.3127 C   0  0  0  0  0  0  0  0  0  0  0  0
    5.7206   -2.1580   45.3165 C   0  0  0  0  0  0  0  0  0  0  0  0
    4.5997   -3.0339   45.2475 C   0  0  0  0  0  0  0  0  0  0  0  0
    3.6065   -2.9087   44.3131 C   0  0  0  0  0  0  0  0  0  0  0  0
  1  2  1  0
  2  3  1  0
  3  4  1  0
  4  5  1  0
  5  6  2  0
  6  7  1  0
  7  8  2  0
  8  9  1  0
  9 10  2  0
 10  5  1  0
M  END
$$$$
O14757_PocketFlow_idx-in-all-generaetd-948
     RDKit          3D

  6  6  0  0  0  0  0  0  0  0999 V2000
    0.2881   -2.9111   42.4378 C   0  0  0  0  0  0  0  0  0  0  0  0
    1.1784   -3.4293   42.9321 C   0  0  0  0  0  0  0  0  0  0  0  0
    2.4696   -2.7231   42.8997 C   0  0  0  0  0  0  0  0  0  0  0  0
    2.5380   -1.5398   42.2487 C   0  0  0  0  0  0  0  0  0  0  0  0
    0.2254   -1.7181   41.6878 C   0  0  0  0  0  0  0  0  0  0  0  0
    1.4043   -1.0577   41.5785 C   0  0  0  0  0  0  0  0  0  0  0  0
  1  2  2  0
  2  3  1  0
  3  4  2  0
  4  6  1  0
  6  5  2  0
  5  1  1  0
M  END
$$$$
O14757_PocketFlow_idx-in-all-generaetd-949
     RDKit          3D

  5  4  0  0  0  0  0  0  0  0999 V2000
   -0.8413   -1.9048   41.7918 F   0  0  0  0  0  0  0  0  0  0  0  0
   -0.4300   -2.8526   41.5038 C   0  0  0  0  0  0  0  0  0  0  0  0
    0.4222   -3.4409   42.3463 F   0  0  0  0  0  0  0  0  0  0  0  0
    0.2851   -2.7180   40.2786 F   0  0  0  0  0  0  0  0  0  0  0  0
   -1.3475   -3.7759   41.1347 F   0  0  0  0  0  0  0  0  0  0  0  0
  1  2  1  0
  2  3  1  0
  2  4  1  0
  2  5  1  0
M  END
$$$$
O14757_PocketFlow_idx-in-all-generaetd-950
     RDKit          3D

 35 39  0  0  0  0  0  0  0  0999 V2000
    0.0138   -2.7927   42.5918 N   0  0  0  0  0  0  0  0  0  0  0  0
    1.1722   -3.1858   42.8673 C   0  0  0  0  0  0  0  0  0  0  0  0
    1.4725   -4.0593   43.8477 C   0  0  0  0  0  0  0  0  0  0  0  0
    2.6678   -4.0777   44.5978 C   0  0  0  0  0  0  0  0  0  0  0  0
    3.6720   -3.1406   44.1243 C   0  0  0  0  0  0  0  0  0  0  0  0
    3.3843   -2.2102   43.1333 C   0  0  0  0  0  0  0  0  0  0  0  0
    2.1382   -2.2048   42.6499 C   0  0  0  0  0  0  0  0  0  0  0  0
   -0.2297   -2.3633   41.3662 C   0  0  0  0  0  0  0  0  0  0  0  0
    0.6451   -1.4588   40.9041 N   0  0  0  0  0  0  0  0  0  0  0  0
    1.9296   -1.4114   41.4157 C   0  0  0  0  0  0  0  0  0  0  0  0
    0.4853   -5.0932   44.3218 C   0  0  0  0  0  0  0  0  0  0  0  0
    0.9046   -6.4469   44.2060 C   0  0  0  0  0  0  0  0  0  0  0  0
   -1.4151   -2.4014   40.9251 O   0  0  0  0  0  0  0  0  0  0  0  0
    5.0210   -3.1800   44.8061 C   0  0  0  0  0  0  0  0  0  0  0  0
    5.8891   -2.0767   44.7137 C   0  0  0  0  0  0  0  0  0  0  0  0
    7.1400   -2.1366   45.4274 C   0  0  0  0  0  0  0  0  0  0  0  0
    7.4860   -3.2632   46.1778 C   0  0  0  0  0  0  0  0  0  0  0  0
    6.7369   -3.7534   46.7790 C   0  0  0  0  0  0  0  0  0  0  0  0
    5.2742   -4.0680   45.9750 C   0  0  0  0  0  0  0  0  0  0  0  0
    0.7824   -7.1344   45.5275 C   0  0  0  0  0  0  0  0  0  0  0  0
   -0.5574   -7.4978   45.9025 C   0  0  0  0  0  0  0  0  0  0  0  0
   -1.5899   -6.9836   45.4426 C   0  0  0  0  0  0  0  0  0  0  0  0
   -2.8606   -7.7908   45.5402 C   0  0  0  0  0  0  0  0  0  0  0  0
   -3.7378   -7.7702   44.4701 C   0  0  0  0  0  0  0  0  0  0  0  0
   -4.9640   -8.5395   44.5752 C   0  0  0  0  0  0  0  0  0  0  0  0
   -5.2148   -9.2176   45.7682 C   0  0  0  0  0  0  0  0  0  0  0  0
   -4.3077   -9.2265   46.8024 C   0  0  0  0  0  0  0  0  0  0  0  0
   -3.1222   -8.4301   46.7276 C   0  0  0  0  0  0  0  0  0  0  0  0
    6.8667   -4.7732   47.8918 C   0  0  0  0  0  0  0  0  0  0  0  0
    7.4361   -4.1106   48.8880 C   0  0  0  0  0  0  0  0  0  0  0  0
    8.6634   -4.6398   49.3717 C   0  0  0  0  0  0  0  0  0  0  0  0
    9.7498   -3.9805   49.1127 C   0  0  0  0  0  0  0  0  0  0  0  0
   -0.5192   -8.5213   47.0108 C   0  0  0  0  0  0  0  0  0  0  0  0
   -1.8425   -9.1582   47.2724 C   0  0  0  0  0  0  0  0  0  0  0  0
   10.4184   -4.0282   48.0896 C   0  0  0  0  0  0  0  0  0  0  0  0
  1  2  1  0
  1  8  1  0
  8  9  1  0
  7 10  1  0
  9 10  1  0
  3 11  1  0
 11 12  1  0
  8 13  2  0
  5 14  1  0
 12 20  1  0
 20 21  1  0
 18 29  1  0
 29 30  1  0
 30 31  1  0
 31 32  1  0
 32 35  2  0
 23 24  2  0
 24 25  1  0
 25 26  2  0
 26 27  1  0
 27 28  2  0
  2  3  2  0
  3  4  1  0
  4  5  2  0
  5  6  1  0
  6  7  2  0
  7  2  1  0
 14 15  2  0
 15 16  1  0
 16 17  2  0
 17 18  1  0
 18 19  2  0
 19 14  1  0
 21 22  2  0
 22 23  1  0
 23 28  1  0
 28 34  1  0
 34 33  2  0
 33 21  1  0
M  END
$$$$
O14757_PocketFlow_idx-in-all-generaetd-951
     RDKit          3D

 24 26  0  0  0  0  0  0  0  0999 V2000
   -0.6395   -2.0713   41.4947 C   0  0  1  0  0  0  0  0  0  0  0  0
    0.6719   -2.2449   41.7518 C   0  0  2  0  0  0  0  0  0  0  0  0
    1.5951   -1.1948   41.6106 C   0  0  0  0  0  0  0  0  0  0  0  0
    2.8936   -1.2860   42.2441 C   0  0  0  0  0  0  0  0  0  0  0  0
    3.7940   -0.2219   42.2897 C   0  0  0  0  0  0  0  0  0  0  0  0
   -1.5413   -3.1234   41.4338 C   0  0  0  0  0  0  0  0  0  0  0  0
   -0.9066   -4.0310   40.8955 N   0  0  0  0  0  0  0  0  0  0  0  0
    0.4687   -3.6520   41.3607 C   0  0  0  0  0  0  0  0  0  0  0  0
    4.9700   -0.4094   43.0678 C   0  0  0  0  0  0  0  0  0  0  0  0
    5.2375   -1.5367   43.8077 C   0  0  0  0  0  0  0  0  0  0  0  0
    4.2761   -2.5937   43.7111 C   0  0  0  0  0  0  0  0  0  0  0  0
    3.1238   -2.4498   43.0132 C   0  0  0  0  0  0  0  0  0  0  0  0
    4.4992   -3.8523   44.4738 C   0  0  0  0  0  0  0  0  0  0  0  0
    3.8221   -5.0033   44.2153 C   0  0  0  0  0  0  0  0  0  0  0  0
    2.7965   -5.3462   45.2275 C   0  0  0  0  0  0  0  0  0  0  0  0
    2.2873   -6.6365   45.1960 C   0  0  0  0  0  0  0  0  0  0  0  0
    1.0804   -6.8846   44.6045 C   0  0  0  0  0  0  0  0  0  0  0  0
    0.4729   -5.8376   43.9247 C   0  0  0  0  0  0  0  0  0  0  0  0
    1.5418   -4.4325   44.9696 C   0  0  0  0  0  0  0  0  0  0  0  0
    0.6259   -4.5846   44.0849 C   0  0  0  0  0  0  0  0  0  0  0  0
    6.4505   -1.6991   44.6003 C   0  0  0  0  0  0  0  0  0  0  0  0
    6.4124   -1.1265   45.5930 F   0  0  0  0  0  0  0  0  0  0  0  0
    7.1069   -2.7140   44.4102 F   0  0  0  0  0  0  0  0  0  0  0  0
   -1.1808   -0.7835   41.7484 F   0  0  0  0  0  0  0  0  0  0  0  0
  1  2  1  0
  2  3  1  6
  3  4  1  0
  1  6  1  0
  6  7  1  0
  2  8  1  0
  7  8  1  0
 11 13  1  0
 13 14  1  0
 10 21  1  0
 21 22  1  0
 21 23  1  0
  1 24  1  1
 14 15  1  0
 15 16  2  0
 16 17  1  0
 17 18  2  0
 18 20  1  0
 20 19  2  0
 19 15  1  0
  4  5  2  0
  5  9  1  0
  9 10  2  0
 10 11  1  0
 11 12  2  0
 12  4  1  0
M  END
$$$$
O14757_PocketFlow_idx-in-all-generaetd-952
     RDKit          3D

 26 29  0  0  0  0  0  0  0  0999 V2000
   -0.6395   -2.0713   41.4947 C   0  0  0  0  0  0  0  0  0  0  0  0
   -0.2671   -3.2464   41.6546 C   0  0  0  0  0  0  0  0  0  0  0  0
   -2.0053   -1.6706   41.3987 C   0  0  0  0  0  0  0  0  0  0  0  0
   -2.3187   -0.3966   41.5492 O   0  0  0  0  0  0  0  0  0  0  0  0
    0.9233   -3.6336   42.2682 C   0  0  0  0  0  0  0  0  0  0  0  0
    1.8793   -2.6225   42.4568 C   0  0  0  0  0  0  0  0  0  0  0  0
    3.0783   -2.8553   43.1549 C   0  0  0  0  0  0  0  0  0  0  0  0
    3.9751   -1.7924   43.3896 C   0  0  0  0  0  0  0  0  0  0  0  0
    5.1491   -1.8689   44.1754 C   0  0  0  0  0  0  0  0  0  0  0  0
    5.4038   -2.9949   44.9450 C   0  0  0  0  0  0  0  0  0  0  0  0
    4.4853   -4.0565   44.7788 C   0  0  0  0  0  0  0  0  0  0  0  0
    3.3301   -3.9796   44.0055 C   0  0  0  0  0  0  0  0  0  0  0  0
    1.5944   -1.3125   41.9579 C   0  0  0  0  0  0  0  0  0  0  0  0
    0.2800   -0.9930   41.5628 C   0  0  0  0  0  0  0  0  0  0  0  0
    6.6163   -3.0840   45.7422 C   0  0  0  0  0  0  0  0  0  0  0  0
    6.8622   -4.0733   46.6804 C   0  0  0  0  0  0  0  0  0  0  0  0
    7.1284   -3.6547   47.8975 C   0  0  0  0  0  0  0  0  0  0  0  0
    7.5945   -4.4532   48.8848 C   0  0  0  0  0  0  0  0  0  0  0  0
    7.7607   -5.5904   48.7630 C   0  0  0  0  0  0  0  0  0  0  0  0
    8.9431   -6.1976   48.7316 C   0  0  0  0  0  0  0  0  0  0  0  0
   10.0336   -5.3257   48.7403 C   0  0  0  0  0  0  0  0  0  0  0  0
   10.0274   -4.2053   49.4944 C   0  0  0  0  0  0  0  0  0  0  0  0
    8.8515   -3.8151   50.0023 C   0  0  0  0  0  0  0  0  0  0  0  0
   -2.9179   -2.5049   41.0534 O   0  0  0  0  0  0  0  0  0  0  0  0
    3.9962   -0.5183   42.7195 N   0  0  0  0  0  0  0  0  0  0  0  0
    2.6564   -0.2909   42.0894 C   0  0  0  0  0  0  0  0  0  0  0  0
  1  3  1  0
  3  4  2  0
 10 15  1  0
 15 16  1  0
 16 17  2  3
 17 18  1  0
  3 24  1  0
 18 19  2  0
 19 20  1  0
 20 21  2  0
 21 22  1  0
 22 23  2  0
 23 18  1  0
  6  7  1  0
  8 25  1  0
 25 26  2  0
 26 13  1  0
  7  8  2  0
  8  9  1  0
  9 10  2  0
 10 11  1  0
 11 12  2  0
 12  7  1  0
  1  2  2  0
  2  5  1  0
  5  6  2  0
  6 13  1  0
 13 14  2  0
 14  1  1  0
M  END
$$$$
O14757_PocketFlow_idx-in-all-generaetd-953
     RDKit          3D

 32 35  0  0  0  0  0  0  0  0999 V2000
   -0.6395   -2.0713   41.4947 C   0  0  0  0  0  0  0  0  0  0  0  0
   -0.2671   -3.2464   41.6546 C   0  0  0  0  0  0  0  0  0  0  0  0
    0.2407   -0.9706   41.5952 C   0  0  0  0  0  0  0  0  0  0  0  0
    1.5531   -1.3393   41.8399 C   0  0  0  0  0  0  0  0  0  0  0  0
    1.9123   -2.6863   42.1918 C   0  0  0  0  0  0  0  0  0  0  0  0
    0.9325   -3.6408   42.1137 C   0  0  0  0  0  0  0  0  0  0  0  0
    2.6100   -0.3048   42.0902 C   0  0  0  0  0  0  0  0  0  0  0  0
    3.8845   -0.6239   42.5736 C   0  0  0  0  0  0  0  0  0  0  0  0
    4.1933   -1.8493   43.1559 C   0  0  0  0  0  0  0  0  0  0  0  0
    3.1165   -2.8793   42.9773 C   0  0  0  0  0  0  0  0  0  0  0  0
    4.8234    0.2877   42.7063 F   0  0  0  0  0  0  0  0  0  0  0  0
   -1.9448   -1.7258   41.0542 N   0  0  0  0  0  0  0  0  0  0  0  0
    5.3899   -2.2192   43.7949 C   0  0  0  0  0  0  0  0  0  0  0  0
    5.3506   -2.1667   45.2891 C   0  0  0  0  0  0  0  0  0  0  0  0
    6.4445   -2.7237   45.9686 C   0  0  0  0  0  0  0  0  0  0  0  0
    6.4457   -3.9289   46.5743 C   0  0  0  0  0  0  0  0  0  0  0  0
    7.5762   -4.2971   47.3340 C   0  0  0  0  0  0  0  0  0  0  0  0
    8.6902   -3.5279   47.3529 C   0  0  0  0  0  0  0  0  0  0  0  0
    8.7408   -2.3036   46.6430 C   0  0  0  0  0  0  0  0  0  0  0  0
    7.6518   -1.8762   45.9565 C   0  0  0  0  0  0  0  0  0  0  0  0
    9.9917   -1.4845   46.5554 C   0  0  0  0  0  0  0  0  0  0  0  0
   10.8974   -1.8593   45.9198 O   0  0  0  0  0  0  0  0  0  0  0  0
    9.8280   -0.2518   47.1329 O   0  0  0  0  0  0  0  0  0  0  0  0
   -2.8560   -2.5681   40.6038 C   0  0  0  0  0  0  0  0  0  0  0  0
   -2.5804   -0.5214   41.6537 C   0  0  0  0  0  0  0  0  0  0  0  0
   -3.7476   -0.1571   40.8771 C   0  0  2  0  0  0  0  0  0  0  0  0
   -4.0166   -0.7231   39.8315 C   0  0  0  0  0  0  0  0  0  0  0  0
   -3.8361   -2.1262   39.8004 C   0  0  0  0  0  0  0  0  0  0  0  0
    5.2397   -4.6778   46.5724 C   0  0  0  0  0  0  0  0  0  0  0  0
    4.3456   -4.5153   45.8327 O   0  0  0  0  0  0  0  0  0  0  0  0
    5.0368   -5.4720   47.6598 O   0  0  0  0  0  0  0  0  0  0  0  0
   -4.0290    1.2110   41.0923 O   0  0  0  0  0  0  0  0  0  0  0  0
  8 11  1  0
  1 12  1  0
  9 13  1  0
 13 14  1  0
 14 15  1  0
 19 21  1  0
 21 22  2  0
 21 23  1  0
 12 24  1  0
 12 25  1  0
 25 26  1  0
 26 27  1  0
 27 28  1  0
 16 29  1  0
 29 30  2  0
 29 31  1  0
 26 32  1  6
 24 28  1  0
 15 16  2  0
 16 17  1  0
 17 18  2  0
 18 19  1  0
 19 20  2  0
 20 15  1  0
  5 10  1  0
 10  9  2  0
  9  8  1  0
  8  7  2  0
  7  4  1  0
  1  2  2  0
  2  6  1  0
  6  5  2  0
  5  4  1  0
  4  3  2  0
  3  1  1  0
M  END
$$$$
O14757_PocketFlow_idx-in-all-generaetd-954
     RDKit          3D

 12 12  0  0  0  0  0  0  0  0999 V2000
   -0.6395   -2.0713   41.4947 C   0  0  0  0  0  0  0  0  0  0  0  0
   -0.2671   -3.2464   41.6546 C   0  0  0  0  0  0  0  0  0  0  0  0
    0.2277   -0.9875   41.6495 C   0  0  0  0  0  0  0  0  0  0  0  0
    1.6284   -1.2752   41.8841 C   0  0  0  0  0  0  0  0  0  0  0  0
    1.8971   -2.6873   42.1685 C   0  0  0  0  0  0  0  0  0  0  0  0
    0.9380   -3.6379   42.0922 C   0  0  0  0  0  0  0  0  0  0  0  0
    2.5765   -0.2838   42.1328 C   0  0  0  0  0  0  0  0  0  0  0  0
    3.8924   -0.5890   42.5973 C   0  0  0  0  0  0  0  0  0  0  0  0
    4.1685   -1.7287   43.3667 C   0  0  0  0  0  0  0  0  0  0  0  0
    3.2996   -2.7731   43.5683 C   0  0  0  0  0  0  0  0  0  0  0  0
    2.8252   -3.0854   41.7496 F   0  0  0  0  0  0  0  0  0  0  0  0
    3.0264   -3.6226   44.5321 C   0  0  0  0  0  0  0  0  0  0  0  0
  4  7  1  0
  7  8  1  0
  8  9  2  3
  9 10  1  0
  5 11  1  0
 10 12  1  0
  1  2  2  0
  2  6  1  0
  6  5  2  0
  5  4  1  0
  4  3  2  0
  3  1  1  0
M  END
$$$$
O14757_PocketFlow_idx-in-all-generaetd-955
     RDKit          3D

 12 12  0  0  0  0  0  0  0  0999 V2000
   -0.6395   -2.0713   41.4947 C   0  0  0  0  0  0  0  0  0  0  0  0
   -0.2671   -3.2464   41.6546 C   0  0  0  0  0  0  0  0  0  0  0  0
    0.2277   -0.9875   41.6495 C   0  0  0  0  0  0  0  0  0  0  0  0
    1.6284   -1.2752   41.8841 C   0  0  0  0  0  0  0  0  0  0  0  0
    1.8971   -2.6873   42.1685 C   0  0  0  0  0  0  0  0  0  0  0  0
    0.9380   -3.6379   42.0922 C   0  0  0  0  0  0  0  0  0  0  0  0
    2.5827   -0.2859   42.1122 C   0  0  0  0  0  0  0  0  0  0  0  0
    3.8936   -0.5691   42.6035 C   0  0  0  0  0  0  0  0  0  0  0  0
    4.5432   -0.2312   43.4721 C   0  0  0  0  0  0  0  0  0  0  0  0
    5.4187   -1.0132   44.2740 C   0  0  0  0  0  0  0  0  0  0  0  0
    5.1446   -2.3835   44.4431 C   0  0  0  0  0  0  0  0  0  0  0  0
    4.2480   -2.9992   43.4899 C   0  0  0  0  0  0  0  0  0  0  0  0
  4  7  1  0
  7  8  2  3
  8  9  1  0
  9 10  2  3
 10 11  1  0
 11 12  2  0
  1  2  2  0
  2  6  1  0
  6  5  2  0
  5  4  1  0
  4  3  2  0
  3  1  1  0
M  END
$$$$
O14757_PocketFlow_idx-in-all-generaetd-956
     RDKit          3D

 14 15  0  0  0  0  0  0  0  0999 V2000
   -0.6395   -2.0713   41.4947 C   0  0  0  0  0  0  0  0  0  0  0  0
    0.1859   -1.1027   41.5970 C   0  0  0  0  0  0  0  0  0  0  0  0
   -2.0077   -1.8651   41.2044 C   0  0  0  0  0  0  0  0  0  0  0  0
    1.5974   -1.2445   41.7640 C   0  0  0  0  0  0  0  0  0  0  0  0
    1.9873   -2.5402   42.2780 C   0  0  0  0  0  0  0  0  0  0  0  0
    0.9098   -3.5138   42.4627 C   0  0  0  0  0  0  0  0  0  0  0  0
   -0.3287   -3.2489   41.9834 C   0  0  0  0  0  0  0  0  0  0  0  0
   -2.6648   -0.7214   41.3316 N   0  0  0  0  0  0  0  0  0  0  0  0
   -2.7843   -2.8129   40.6405 N   0  0  0  0  0  0  0  0  0  0  0  0
    2.6537    0.0449   41.8095 Cl  0  0  0  0  0  0  0  0  0  0  0  0
   -3.8785   -0.7407   40.7474 C   0  0  0  0  0  0  0  0  0  0  0  0
   -3.9155   -2.0455   40.3012 N   0  0  0  0  0  0  0  0  0  0  0  0
    3.2276   -2.6363   42.7758 N   0  0  0  0  0  0  0  0  0  0  0  0
    4.0541   -1.6410   43.0273 C   0  0  0  0  0  0  0  0  0  0  0  0
  1  3  1  0
  3  8  2  0
  3  9  1  0
  4 10  1  0
  8 11  1  0
  9 12  1  0
 11 12  1  0
  5 13  1  0
 13 14  1  0
  1  2  2  0
  2  4  1  0
  4  5  2  0
  5  6  1  0
  6  7  2  0
  7  1  1  0
M  END
$$$$
O14757_PocketFlow_idx-in-all-generaetd-957
     RDKit          3D

 11 10  0  0  0  0  0  0  0  0999 V2000
   -0.6395   -2.0713   41.4947 C   0  0  0  0  0  0  0  0  0  0  0  0
    0.1859   -1.1027   41.5970 C   0  0  0  0  0  0  0  0  0  0  0  0
    1.5836   -1.3270   41.4670 C   0  0  0  0  0  0  0  0  0  0  0  0
   -2.0616   -1.8375   41.5032 C   0  0  0  0  0  0  0  0  0  0  0  0
    2.5703   -0.3987   41.8488 C   0  0  0  0  0  0  0  0  0  0  0  0
    3.8557   -0.7227   42.2740 C   0  0  0  0  0  0  0  0  0  0  0  0
    4.0156   -1.8607   43.1374 C   0  0  0  0  0  0  0  0  0  0  0  0
    5.1212   -2.0177   44.0200 C   0  0  0  0  0  0  0  0  0  0  0  0
    5.9858   -0.9527   44.1314 C   0  0  0  0  0  0  0  0  0  0  0  0
    7.0327   -1.2898   44.9624 N   0  0  0  0  0  0  0  0  0  0  0  0
    6.9424   -2.5242   45.5387 C   0  0  0  0  0  0  0  0  0  0  0  0
  1  2  1  0
  2  3  2  3
  1  4  1  0
  3  5  1  0
  5  6  1  0
  6  7  1  0
  7  8  2  3
  8  9  1  0
  9 10  1  0
 10 11  2  0
M  END
$$$$
O14757_PocketFlow_idx-in-all-generaetd-958
     RDKit          3D

 18 18  0  0  0  0  0  0  0  0999 V2000
   -0.6395   -2.0713   41.4947 C   0  0  0  0  0  0  0  0  0  0  0  0
    0.1859   -1.1027   41.5970 C   0  0  0  0  0  0  0  0  0  0  0  0
   -2.0077   -1.8651   41.2044 C   0  0  0  0  0  0  0  0  0  0  0  0
    1.5974   -1.2445   41.7640 C   0  0  0  0  0  0  0  0  0  0  0  0
    1.9873   -2.5402   42.2780 C   0  0  0  0  0  0  0  0  0  0  0  0
    0.9098   -3.5138   42.4627 C   0  0  0  0  0  0  0  0  0  0  0  0
   -0.3287   -3.2489   41.9834 C   0  0  0  0  0  0  0  0  0  0  0  0
   -2.7216   -2.7891   40.5474 N   0  0  0  0  0  0  0  0  0  0  0  0
   -2.5355   -0.5301   41.1745 N   0  0  0  0  0  0  0  0  0  0  0  0
    2.5002   -0.1445   41.8046 C   0  0  0  0  0  0  0  0  0  0  0  0
    3.3801    0.1698   42.9909 C   0  0  0  0  0  0  0  0  0  0  0  0
    4.8221    0.3302   42.6990 C   0  0  0  0  0  0  0  0  0  0  0  0
    5.5364   -0.4934   43.6737 C   0  0  0  0  0  0  0  0  0  0  0  0
    6.4322   -1.4058   43.5059 C   0  0  0  0  0  0  0  0  0  0  0  0
    6.9057   -2.1005   44.7053 C   0  0  0  0  0  0  0  0  0  0  0  0
    8.0266   -2.0012   45.3554 C   0  0  0  0  0  0  0  0  0  0  0  0
    8.3759   -2.8271   46.5091 C   0  0  0  0  0  0  0  0  0  0  0  0
    7.3803   -3.7100   46.9340 C   0  0  0  0  0  0  0  0  0  0  0  0
  1  3  1  0
  3  8  1  0
  3  9  2  3
  4 10  1  0
 10 11  1  0
 11 12  1  0
 12 13  1  0
 13 14  1  0
 14 15  2  3
 15 16  1  0
 16 17  2  3
 17 18  1  0
  1  2  2  0
  2  4  1  0
  4  5  2  0
  5  6  1  0
  6  7  2  0
  7  1  1  0
M  END
$$$$
O14757_PocketFlow_idx-in-all-generaetd-959
     RDKit          3D

 14 14  0  0  0  0  0  0  0  0999 V2000
   -0.6395   -2.0713   41.4947 C   0  0  0  0  0  0  0  0  0  0  0  0
    0.6719   -2.2449   41.7518 C   0  0  0  0  0  0  0  0  0  0  0  0
    1.5951   -1.1948   41.6106 C   0  0  0  0  0  0  0  0  0  0  0  0
    2.8936   -1.2860   42.2441 C   0  0  1  0  0  0  0  0  0  0  0  0
    3.7940   -0.2219   42.2897 C   0  0  0  0  0  0  0  0  0  0  0  0
   -1.5784   -3.1018   41.3985 C   0  0  0  0  0  0  0  0  0  0  0  0
    4.9795   -0.3541   43.1241 C   0  0  0  0  0  0  0  0  0  0  0  0
    5.2364   -1.5048   43.8480 C   0  0  0  0  0  0  0  0  0  0  0  0
    6.3008   -1.6781   44.7360 C   0  0  0  0  0  0  0  0  0  0  0  0
    6.4116   -2.8889   45.5339 C   0  0  0  0  0  0  0  0  0  0  0  0
    5.3636   -3.7992   45.4047 C   0  0  0  0  0  0  0  0  0  0  0  0
    4.3422   -3.6121   44.5407 C   0  0  0  0  0  0  0  0  0  0  0  0
    4.1878   -2.4652   43.8189 C   0  0  0  0  0  0  0  0  0  0  0  0
    3.0535   -2.3498   43.0107 C   0  0  0  0  0  0  0  0  0  0  0  0
  1  2  1  0
  2  3  1  0
  3  4  1  0
  4  5  1  0
  1  6  1  0
  5  7  2  3
  7  8  1  0
  4 14  1  1
  8  9  2  0
  9 10  1  0
 10 11  2  0
 11 12  1  0
 12 13  2  0
 13  8  1  0
M  END
$$$$
O14757_PocketFlow_idx-in-all-generaetd-960
     RDKit          3D

 19 21  0  0  0  0  0  0  0  0999 V2000
    0.2881   -2.9111   42.4378 C   0  0  0  0  0  0  0  0  0  0  0  0
   -0.0650   -2.5021   41.5798 C   0  0  0  0  0  0  0  0  0  0  0  0
    1.5111   -2.4518   43.1047 C   0  0  0  0  0  0  0  0  0  0  0  0
    2.1892   -1.4341   42.4770 C   0  0  0  0  0  0  0  0  0  0  0  0
    3.3839   -0.8722   43.0399 C   0  0  0  0  0  0  0  0  0  0  0  0
    4.0272    0.2093   42.4724 C   0  0  0  0  0  0  0  0  0  0  0  0
    0.4488   -1.3377   40.9050 C   0  0  0  0  0  0  0  0  0  0  0  0
    1.6295   -0.8153   41.4119 C   0  0  0  0  0  0  0  0  0  0  0  0
    4.1480   -1.6470   44.0447 C   0  0  0  0  0  0  0  0  0  0  0  0
    5.3053   -1.1824   44.6486 C   0  0  0  0  0  0  0  0  0  0  0  0
    5.8558   -1.9544   45.6773 C   0  0  0  0  0  0  0  0  0  0  0  0
    5.2552   -3.1695   46.0553 C   0  0  0  0  0  0  0  0  0  0  0  0
    4.0898   -3.5677   45.4354 C   0  0  0  0  0  0  0  0  0  0  0  0
    3.5655   -2.8605   44.4515 C   0  0  0  0  0  0  0  0  0  0  0  0
    2.2685   -3.2792   43.9507 C   0  0  0  0  0  0  0  0  0  0  0  0
    5.9501   -3.9323   47.1603 C   0  0  0  0  0  0  0  0  0  0  0  0
    6.7162   -3.4301   47.9214 O   0  0  0  0  0  0  0  0  0  0  0  0
    5.7795   -5.2375   47.0818 O   0  0  0  0  0  0  0  0  0  0  0  0
    1.7692   -4.4075   44.4136 O   0  0  0  0  0  0  0  0  0  0  0  0
  4  5  1  0
  5  6  2  0
  5  9  1  0
  3 15  1  0
 14 15  1  0
 12 16  1  0
 16 17  2  0
 16 18  1  0
 15 19  2  0
  9 10  2  0
 10 11  1  0
 11 12  2  0
 12 13  1  0
 13 14  2  0
 14  9  1  0
  1  2  2  0
  2  7  1  0
  7  8  2  0
  8  4  1  0
  4  3  2  0
  3  1  1  0
M  END
$$$$
O14757_PocketFlow_idx-in-all-generaetd-961
     RDKit          3D

 22 22  0  0  0  0  0  0  0  0999 V2000
   -0.6395   -2.0713   41.4947 C   0  0  0  0  0  0  0  0  0  0  0  0
    0.6719   -2.2449   41.7518 C   0  0  0  0  0  0  0  0  0  0  0  0
    1.5951   -1.1948   41.6106 C   0  0  0  0  0  0  0  0  0  0  0  0
    2.1924   -0.6388   42.6886 C   0  0  0  0  0  0  0  0  0  0  0  0
    3.7016   -0.6558   42.7316 C   0  0  2  0  0  0  0  0  0  0  0  0
    4.3393   -0.9669   43.9578 C   0  0  0  0  0  0  0  0  0  0  0  0
    4.8811   -2.3434   43.9701 C   0  0  0  0  0  0  0  0  0  0  0  0
    4.0798   -3.4201   44.1776 C   0  0  0  0  0  0  0  0  0  0  0  0
    4.4553   -4.5032   45.0113 C   0  0  0  0  0  0  0  0  0  0  0  0
   -1.4628   -3.1091   41.2653 O   0  0  0  0  0  0  0  0  0  0  0  0
    4.6970   -4.0768   46.3283 C   0  0  0  0  0  0  0  0  0  0  0  0
    5.3402   -4.9781   47.2774 C   0  0  0  0  0  0  0  0  0  0  0  0
    4.9282   -6.0045   47.5016 C   0  0  0  0  0  0  0  0  0  0  0  0
    5.6516   -6.9197   48.4451 C   0  0  0  0  0  0  0  0  0  0  0  0
    6.6951   -6.3456   49.0665 N   0  0  0  0  0  0  0  0  0  0  0  0
    6.4627   -4.4640   48.1658 C   0  0  0  0  0  0  0  0  0  0  0  0
    7.0191   -5.1574   49.0285 N   0  0  0  0  0  0  0  0  0  0  0  0
   -1.2320   -0.9584   41.7681 O   0  0  0  0  0  0  0  0  0  0  0  0
    5.3262   -8.3480   48.5973 C   0  0  0  0  0  0  0  0  0  0  0  0
    6.2165   -9.1920   48.3959 O   0  0  0  0  0  0  0  0  0  0  0  0
    4.1680   -8.6343   48.9501 O   0  0  0  0  0  0  0  0  0  0  0  0
    4.2995    0.7888   42.3440 C   0  0  0  0  0  0  0  0  0  0  0  0
  1  2  1  0
  2  3  1  0
  3  4  1  0
  4  5  1  0
  5  6  1  0
  6  7  1  0
  7  8  1  0
  8  9  1  0
  1 10  1  0
  9 11  1  0
 11 12  1  0
  1 18  2  0
 14 19  1  0
 19 20  1  0
 19 21  2  0
  5 22  1  1
 12 13  2  0
 13 14  1  0
 14 15  2  0
 15 17  1  0
 17 16  2  0
 16 12  1  0
M  END
$$$$
O14757_PocketFlow_idx-in-all-generaetd-962
     RDKit          3D

 26 29  0  0  0  0  0  0  0  0999 V2000
    0.2881   -2.9111   42.4378 C   0  0  0  0  0  0  0  0  0  0  0  0
    1.1784   -3.4293   42.9321 C   0  0  0  0  0  0  0  0  0  0  0  0
    1.2340   -4.4107   43.9123 C   0  0  1  0  0  0  0  0  0  0  0  0
    0.2435   -5.3319   43.9966 C   0  0  0  0  0  0  0  0  0  0  0  0
    0.3425   -1.9172   41.4183 C   0  0  0  0  0  0  0  0  0  0  0  0
    1.5109   -1.1605   41.3693 C   0  0  0  0  0  0  0  0  0  0  0  0
    2.5899   -1.5410   42.2233 C   0  0  0  0  0  0  0  0  0  0  0  0
    2.4687   -2.6350   43.0700 C   0  0  0  0  0  0  0  0  0  0  0  0
    0.3073   -6.5193   44.8242 C   0  0  0  0  0  0  0  0  0  0  0  0
   -0.8388   -7.3199   45.0620 C   0  0  0  0  0  0  0  0  0  0  0  0
    3.4872   -3.1439   43.8882 C   0  0  0  0  0  0  0  0  0  0  0  0
    2.7852   -4.3770   44.5053 C   0  0  0  0  0  0  0  0  0  0  0  0
    4.6812   -3.2639   43.9602 C   0  0  0  0  0  0  0  0  0  0  0  0
   -0.8335   -8.3053   46.0382 C   0  0  0  0  0  0  0  0  0  0  0  0
   -2.0292   -9.0450   46.4048 C   0  0  0  0  0  0  0  0  0  0  0  0
   -3.1502   -8.8154   45.5600 C   0  0  0  0  0  0  0  0  0  0  0  0
   -3.0991   -7.9502   44.4824 C   0  0  0  0  0  0  0  0  0  0  0  0
   -1.9151   -7.2508   44.2270 C   0  0  0  0  0  0  0  0  0  0  0  0
    5.3790   -2.3118   45.0235 C   0  0  0  0  0  0  0  0  0  0  0  0
    4.8631   -1.1908   45.2495 C   0  0  0  0  0  0  0  0  0  0  0  0
    6.5623   -2.8592   45.7010 C   0  0  0  0  0  0  0  0  0  0  0  0
    7.7725   -2.1729   45.5909 C   0  0  0  0  0  0  0  0  0  0  0  0
    8.8848   -2.5757   46.3926 C   0  0  0  0  0  0  0  0  0  0  0  0
    8.8250   -3.7956   47.1133 C   0  0  0  0  0  0  0  0  0  0  0  0
    7.4971   -4.3549   47.2802 C   0  0  0  0  0  0  0  0  0  0  0  0
    6.4441   -3.9165   46.5857 C   0  0  0  0  0  0  0  0  0  0  0  0
  2  3  1  0
  3  4  1  6
  4  9  2  3
  9 10  1  0
  8 11  1  0
  3 12  1  0
 11 12  2  0
 11 13  1  0
 13 19  1  0
 19 20  1  0
 19 21  1  0
  1  2  2  0
  2  8  1  0
  8  7  2  0
  7  6  1  0
  6  5  2  0
  5  1  1  0
 10 14  2  0
 14 15  1  0
 15 16  2  0
 16 17  1  0
 17 18  2  0
 18 10  1  0
 21 22  2  0
 22 23  1  0
 23 24  2  0
 24 25  1  0
 25 26  2  0
 26 21  1  0
M  END
$$$$
O14757_PocketFlow_idx-in-all-generaetd-963
     RDKit          3D

 35 38  0  0  0  0  0  0  0  0999 V2000
    0.0138   -2.7927   42.5918 N   0  0  0  0  0  0  0  0  0  0  0  0
    1.1722   -3.1858   42.8673 C   0  0  0  0  0  0  0  0  0  0  0  0
    1.4725   -4.0593   43.8477 C   0  0  0  0  0  0  0  0  0  0  0  0
    0.4760   -4.9535   44.3016 C   0  0  0  0  0  0  0  0  0  0  0  0
    0.6427   -5.3548   45.6747 C   0  0  0  0  0  0  0  0  0  0  0  0
    1.6356   -4.9203   46.2780 N   0  0  0  0  0  0  0  0  0  0  0  0
   -0.1497   -1.7587   41.7025 C   0  0  0  0  0  0  0  0  0  0  0  0
    0.9362   -1.0039   41.3613 N   0  0  0  0  0  0  0  0  0  0  0  0
    2.2226   -2.1774   42.4943 C   0  0  0  0  0  0  0  0  0  0  0  0
    2.1047   -1.1670   41.8053 C   0  0  0  0  0  0  0  0  0  0  0  0
   -1.4135   -1.4464   41.3147 N   0  0  0  0  0  0  0  0  0  0  0  0
    0.6242   -6.9215   45.7095 C   0  0  0  0  0  0  0  0  0  0  0  0
    1.5164   -7.5056   45.7625 C   0  0  0  0  0  0  0  0  0  0  0  0
    2.8792   -6.9580   46.0561 C   0  0  0  0  0  0  0  0  0  0  0  0
    2.8724   -5.5468   46.3098 C   0  0  0  0  0  0  0  0  0  0  0  0
    4.1366   -4.7967   46.6049 C   0  0  0  0  0  0  0  0  0  0  0  0
    4.4193   -3.5916   46.0422 N   0  0  0  0  0  0  0  0  0  0  0  0
    5.5722   -2.9483   46.1139 C   0  0  0  0  0  0  0  0  0  0  0  0
    5.7983   -1.7416   45.4310 C   0  0  0  0  0  0  0  0  0  0  0  0
    4.7942   -1.1171   44.7332 C   0  0  0  0  0  0  0  0  0  0  0  0
    4.8420   -5.2051   47.5612 O   0  0  0  0  0  0  0  0  0  0  0  0
    4.9806   -0.0045   43.9337 C   0  0  0  0  0  0  0  0  0  0  0  0
   -0.7633   -7.4888   45.6384 C   0  0  0  0  0  0  0  0  0  0  0  0
   -1.6634   -7.3024   44.6167 C   0  0  0  0  0  0  0  0  0  0  0  0
   -2.9201   -8.0345   44.5789 C   0  0  0  0  0  0  0  0  0  0  0  0
   -3.2396   -8.8870   45.6499 C   0  0  0  0  0  0  0  0  0  0  0  0
   -1.4300   -8.2705   46.8082 C   0  0  0  0  0  0  0  0  0  0  0  0
   -2.5095   -8.8989   46.7765 C   0  0  0  0  0  0  0  0  0  0  0  0
    6.5402   -3.4708   46.8560 O   0  0  0  0  0  0  0  0  0  0  0  0
    3.9888    0.3316   42.9870 C   0  0  0  0  0  0  0  0  0  0  0  0
    2.8155   -0.1013   42.5626 C   0  0  0  0  0  0  0  0  0  0  0  0
   -3.6996   -7.9993   43.3670 C   0  0  0  0  0  0  0  0  0  0  0  0
   -4.7474   -7.5805   43.3658 O   0  0  0  0  0  0  0  0  0  0  0  0
   -2.9849   -7.9944   42.2537 O   0  0  0  0  0  0  0  0  0  0  0  0
    7.2140   -1.6773   44.8034 C   0  0  0  0  0  0  0  0  0  0  0  0
  2  3  1  0
  3  4  1  0
  4  5  1  0
  7 11  1  0
 15 16  1  0
 16 17  1  0
 17 18  1  0
 18 19  1  0
 19 20  2  0
 16 21  2  0
 20 22  1  0
 12 23  1  0
 18 29  2  0
 22 30  1  0
 10 31  1  0
 30 31  1  0
 25 32  1  0
 32 33  2  0
 32 34  1  0
 19 35  1  0
  5  6  2  0
  6 15  1  0
 15 14  2  0
 14 13  1  0
 13 12  2  0
 12  5  1  0
 23 24  2  0
 24 25  1  0
 25 26  2  0
 26 28  1  0
 28 27  2  0
 27 23  1  0
  1  2  2  0
  2  9  1  0
  9 10  2  0
 10  8  1  0
  8  7  2  0
  7  1  1  0
M  END
$$$$
O14757_PocketFlow_idx-in-all-generaetd-964
     RDKit          3D

 21 22  0  0  0  0  0  0  0  0999 V2000
   -0.6395   -2.0713   41.4947 C   0  0  0  0  0  0  0  0  0  0  0  0
    0.6719   -2.2449   41.7518 C   0  0  0  0  0  0  0  0  0  0  0  0
    1.1287   -3.3339   42.4778 C   0  0  0  0  0  0  0  0  0  0  0  0
    2.4060   -3.3351   43.0418 C   0  0  0  0  0  0  0  0  0  0  0  0
    2.8579   -4.2212   44.0684 C   0  0  0  0  0  0  0  0  0  0  0  0
    4.1203   -4.0648   44.6860 C   0  0  0  0  0  0  0  0  0  0  0  0
    4.8857   -2.9400   44.3559 C   0  0  0  0  0  0  0  0  0  0  0  0
    4.3977   -2.0074   43.4262 C   0  0  0  0  0  0  0  0  0  0  0  0
    3.1556   -2.0733   42.8943 C   0  0  0  0  0  0  0  0  0  0  0  0
    5.2464   -0.7815   43.2210 C   0  0  0  0  0  0  0  0  0  0  0  0
    4.8455    0.0750   42.3242 O   0  0  0  0  0  0  0  0  0  0  0  0
    6.2647   -0.5582   44.1223 N   0  0  0  0  0  0  0  0  0  0  0  0
   -1.2883   -1.2237   41.6883 C   0  0  0  0  0  0  0  0  0  0  0  0
   -2.7281   -1.0935   41.3987 C   0  0  0  0  0  0  0  0  0  0  0  0
   -3.2531   -2.1249   40.6089 C   0  0  0  0  0  0  0  0  0  0  0  0
   -2.4272   -3.1892   40.4150 N   0  0  0  0  0  0  0  0  0  0  0  0
   -1.2089   -3.2272   40.7600 C   0  0  0  0  0  0  0  0  0  0  0  0
    2.0964   -5.2995   44.3380 N   0  0  0  0  0  0  0  0  0  0  0  0
    1.2405   -5.3919   45.3979 C   0  0  0  0  0  0  0  0  0  0  0  0
    0.7321   -6.4499   45.7626 O   0  0  0  0  0  0  0  0  0  0  0  0
    0.9312   -4.2663   46.1303 O   0  0  0  0  0  0  0  0  0  0  0  0
  1  2  1  0
  2  3  2  3
  3  4  1  0
  8 10  1  0
 10 11  2  0
 10 12  1  0
  5 18  1  0
 18 19  1  0
 19 20  2  0
 19 21  1  0
  1 13  2  0
 13 14  1  0
 14 15  2  0
 15 16  1  0
 16 17  2  0
 17  1  1  0
  4  5  2  0
  5  6  1  0
  6  7  2  0
  7  8  1  0
  8  9  2  0
  9  4  1  0
M  END
$$$$
O14757_PocketFlow_idx-in-all-generaetd-965
     RDKit          3D

 12 12  0  0  0  0  0  0  0  0999 V2000
   -0.6395   -2.0713   41.4947 C   0  0  0  0  0  0  0  0  0  0  0  0
   -0.2671   -3.2464   41.6546 C   0  0  0  0  0  0  0  0  0  0  0  0
    0.2407   -0.9706   41.5952 C   0  0  0  0  0  0  0  0  0  0  0  0
    1.6195   -1.2958   41.8767 C   0  0  0  0  0  0  0  0  0  0  0  0
    1.9162   -2.6816   42.2016 C   0  0  0  0  0  0  0  0  0  0  0  0
    0.9422   -3.6324   42.1156 C   0  0  0  0  0  0  0  0  0  0  0  0
    2.9096   -0.0035   42.1878 Br  0  0  0  0  0  0  0  0  0  0  0  0
   -1.9756   -1.9606   41.0895 N   0  0  0  0  0  0  0  0  0  0  0  0
   -2.7139   -0.7727   41.2117 C   0  0  0  0  0  0  0  0  0  0  0  0
   -3.9125   -0.5766   40.3928 C   0  0  0  0  0  0  0  0  0  0  0  0
   -2.7015   -2.9522   40.5202 C   0  0  0  0  0  0  0  0  0  0  0  0
   -2.2544    0.3034   41.7733 O   0  0  0  0  0  0  0  0  0  0  0  0
  4  7  1  0
  1  8  1  0
  8  9  1  0
  9 10  1  0
  8 11  1  0
  9 12  2  0
  1  2  2  0
  2  6  1  0
  6  5  2  0
  5  4  1  0
  4  3  2  0
  3  1  1  0
M  END
$$$$
O14757_PocketFlow_idx-in-all-generaetd-966
     RDKit          3D

  5  4  0  0  0  0  0  0  0  0999 V2000
    0.2881   -2.9111   42.4378 C   0  0  0  0  0  0  0  0  0  0  0  0
    0.9507   -2.0592   42.5168 F   0  0  0  0  0  0  0  0  0  0  0  0
    0.3132   -3.5934   43.5813 F   0  0  0  0  0  0  0  0  0  0  0  0
   -1.0515   -2.6184   42.2507 F   0  0  0  0  0  0  0  0  0  0  0  0
    0.5643   -3.8202   41.3834 F   0  0  0  0  0  0  0  0  0  0  0  0
  1  2  1  0
  1  3  1  0
  1  4  1  0
  1  5  1  0
M  END
$$$$
O14757_PocketFlow_idx-in-all-generaetd-967
     RDKit          3D

 35 36  0  0  0  0  0  0  0  0999 V2000
   -0.6395   -2.0713   41.4947 C   0  0  0  0  0  0  0  0  0  0  0  0
   -0.2671   -3.2464   41.6546 C   0  0  0  0  0  0  0  0  0  0  0  0
    0.2407   -0.9706   41.5952 C   0  0  0  0  0  0  0  0  0  0  0  0
    1.6195   -1.2958   41.8767 C   0  0  0  0  0  0  0  0  0  0  0  0
    2.6583   -0.3517   42.0703 C   0  0  0  0  0  0  0  0  0  0  0  0
    3.9275   -0.7702   42.5387 C   0  0  0  0  0  0  0  0  0  0  0  0
    3.9444   -2.1081   43.0865 C   0  0  0  0  0  0  0  0  0  0  0  0
    2.8133   -2.9027   43.1780 C   0  0  0  0  0  0  0  0  0  0  0  0
    1.6416   -2.4473   42.6184 C   0  0  0  0  0  0  0  0  0  0  0  0
    0.7194   -3.4978   42.3799 C   0  0  0  0  0  0  0  0  0  0  0  0
    5.0909    0.0413   42.6122 C   0  0  0  0  0  0  0  0  0  0  0  0
   -2.0400   -1.6516   41.0131 C   0  0  0  0  0  0  0  0  0  0  0  0
   -2.5084   -0.5061   41.3310 O   0  0  0  0  0  0  0  0  0  0  0  0
   -2.7969   -2.5185   40.5241 O   0  0  0  0  0  0  0  0  0  0  0  0
    2.8881   -3.9645   44.2191 C   0  0  0  0  0  0  0  0  0  0  0  0
    4.0464   -4.6498   44.4483 C   0  0  0  0  0  0  0  0  0  0  0  0
    1.7287   -4.2601   44.9583 C   0  0  0  0  0  0  0  0  0  0  0  0
    1.3683   -5.3757   45.6571 C   0  0  0  0  0  0  0  0  0  0  0  0
    0.7426   -6.3559   44.8905 C   0  0  0  0  0  0  0  0  0  0  0  0
   -0.6485   -6.6589   45.3843 C   0  0  2  0  0  0  0  0  0  0  0  0
   -0.7275   -8.0103   45.8840 C   0  0  0  0  0  0  0  0  0  0  0  0
    0.1549   -8.4327   46.7963 C   0  0  0  0  0  0  0  0  0  0  0  0
   -0.1571   -9.6479   47.4869 C   0  0  0  0  0  0  0  0  0  0  0  0
   -0.2282   -9.5188   48.8860 C   0  0  1  0  0  0  0  0  0  0  0  0
   -1.2431  -10.0822   49.5141 C   0  0  0  0  0  0  0  0  0  0  0  0
   -2.5406   -9.6912   49.0444 C   0  0  0  0  0  0  0  0  0  0  0  0
   -2.6874   -8.3304   48.7092 C   0  0  0  0  0  0  0  0  0  0  0  0
   -1.6369   -6.5183   44.3293 O   0  0  0  0  0  0  0  0  0  0  0  0
    5.4493    0.4879   43.7366 O   0  0  0  0  0  0  0  0  0  0  0  0
    5.3604    0.6790   41.5278 O   0  0  0  0  0  0  0  0  0  0  0  0
    1.0382   -9.8630   49.4593 O   0  0  0  0  0  0  0  0  0  0  0  0
    1.9277   -9.8416   48.9245 C   0  0  0  0  0  0  0  0  0  0  0  0
    3.1442   -9.5090   49.7060 C   0  0  0  0  0  0  0  0  0  0  0  0
    3.2834   -9.6448   50.9116 C   0  0  0  0  0  0  0  0  0  0  0  0
    4.2807  -10.4247   51.3994 C   0  0  0  0  0  0  0  0  0  0  0  0
  6 11  1  0
  1 12  1  0
 12 13  2  0
 12 14  1  0
  8 15  1  0
 15 16  1  0
 15 17  1  0
 17 18  2  3
 18 19  1  0
 19 20  1  0
 20 21  1  0
 21 22  1  0
 22 23  1  0
 24 23  1  6
 24 25  1  0
 25 26  1  0
 26 27  1  0
 20 28  1  6
 11 29  1  0
 11 30  2  0
 24 31  1  0
 31 32  1  0
 32 33  1  0
 33 34  3  0
 34 35  1  0
  1  2  2  0
  2 10  1  0
 10  9  2  0
  4  3  2  0
  3  1  1  0
  4  5  1  0
  5  6  2  0
  6  7  1  0
  7  8  2  0
  8  9  1  0
  9  4  1  0
M  END
$$$$
O14757_PocketFlow_idx-in-all-generaetd-968
     RDKit          3D

 23 25  0  0  0  0  0  0  0  0999 V2000
   -0.6395   -2.0713   41.4947 C   0  0  0  0  0  0  0  0  0  0  0  0
    0.1859   -1.1027   41.5970 C   0  0  0  0  0  0  0  0  0  0  0  0
    1.5836   -1.3270   41.4670 C   0  0  0  0  0  0  0  0  0  0  0  0
    2.5750   -0.4224   42.0442 C   0  0  0  0  0  0  0  0  0  0  0  0
    3.8156   -0.8009   42.5363 C   0  0  0  0  0  0  0  0  0  0  0  0
    4.0115   -0.9328   43.9512 C   0  0  0  0  0  0  0  0  0  0  0  0
    4.1133   -2.1988   44.4963 C   0  0  0  0  0  0  0  0  0  0  0  0
    4.9924   -2.4319   45.5649 C   0  0  0  0  0  0  0  0  0  0  0  0
   -0.1359   -3.3778   41.1379 C   0  0  0  0  0  0  0  0  0  0  0  0
    4.8549   -3.6472   46.2470 C   0  0  0  0  0  0  0  0  0  0  0  0
    3.9127   -4.6169   45.8082 C   0  0  0  0  0  0  0  0  0  0  0  0
    3.1257   -4.3253   44.6855 C   0  0  0  0  0  0  0  0  0  0  0  0
    3.2106   -3.1034   44.0353 C   0  0  0  0  0  0  0  0  0  0  0  0
    1.2272   -3.5458   40.9357 C   0  0  0  0  0  0  0  0  0  0  0  0
    2.0476   -2.5621   41.1898 C   0  0  0  0  0  0  0  0  0  0  0  0
    5.8052   -3.9851   47.3701 C   0  0  0  0  0  0  0  0  0  0  0  0
    6.6301   -3.1332   47.8798 N   0  0  0  0  0  0  0  0  0  0  0  0
    5.8341   -5.2394   47.8910 N   0  0  0  0  0  0  0  0  0  0  0  0
    6.5655   -5.5706   48.8490 C   0  0  0  0  0  0  0  0  0  0  0  0
    7.6484   -3.6684   48.6319 C   0  0  0  0  0  0  0  0  0  0  0  0
    7.5863   -4.7997   49.3198 C   0  0  0  0  0  0  0  0  0  0  0  0
   -1.9449   -1.9218   41.6169 F   0  0  0  0  0  0  0  0  0  0  0  0
    6.4427   -6.8084   49.3829 F   0  0  0  0  0  0  0  0  0  0  0  0
  3  4  1  0
  4  5  1  0
  5  6  1  0
  6  7  1  0
 10 16  1  0
  1 22  1  0
 19 23  1  0
 16 17  2  0
 17 20  1  0
 20 21  2  0
 21 19  1  0
 19 18  2  0
 18 16  1  0
  7  8  2  0
  8 10  1  0
 10 11  2  0
 11 12  1  0
 12 13  2  0
 13  7  1  0
  1  2  2  0
  2  3  1  0
  3 15  2  0
 15 14  1  0
 14  9  2  0
  9  1  1  0
M  END
$$$$
O14757_PocketFlow_idx-in-all-generaetd-969
     RDKit          3D

 22 24  0  0  0  0  0  0  0  0999 V2000
   -0.6395   -2.0713   41.4947 C   0  0  0  0  0  0  0  0  0  0  0  0
   -0.2671   -3.2464   41.6546 C   0  0  0  0  0  0  0  0  0  0  0  0
    0.2407   -0.9706   41.5952 C   0  0  0  0  0  0  0  0  0  0  0  0
    1.6195   -1.2958   41.8767 C   0  0  0  0  0  0  0  0  0  0  0  0
    2.6583   -0.3517   42.0703 C   0  0  0  0  0  0  0  0  0  0  0  0
    3.9275   -0.7702   42.5387 C   0  0  0  0  0  0  0  0  0  0  0  0
    4.0277   -1.4189   43.6193 C   0  0  0  0  0  0  0  0  0  0  0  0
    3.0317   -2.5520   43.7190 C   0  0  0  0  0  0  0  0  0  0  0  0
    1.7678   -2.2775   42.9761 C   0  0  0  0  0  0  0  0  0  0  0  0
    0.8798   -3.5735   42.6532 C   0  0  0  0  0  0  0  0  0  0  0  0
    5.0085   -1.5750   44.6415 C   0  0  0  0  0  0  0  0  0  0  0  0
    6.0583   -0.7202   44.7562 C   0  0  0  0  0  0  0  0  0  0  0  0
    4.8862   -2.5165   45.7312 C   0  0  0  0  0  0  0  0  0  0  0  0
    5.5644   -3.7361   45.6854 C   0  0  0  0  0  0  0  0  0  0  0  0
    7.3152   -1.2849   45.2571 C   0  0  0  0  0  0  0  0  0  0  0  0
    7.0336   -3.5625   46.1361 C   0  0  0  0  0  0  0  0  0  0  0  0
    7.7266   -2.4331   45.8873 C   0  0  0  0  0  0  0  0  0  0  0  0
    9.1371   -2.4556   46.2993 C   0  0  0  0  0  0  0  0  0  0  0  0
    9.4222   -2.3391   47.6098 C   0  0  0  0  0  0  0  0  0  0  0  0
    8.4882   -2.4322   48.6948 C   0  0  0  0  0  0  0  0  0  0  0  0
    8.9188   -2.3501   50.0434 C   0  0  0  0  0  0  0  0  0  0  0  0
   10.2221   -1.8436   50.3041 C   0  0  0  0  0  0  0  0  0  0  0  0
  7 11  1  0
 11 12  2  0
 11 13  1  0
 13 14  2  0
 12 15  1  0
 14 16  1  0
 15 17  1  0
 16 17  1  0
 17 18  1  0
 18 19  2  3
 19 20  1  0
 20 21  2  3
 21 22  1  0
  1  2  2  0
  2 10  1  0
 10  9  2  0
  4  3  2  0
  3  1  1  0
  4  5  1  0
  5  6  2  0
  6  7  1  0
  7  8  2  0
  8  9  1  0
  9  4  1  0
M  END
$$$$
O14757_PocketFlow_idx-in-all-generaetd-970
     RDKit          3D

 35 37  0  0  0  0  0  0  0  0999 V2000
    0.2881   -2.9111   42.4378 C   0  0  0  0  0  0  0  0  0  0  0  0
   -0.0650   -2.5021   41.5798 C   0  0  0  0  0  0  0  0  0  0  0  0
    1.5584   -2.5265   43.0885 C   0  0  0  0  0  0  0  0  0  0  0  0
    2.2571   -1.5118   42.4661 C   0  0  0  0  0  0  0  0  0  0  0  0
    1.6355   -0.8966   41.3660 C   0  0  0  0  0  0  0  0  0  0  0  0
    0.4783   -1.3291   40.8710 C   0  0  0  0  0  0  0  0  0  0  0  0
    3.5156   -1.0635   43.0107 C   0  0  2  0  0  0  0  0  0  0  0  0
    4.2507   -0.0362   42.5207 C   0  0  0  0  0  0  0  0  0  0  0  0
    4.1887   -1.9167   44.0242 C   0  0  0  0  0  0  0  0  0  0  0  0
    4.0982   -3.1655   44.2286 C   0  0  0  0  0  0  0  0  0  0  0  0
    4.4349   -3.8035   45.3901 C   0  0  0  0  0  0  0  0  0  0  0  0
    5.2895   -3.1378   46.2802 C   0  0  0  0  0  0  0  0  0  0  0  0
    5.5795   -1.7769   46.0468 C   0  0  0  0  0  0  0  0  0  0  0  0
    4.9707   -1.1187   45.0363 C   0  0  0  0  0  0  0  0  0  0  0  0
    5.8740   -3.8110   47.4709 C   0  0  0  0  0  0  0  0  0  0  0  0
    6.6744   -3.3018   48.3444 N   0  0  0  0  0  0  0  0  0  0  0  0
    7.4925   -4.1080   49.0928 C   0  0  0  0  0  0  0  0  0  0  0  0
    8.0985   -4.9910   48.8478 C   0  0  0  0  0  0  0  0  0  0  0  0
    8.8827   -5.7134   49.6629 C   0  0  0  0  0  0  0  0  0  0  0  0
    9.1312   -5.2688   50.9483 C   0  0  0  0  0  0  0  0  0  0  0  0
    8.5473   -4.0478   51.3149 C   0  0  0  0  0  0  0  0  0  0  0  0
    7.7536   -3.3456   50.4378 C   0  0  0  0  0  0  0  0  0  0  0  0
    5.2715   -4.9199   47.7983 O   0  0  0  0  0  0  0  0  0  0  0  0
   -1.6299   -2.9486   40.8523 Cl  0  0  0  0  0  0  0  0  0  0  0  0
   10.0129   -5.9095   51.9339 C   0  0  0  0  0  0  0  0  0  0  0  0
   10.7565   -5.2264   52.6772 N   0  0  0  0  0  0  0  0  0  0  0  0
    9.9683   -7.1684   52.0314 O   0  0  0  0  0  0  0  0  0  0  0  0
   11.5844   -5.7911   53.7604 C   0  0  0  0  0  0  0  0  0  0  0  0
    4.1817   -5.2433   45.5171 C   0  0  0  0  0  0  0  0  0  0  0  0
    3.9152   -5.7274   44.3635 F   0  0  0  0  0  0  0  0  0  0  0  0
    3.2146   -5.5259   46.2204 F   0  0  0  0  0  0  0  0  0  0  0  0
    5.1561   -5.9640   45.9876 F   0  0  0  0  0  0  0  0  0  0  0  0
   -0.1366   -4.1187   43.1290 O   0  0  0  0  0  0  0  0  0  0  0  0
    0.8816   -4.9777   43.7693 C   0  0  0  0  0  0  0  0  0  0  0  0
    0.2123   -5.9729   44.6376 C   0  0  0  0  0  0  0  0  0  0  0  0
  4  7  1  0
  7  8  1  6
  7  9  1  0
 12 15  1  0
 15 16  1  0
 15 23  2  0
  2 24  1  0
 20 25  1  0
 25 26  1  0
 25 27  2  0
 26 28  1  0
 11 29  1  0
 29 30  1  0
 29 31  1  0
 29 32  1  0
  1 33  1  0
 33 34  1  0
 34 35  1  0
 16 17  1  0
 17 18  2  0
 18 19  1  0
 19 20  2  0
 20 21  1  0
 21 22  2  0
 22 17  1  0
  1  2  2  0
  2  6  1  0
  6  5  2  0
  5  4  1  0
  4  3  2  0
  3  1  1  0
  9 10  2  0
 10 11  1  0
 11 12  2  0
 12 13  1  0
 13 14  2  0
 14  9  1  0
M  END
$$$$
O14757_PocketFlow_idx-in-all-generaetd-971
     RDKit          3D

  8  7  0  0  0  0  0  0  0  0999 V2000
   -0.8413   -1.9048   41.7918 F   0  0  0  0  0  0  0  0  0  0  0  0
    0.2972   -1.3787   41.5137 C   0  0  0  0  0  0  0  0  0  0  0  0
    1.3859   -2.2666   41.4597 C   0  0  0  0  0  0  0  0  0  0  0  0
    0.8940   -3.5838   41.7094 C   0  0  0  0  0  0  0  0  0  0  0  0
   -0.4916   -3.8572   41.7866 C   0  0  0  0  0  0  0  0  0  0  0  0
   -1.3442   -2.8537   41.8178 C   0  0  0  0  0  0  0  0  0  0  0  0
   -2.1932   -2.9483   40.7002 F   0  0  0  0  0  0  0  0  0  0  0  0
   -2.0810   -2.7101   42.9044 F   0  0  0  0  0  0  0  0  0  0  0  0
  1  2  1  0
  2  3  1  0
  3  4  1  0
  4  5  2  3
  5  6  1  0
  6  7  1  0
  6  8  1  0
M  END
$$$$
O14757_PocketFlow_idx-in-all-generaetd-972
     RDKit          3D

 34 37  0  0  0  0  0  0  0  0999 V2000
    0.2881   -2.9111   42.4378 C   0  0  0  0  0  0  0  0  0  0  0  0
   -0.0650   -2.5021   41.5798 C   0  0  0  0  0  0  0  0  0  0  0  0
    1.6221   -3.4772   42.5980 C   0  0  0  0  0  0  0  0  0  0  0  0
    2.0908   -4.0216   43.8699 C   0  0  0  0  0  0  0  0  0  0  0  0
    1.0527   -4.4694   44.7582 C   0  0  0  0  0  0  0  0  0  0  0  0
   -0.1447   -3.9898   44.6987 C   0  0  0  0  0  0  0  0  0  0  0  0
   -0.4475   -3.3039   43.5563 N   0  0  0  0  0  0  0  0  0  0  0  0
   -0.3160   -1.0081   41.4999 C   0  0  0  0  0  0  0  0  0  0  0  0
    3.4693   -4.4209   44.0621 C   0  0  0  0  0  0  0  0  0  0  0  0
    4.4470   -3.3278   44.4595 C   0  0  0  0  0  0  0  0  0  0  0  0
    5.2887   -3.3739   45.5236 C   0  0  0  0  0  0  0  0  0  0  0  0
    6.2200   -2.3018   45.7364 C   0  0  0  0  0  0  0  0  0  0  0  0
    6.2353   -1.2618   44.8333 C   0  0  0  0  0  0  0  0  0  0  0  0
    4.5790   -2.1633   43.5761 C   0  0  0  0  0  0  0  0  0  0  0  0
    5.4560   -1.2048   43.7711 C   0  0  0  0  0  0  0  0  0  0  0  0
    5.4639    0.2025   42.7588 Cl  0  0  0  0  0  0  0  0  0  0  0  0
    1.5106   -5.1241   46.0753 C   0  0  0  0  0  0  0  0  0  0  0  0
    2.5973   -5.4095   46.1941 O   0  0  0  0  0  0  0  0  0  0  0  0
    0.4482   -5.8425   46.6615 N   0  0  0  0  0  0  0  0  0  0  0  0
    7.2794   -2.5039   46.7845 C   0  0  0  0  0  0  0  0  0  0  0  0
    8.6061   -2.0493   46.6560 C   0  0  0  0  0  0  0  0  0  0  0  0
    9.5752   -2.3284   47.5641 C   0  0  0  0  0  0  0  0  0  0  0  0
    9.2418   -3.0104   48.7691 C   0  0  0  0  0  0  0  0  0  0  0  0
    7.9270   -3.5428   48.8571 C   0  0  0  0  0  0  0  0  0  0  0  0
    6.9906   -3.3315   47.8788 C   0  0  0  0  0  0  0  0  0  0  0  0
   10.2243   -3.2326   49.8432 C   0  0  2  0  0  0  0  0  0  0  0  0
   10.0826   -2.6426   50.9808 C   0  0  0  0  0  0  0  0  0  0  0  0
    9.0993   -1.7581   51.2415 C   0  0  0  0  0  0  0  0  0  0  0  0
    8.9101   -1.1628   52.5721 C   0  0  0  0  0  0  0  0  0  0  0  0
    9.8574   -1.3543   53.5191 C   0  0  0  0  0  0  0  0  0  0  0  0
   10.8695   -2.2319   53.3955 C   0  0  0  0  0  0  0  0  0  0  0  0
   11.0014   -2.8551   52.1087 C   0  0  0  0  0  0  0  0  0  0  0  0
   11.4502   -3.0324   49.3603 F   0  0  0  0  0  0  0  0  0  0  0  0
   10.0321   -4.6694   50.1625 C   0  0  0  0  0  0  0  0  0  0  0  0
  1  2  1  0
  2  8  1  0
  4  9  1  0
  9 10  1  0
 15 16  1  0
  5 17  1  0
 17 18  2  0
 17 19  1  0
 12 20  1  0
 23 26  1  0
 26 27  1  0
 26 33  1  0
 26 34  1  1
 27 28  2  0
 28 29  1  0
 29 30  2  0
 30 31  1  0
 31 32  2  0
 32 27  1  0
 10 11  2  0
 11 12  1  0
 12 13  2  0
 13 15  1  0
 15 14  2  0
 14 10  1  0
 20 21  2  0
 21 22  1  0
 22 23  2  0
 23 24  1  0
 24 25  2  0
 25 20  1  0
  1  3  2  0
  3  4  1  0
  4  5  2  0
  5  6  1  0
  6  7  2  0
  7  1  1  0
M  END
$$$$
O14757_PocketFlow_idx-in-all-generaetd-973
     RDKit          3D

  6  5  0  0  0  0  0  0  0  0999 V2000
   -0.6395   -2.0713   41.4947 C   0  0  0  0  0  0  0  0  0  0  0  0
    0.1859   -1.1027   41.5970 C   0  0  0  0  0  0  0  0  0  0  0  0
    1.5858   -1.4430   41.9548 C   0  0  0  0  0  0  0  0  0  0  0  0
    1.8933   -1.7989   43.0657 C   0  0  0  0  0  0  0  0  0  0  0  0
    3.2900   -1.9767   43.4687 C   0  0  0  0  0  0  0  0  0  0  0  0
    3.7854   -3.0356   44.2381 C   0  0  0  0  0  0  0  0  0  0  0  0
  1  2  1  0
  2  3  1  0
  3  4  1  0
  4  5  1  0
  5  6  3  0
M  END
$$$$
O14757_PocketFlow_idx-in-all-generaetd-974
     RDKit          3D

 21 22  0  0  0  0  0  0  0  0999 V2000
    0.2881   -2.9111   42.4378 C   0  0  0  0  0  0  0  0  0  0  0  0
    1.3023   -2.0648   42.1981 C   0  0  0  0  0  0  0  0  0  0  0  0
    0.9971   -0.8647   41.5341 C   0  0  0  0  0  0  0  0  0  0  0  0
    0.5525   -4.0790   43.0426 O   0  0  0  0  0  0  0  0  0  0  0  0
    2.0307    0.0029   41.4147 N   0  0  0  0  0  0  0  0  0  0  0  0
   -0.8168   -2.8759   41.7921 O   0  0  0  0  0  0  0  0  0  0  0  0
    2.6174   -2.2389   42.7913 C   0  0  0  0  0  0  0  0  0  0  0  0
    3.5735   -1.2169   42.7323 C   0  0  0  0  0  0  0  0  0  0  0  0
    3.1918   -0.0175   42.0272 C   0  0  0  0  0  0  0  0  0  0  0  0
    4.8598   -1.2228   43.3596 C   0  0  0  0  0  0  0  0  0  0  0  0
    5.2401   -2.3917   44.0824 C   0  0  0  0  0  0  0  0  0  0  0  0
    6.4422   -2.3260   44.9026 C   0  0  0  0  0  0  0  0  0  0  0  0
    6.7978   -3.4359   45.7406 C   0  0  0  0  0  0  0  0  0  0  0  0
    5.9683   -3.7633   46.5132 C   0  0  0  0  0  0  0  0  0  0  0  0
    4.5158   -3.7750   46.1310 C   0  0  0  0  0  0  0  0  0  0  0  0
    4.2328   -2.8855   45.1039 C   0  0  0  0  0  0  0  0  0  0  0  0
    6.2227   -4.6875   47.7343 C   0  0  0  0  0  0  0  0  0  0  0  0
    6.8826   -3.9864   48.8007 C   0  0  0  0  0  0  0  0  0  0  0  0
    7.1484   -4.6960   50.0317 C   0  0  0  0  0  0  0  0  0  0  0  0
    8.1933   -5.5165   49.9604 C   0  0  0  0  0  0  0  0  0  0  0  0
    9.2914   -5.1913   50.5684 C   0  0  0  0  0  0  0  0  0  0  0  0
  1  2  1  0
  1  4  1  0
  1  6  2  0
  8 10  1  0
 14 17  1  0
 17 18  2  3
 18 19  1  0
 19 20  1  0
 20 21  1  0
 10 11  1  0
 11 12  2  0
 12 13  1  0
 13 14  2  0
 14 15  1  0
 15 16  2  0
 16 11  1  0
  2  3  2  0
  3  5  1  0
  5  9  2  0
  9  8  1  0
  8  7  2  0
  7  2  1  0
M  END
$$$$
O14757_PocketFlow_idx-in-all-generaetd-975
     RDKit          3D

 35 37  0  0  0  0  0  0  0  0999 V2000
    0.2881   -2.9111   42.4378 C   0  0  0  0  0  0  0  0  0  0  0  0
    1.1784   -3.4293   42.9321 C   0  0  0  0  0  0  0  0  0  0  0  0
    2.4507   -2.7243   42.9621 C   0  0  0  0  0  0  0  0  0  0  0  0
    2.5762   -1.5430   42.3314 C   0  0  0  0  0  0  0  0  0  0  0  0
    0.2682   -1.7017   41.6882 C   0  0  0  0  0  0  0  0  0  0  0  0
    1.4524   -1.0424   41.6523 C   0  0  0  0  0  0  0  0  0  0  0  0
    3.6353   -3.2132   43.7388 C   0  0  0  0  0  0  0  0  0  0  0  0
    4.6657   -2.4035   44.2235 C   0  0  0  0  0  0  0  0  0  0  0  0
    5.5685   -2.8802   45.1523 C   0  0  0  0  0  0  0  0  0  0  0  0
    5.4376   -4.1890   45.6508 C   0  0  0  0  0  0  0  0  0  0  0  0
    3.5736   -4.5082   44.4056 C   0  0  0  0  0  0  0  0  0  0  0  0
    4.4471   -4.9243   45.3185 C   0  0  0  0  0  0  0  0  0  0  0  0
   -1.1769   -1.0589   40.9995 Cl  0  0  0  0  0  0  0  0  0  0  0  0
    6.7480   -2.0160   45.5473 C   0  0  0  0  0  0  0  0  0  0  0  0
    7.2886   -2.2792   46.6302 F   0  0  0  0  0  0  0  0  0  0  0  0
    6.3028   -0.7409   45.5832 F   0  0  0  0  0  0  0  0  0  0  0  0
    7.6635   -1.9932   44.5652 F   0  0  0  0  0  0  0  0  0  0  0  0
    1.6006    0.1571   40.9977 O   0  0  0  0  0  0  0  0  0  0  0  0
    1.0953   -4.5680   43.6696 O   0  0  0  0  0  0  0  0  0  0  0  0
   -0.0644   -4.7760   44.4368 C   0  0  0  0  0  0  0  0  0  0  0  0
   -0.0720   -6.2330   44.8769 C   0  0  0  0  0  0  0  0  0  0  0  0
   -1.1519   -6.4925   45.7061 C   0  0  0  0  0  0  0  0  0  0  0  0
   -1.8231   -7.7451   45.2781 C   0  0  0  0  0  0  0  0  0  0  0  0
   -3.1293   -7.6134   44.8119 C   0  0  2  0  0  0  0  0  0  0  0  0
   -4.0980   -8.4000   45.5745 C   0  0  0  0  0  0  0  0  0  0  0  0
   -5.4181   -8.2466   45.0900 C   0  0  0  0  0  0  0  0  0  0  0  0
   -5.6446   -8.7609   43.7025 C   0  0  2  0  0  0  0  0  0  0  0  0
   -4.9104   -7.8699   42.8164 C   0  0  0  0  0  0  0  0  0  0  0  0
   -3.3283   -8.0601   43.2141 C   0  0  0  0  0  0  0  0  0  0  0  0
   -7.1135   -8.7369   43.3214 C   0  0  1  0  0  0  0  0  0  0  0  0
   -7.6421   -7.5626   43.2422 C   0  0  0  0  0  0  0  0  0  0  0  0
   -7.6367   -9.9134   42.8100 C   0  0  0  0  0  0  0  0  0  0  0  0
   -5.1856  -10.2386   43.7078 C   0  0  0  0  0  0  0  0  0  0  0  0
   -8.1200   -9.9724   41.5874 C   0  0  0  0  0  0  0  0  0  0  0  0
   -8.6215  -11.1627   41.0270 C   0  0  0  0  0  0  0  0  0  0  0  0
  3  7  1  0
  5 13  1  0
  9 14  1  0
 14 15  1  0
 14 16  1  0
 14 17  1  0
  6 18  1  0
  2 19  1  0
 19 20  1  0
 20 21  1  0
 21 22  1  0
 22 23  1  0
 24 23  1  1
 24 25  1  0
 25 26  1  0
 26 27  1  0
 27 28  1  0
 24 29  1  0
 28 29  1  0
 27 30  1  0
 30 31  1  6
 30 32  1  0
 27 33  1  1
 32 34  2  3
 34 35  1  0
  7  8  2  0
  8  9  1  0
  9 10  2  0
 10 12  1  0
 12 11  2  0
 11  7  1  0
  1  2  2  0
  2  3  1  0
  3  4  2  0
  4  6  1  0
  6  5  2  0
  5  1  1  0
M  END
$$$$
O14757_PocketFlow_idx-in-all-generaetd-976
     RDKit          3D

 29 33  0  0  0  0  0  0  0  0999 V2000
   -0.6395   -2.0713   41.4947 C   0  0  0  0  0  0  0  0  0  0  0  0
   -0.2671   -3.2464   41.6546 C   0  0  0  0  0  0  0  0  0  0  0  0
    0.2277   -0.9875   41.6495 C   0  0  0  0  0  0  0  0  0  0  0  0
    1.6284   -1.2752   41.8841 C   0  0  0  0  0  0  0  0  0  0  0  0
    1.8971   -2.6873   42.1685 C   0  0  0  0  0  0  0  0  0  0  0  0
    0.9380   -3.6379   42.0922 C   0  0  0  0  0  0  0  0  0  0  0  0
    2.5765   -0.2838   42.1328 C   0  0  0  0  0  0  0  0  0  0  0  0
    3.8925   -0.5890   42.5973 C   0  0  0  0  0  0  0  0  0  0  0  0
    4.1834   -1.7503   43.3382 C   0  0  0  0  0  0  0  0  0  0  0  0
    3.1042   -2.8678   43.0899 C   0  0  0  0  0  0  0  0  0  0  0  0
    5.3335   -2.0637   44.0000 C   0  0  0  0  0  0  0  0  0  0  0  0
    6.1917   -1.0706   44.3836 C   0  0  0  0  0  0  0  0  0  0  0  0
    7.3576   -1.3646   45.2462 C   0  0  0  0  0  0  0  0  0  0  0  0
    7.4816   -2.6203   45.8653 C   0  0  0  0  0  0  0  0  0  0  0  0
    6.3523   -3.5546   45.5766 C   0  0  0  0  0  0  0  0  0  0  0  0
    5.3186   -3.2703   44.7764 C   0  0  0  0  0  0  0  0  0  0  0  0
    8.5166   -2.9210   46.7504 C   0  0  0  0  0  0  0  0  0  0  0  0
    9.6963   -2.3626   46.7206 C   0  0  0  0  0  0  0  0  0  0  0  0
    8.3721   -4.0863   47.6173 C   0  0  0  0  0  0  0  0  0  0  0  0
    9.4221   -4.5464   48.3798 C   0  0  0  0  0  0  0  0  0  0  0  0
   10.7738   -2.6866   47.5563 C   0  0  0  0  0  0  0  0  0  0  0  0
    9.2197   -5.6572   49.2883 C   0  0  0  0  0  0  0  0  0  0  0  0
   10.5994   -3.7625   48.4147 C   0  0  0  0  0  0  0  0  0  0  0  0
    8.3272   -6.4674   49.1174 C   0  0  0  0  0  0  0  0  0  0  0  0
    7.6706   -6.4697   47.9749 C   0  0  0  0  0  0  0  0  0  0  0  0
    7.4645   -5.1455   47.3187 C   0  0  0  0  0  0  0  0  0  0  0  0
   -2.0085   -1.7027   40.9704 C   0  0  0  0  0  0  0  0  0  0  0  0
   -2.7887   -2.5590   40.5041 O   0  0  0  0  0  0  0  0  0  0  0  0
   -2.4647   -0.4923   41.1629 O   0  0  0  0  0  0  0  0  0  0  0  0
  9 11  1  0
 14 17  1  0
  1 27  1  0
 27 28  2  0
 27 29  1  0
 17 18  2  0
 18 21  1  0
 21 23  2  0
 23 20  1  0
 19 17  1  0
 19 20  2  0
 20 22  1  0
 22 24  2  0
 24 25  1  0
 25 26  2  0
 26 19  1  0
 11 12  2  0
 12 13  1  0
 13 14  2  0
 14 15  1  0
 15 16  2  0
 16 11  1  0
  5 10  1  0
 10  9  2  0
  9  8  1  0
  8  7  2  0
  7  4  1  0
  1  2  2  0
  2  6  1  0
  6  5  2  0
  5  4  1  0
  4  3  2  0
  3  1  1  0
M  END
$$$$
O14757_PocketFlow_idx-in-all-generaetd-977
     RDKit          3D

 35 39  0  0  0  0  0  0  0  0999 V2000
   -0.6395   -2.0713   41.4947 C   0  0  0  0  0  0  0  0  0  0  0  0
   -0.2671   -3.2464   41.6546 C   0  0  0  0  0  0  0  0  0  0  0  0
    0.2277   -0.9875   41.6495 C   0  0  0  0  0  0  0  0  0  0  0  0
    1.5674   -1.3182   41.7554 C   0  0  0  0  0  0  0  0  0  0  0  0
    1.9085   -2.6890   42.0909 C   0  0  0  0  0  0  0  0  0  0  0  0
    0.9467   -3.6547   41.9678 C   0  0  0  0  0  0  0  0  0  0  0  0
    2.5049   -0.3555   42.0238 N   0  0  0  0  0  0  0  0  0  0  0  0
    3.7705   -0.5809   42.5400 C   0  0  0  0  0  0  0  0  0  0  0  0
    4.1607   -1.7543   43.2372 C   0  0  0  0  0  0  0  0  0  0  0  0
    3.1045   -2.8645   43.0339 C   0  0  0  0  0  0  0  0  0  0  0  0
    4.8567    0.2412   42.7013 N   0  0  0  0  0  0  0  0  0  0  0  0
    5.2983   -1.9284   43.8775 C   0  0  0  0  0  0  0  0  0  0  0  0
    5.6602   -3.0077   44.7864 C   0  0  0  0  0  0  0  0  0  0  0  0
    6.0700   -0.7150   43.9245 C   0  0  0  0  0  0  0  0  0  0  0  0
    5.8246    0.3048   43.4085 N   0  0  0  0  0  0  0  0  0  0  0  0
   -2.0461   -1.7129   41.0198 C   0  0  0  0  0  0  0  0  0  0  0  0
   -2.6460   -0.5448   41.2808 N   0  0  0  0  0  0  0  0  0  0  0  0
   -2.8044   -2.5889   40.4214 N   0  0  0  0  0  0  0  0  0  0  0  0
   -3.7937   -0.1372   40.7802 C   0  0  0  0  0  0  0  0  0  0  0  0
   -4.0082   -2.3490   40.0087 C   0  0  0  0  0  0  0  0  0  0  0  0
   -4.5458   -1.1065   40.1537 N   0  0  0  0  0  0  0  0  0  0  0  0
    6.5730   -2.9233   45.8093 C   0  0  0  0  0  0  0  0  0  0  0  0
    6.8622   -4.0599   46.5637 C   0  0  0  0  0  0  0  0  0  0  0  0
    6.4057   -4.1746   47.7144 C   0  0  0  0  0  0  0  0  0  0  0  0
    6.4302   -5.0529   48.7030 C   0  0  0  0  0  0  0  0  0  0  0  0
    5.6532   -4.9390   49.8576 N   0  0  0  0  0  0  0  0  0  0  0  0
    7.1768   -6.0602   48.5256 F   0  0  0  0  0  0  0  0  0  0  0  0
   -4.1950    1.0710   41.0373 N   0  0  0  0  0  0  0  0  0  0  0  0
    7.2362   -0.7949   44.7598 N   0  0  0  0  0  0  0  0  0  0  0  0
    7.5266   -1.7679   45.6496 C   0  0  0  0  0  0  0  0  0  0  0  0
    8.6501   -1.6840   46.3746 N   0  0  0  0  0  0  0  0  0  0  0  0
    9.7282   -2.1579   46.3740 C   0  0  0  0  0  0  0  0  0  0  0  0
   10.3606   -3.0639   46.7472 C   0  0  0  0  0  0  0  0  0  0  0  0
    9.7240   -4.0514   47.6755 C   0  0  0  0  0  0  0  0  0  0  0  0
   10.4056   -4.7211   48.4208 C   0  0  0  0  0  0  0  0  0  0  0  0
  1 16  1  0
 22 23  1  0
 23 24  2  3
 24 25  1  0
 25 26  2  3
 25 27  1  0
 19 28  1  0
 30 31  1  0
 31 32  1  0
 32 33  2  3
 33 34  1  0
 34 35  2  0
 16 17  2  0
 17 19  1  0
 19 21  2  0
 21 20  1  0
 20 18  2  0
 18 16  1  0
  5 10  1  0
 10  9  2  0
  8  7  2  0
  7  4  1  0
  1  2  2  0
  2  6  1  0
  6  5  2  0
  5  4  1  0
  4  3  2  0
  3  1  1  0
  8  9  1  0
  9 12  1  0
 14 15  1  0
 15 11  2  0
 11  8  1  0
 12 13  2  0
 13 22  1  0
 22 30  2  0
 30 29  1  0
 29 14  2  0
 14 12  1  0
M  END
$$$$
O14757_PocketFlow_idx-in-all-generaetd-978
     RDKit          3D

 14 15  0  0  0  0  0  0  0  0999 V2000
   -0.6395   -2.0713   41.4947 C   0  0  0  0  0  0  0  0  0  0  0  0
    0.1859   -1.1027   41.5970 C   0  0  0  0  0  0  0  0  0  0  0  0
    1.5836   -1.3270   41.4670 C   0  0  0  0  0  0  0  0  0  0  0  0
   -0.2462   -3.3905   41.2409 C   0  0  0  0  0  0  0  0  0  0  0  0
    2.3477   -1.2946   42.4061 C   0  0  0  0  0  0  0  0  0  0  0  0
    3.4036   -0.3247   42.5566 C   0  0  0  0  0  0  0  0  0  0  0  0
    4.4628   -0.4485   43.5241 C   0  0  0  0  0  0  0  0  0  0  0  0
    4.6535   -1.5766   44.2764 C   0  0  0  0  0  0  0  0  0  0  0  0
    3.7179   -2.6442   44.0518 C   0  0  0  0  0  0  0  0  0  0  0  0
    2.6274   -2.5000   43.1526 C   0  0  0  0  0  0  0  0  0  0  0  0
    5.7746   -1.7488   45.1547 C   0  0  0  0  0  0  0  0  0  0  0  0
    5.9866   -2.9740   45.8918 C   0  0  0  0  0  0  0  0  0  0  0  0
    5.0392   -4.0122   45.6995 C   0  0  0  0  0  0  0  0  0  0  0  0
    3.9113   -3.8906   44.8209 C   0  0  0  0  0  0  0  0  0  0  0  0
  1  2  1  0
  2  3  2  3
  1  4  1  0
  3  5  1  0
  9 14  1  0
 14 13  2  0
 13 12  1  0
 12 11  2  0
 11  8  1  0
  5  6  2  0
  6  7  1  0
  7  8  2  0
  8  9  1  0
  9 10  2  0
 10  5  1  0
M  END
$$$$
O14757_PocketFlow_idx-in-all-generaetd-979
     RDKit          3D

 29 31  0  0  0  0  0  0  0  0999 V2000
    0.2881   -2.9111   42.4378 C   0  0  0  0  0  0  0  0  0  0  0  0
    1.1784   -3.4293   42.9321 C   0  0  0  0  0  0  0  0  0  0  0  0
    2.4507   -2.7243   42.9621 C   0  0  0  0  0  0  0  0  0  0  0  0
    3.6020   -3.2282   43.7398 C   0  0  0  0  0  0  0  0  0  0  0  0
    3.4876   -4.4021   44.5035 C   0  0  0  0  0  0  0  0  0  0  0  0
    4.5384   -4.8856   45.3001 C   0  0  0  0  0  0  0  0  0  0  0  0
    0.4394   -1.7886   41.5438 C   0  0  0  0  0  0  0  0  0  0  0  0
    1.5999   -1.0543   41.5879 C   0  0  0  0  0  0  0  0  0  0  0  0
    2.6364   -1.5898   42.3089 C   0  0  0  0  0  0  0  0  0  0  0  0
    5.5442   -4.0010   45.6466 C   0  0  0  0  0  0  0  0  0  0  0  0
    5.6237   -2.6732   45.0570 C   0  0  0  0  0  0  0  0  0  0  0  0
    4.6109   -2.2725   44.1429 C   0  0  0  0  0  0  0  0  0  0  0  0
    6.9652   -1.6420   45.3752 Cl  0  0  0  0  0  0  0  0  0  0  0  0
    1.7453    0.0116   40.8781 F   0  0  0  0  0  0  0  0  0  0  0  0
   -0.7283   -1.2684   40.9720 O   0  0  0  0  0  0  0  0  0  0  0  0
   -1.9096   -1.9859   41.1885 C   0  0  0  0  0  0  0  0  0  0  0  0
   -2.9577   -1.5248   40.2133 C   0  0  0  0  0  0  0  0  0  0  0  0
   -4.0931   -2.4983   39.5964 Cl  0  0  0  0  0  0  0  0  0  0  0  0
    4.9464   -0.7219   43.4353 Cl  0  0  0  0  0  0  0  0  0  0  0  0
    6.5750   -4.2945   46.5178 O   0  0  0  0  0  0  0  0  0  0  0  0
    6.3122   -4.4317   47.7941 C   0  0  0  0  0  0  0  0  0  0  0  0
    7.3468   -4.2026   48.6826 C   0  0  0  0  0  0  0  0  0  0  0  0
    7.9279   -5.0222   49.2429 C   0  0  0  0  0  0  0  0  0  0  0  0
    8.9323   -5.1991   49.1367 C   0  0  0  0  0  0  0  0  0  0  0  0
    9.5720   -6.4647   49.4979 C   0  0  0  0  0  0  0  0  0  0  0  0
    8.8568   -7.3355   50.2569 C   0  0  0  0  0  0  0  0  0  0  0  0
    7.5282   -7.1149   50.4992 C   0  0  0  0  0  0  0  0  0  0  0  0
    6.9905   -5.9666   49.8921 C   0  0  0  0  0  0  0  0  0  0  0  0
    5.6423   -5.8175   49.9670 O   0  0  0  0  0  0  0  0  0  0  0  0
  3  4  1  0
 11 13  1  0
  8 14  1  0
  7 15  1  0
 15 16  1  0
 16 17  1  0
 17 18  1  0
 12 19  1  0
 10 20  1  0
 20 21  1  0
 21 22  1  0
 22 23  1  0
 28 29  1  0
  4  5  2  0
  5  6  1  0
  6 10  2  0
 10 11  1  0
 11 12  2  0
 12  4  1  0
 23 24  2  0
 24 25  1  0
 25 26  2  0
 26 27  1  0
 27 28  2  0
 28 23  1  0
  1  2  2  0
  2  3  1  0
  3  9  2  0
  9  8  1  0
  8  7  2  0
  7  1  1  0
M  END
$$$$
O14757_PocketFlow_idx-in-all-generaetd-980
     RDKit          3D

 35 40  0  0  0  0  0  0  0  0999 V2000
   -0.6395   -2.0713   41.4947 C   0  0  0  0  0  0  0  0  0  0  0  0
   -0.2671   -3.2464   41.6546 C   0  0  0  0  0  0  0  0  0  0  0  0
    0.2407   -0.9706   41.5952 C   0  0  0  0  0  0  0  0  0  0  0  0
    1.6195   -1.2958   41.8767 C   0  0  0  0  0  0  0  0  0  0  0  0
    1.9162   -2.6816   42.2016 C   0  0  0  0  0  0  0  0  0  0  0  0
    0.9422   -3.6324   42.1156 C   0  0  0  0  0  0  0  0  0  0  0  0
    2.6088   -0.2775   42.1300 C   0  0  0  0  0  0  0  0  0  0  0  0
    3.9059   -0.5876   42.5995 C   0  0  0  0  0  0  0  0  0  0  0  0
    4.1036   -1.8148   43.2659 C   0  0  0  0  0  0  0  0  0  0  0  0
    5.2154   -2.1376   44.0733 C   0  0  0  0  0  0  0  0  0  0  0  0
    6.1460   -1.0427   44.2124 C   0  0  0  0  0  0  0  0  0  0  0  0
    3.1833   -2.8395   42.9330 C   0  0  0  0  0  0  0  0  0  0  0  0
    7.2460   -1.3473   45.1107 C   0  0  0  0  0  0  0  0  0  0  0  0
    7.3931   -2.5310   45.8216 C   0  0  0  0  0  0  0  0  0  0  0  0
    8.4383   -2.8596   46.6547 C   0  0  0  0  0  0  0  0  0  0  0  0
    9.4813   -1.9109   46.7529 C   0  0  0  0  0  0  0  0  0  0  0  0
    9.3312   -0.6642   46.0484 C   0  0  0  0  0  0  0  0  0  0  0  0
    8.2923   -0.4261   45.3326 C   0  0  0  0  0  0  0  0  0  0  0  0
   -2.0222   -1.7078   41.0008 C   0  0  0  0  0  0  0  0  0  0  0  0
   -2.6477   -0.5478   41.2695 N   0  0  0  0  0  0  0  0  0  0  0  0
   -2.7821   -2.5984   40.4119 N   0  0  0  0  0  0  0  0  0  0  0  0
   -3.8761   -0.5805   40.6985 C   0  0  0  0  0  0  0  0  0  0  0  0
   -3.9671   -1.8403   40.1674 N   0  0  0  0  0  0  0  0  0  0  0  0
    8.5051   -4.1702   47.2746 C   0  0  0  0  0  0  0  0  0  0  0  0
    9.7109   -4.8026   47.3663 C   0  0  0  0  0  0  0  0  0  0  0  0
    9.7901   -6.1442   47.9184 C   0  0  0  0  0  0  0  0  0  0  0  0
    8.5911   -6.6761   48.4216 C   0  0  0  0  0  0  0  0  0  0  0  0
    7.4267   -5.9704   48.4411 C   0  0  0  0  0  0  0  0  0  0  0  0
    7.3597   -4.6669   47.8665 C   0  0  0  0  0  0  0  0  0  0  0  0
    6.1830   -6.5465   49.0572 C   0  0  0  0  0  0  0  0  0  0  0  0
    5.5322   -7.4198   48.6017 O   0  0  0  0  0  0  0  0  0  0  0  0
    5.6700   -5.9089   50.1425 O   0  0  0  0  0  0  0  0  0  0  0  0
    4.8414    0.5104   42.8225 C   0  0  0  0  0  0  0  0  0  0  0  0
    5.8838    0.1956   43.6437 C   0  0  0  0  0  0  0  0  0  0  0  0
   11.0517   -6.8528   47.8541 C   0  0  0  0  0  0  0  0  0  0  0  0
  1 19  1  0
 19 20  2  0
 19 21  1  0
 20 22  1  0
 21 23  1  0
 22 23  2  0
 15 24  1  0
 28 30  1  0
 30 31  2  0
 30 32  1  0
 26 35  1  0
 13 11  1  0
 24 25  2  0
 25 26  1  0
 26 27  2  0
 27 28  1  0
 28 29  2  0
 29 24  1  0
  5 12  1  0
 12  9  2  0
  8  7  2  0
  7  4  1  0
  1  2  2  0
  2  6  1  0
  6  5  2  0
  5  4  1  0
  4  3  2  0
  3  1  1  0
  8  9  1  0
  9 10  1  0
 10 11  2  0
 11 34  1  0
 34 33  2  0
 33  8  1  0
 13 14  2  0
 14 15  1  0
 15 16  2  0
 16 17  1  0
 17 18  2  0
 18 13  1  0
M  END
$$$$
O14757_PocketFlow_idx-in-all-generaetd-981
     RDKit          3D

 35 37  0  0  0  0  0  0  0  0999 V2000
   -0.6702   -2.0741   41.4972 P   0  0  0  0  0  0  0  0  0  0  0  0
    0.0312   -1.0383   41.3204 O   0  0  0  0  0  0  0  0  0  0  0  0
   -0.0902   -3.2976   41.0394 O   0  0  0  0  0  0  0  0  0  0  0  0
   -1.0626   -2.2861   42.9181 O   0  0  0  0  0  0  0  0  0  0  0  0
   -2.1193   -1.9847   40.8165 O   0  0  0  0  0  0  0  0  0  0  0  0
    1.4173   -0.9871   41.4955 C   0  0  0  0  0  0  0  0  0  0  0  0
    2.0102    0.2862   41.8376 C   0  0  0  0  0  0  0  0  0  0  0  0
    3.4133    0.2291   42.2155 C   0  0  0  0  0  0  0  0  0  0  0  0
    4.0889   -0.9136   42.6910 C   0  0  0  0  0  0  0  0  0  0  0  0
    5.3902   -0.7914   43.1931 C   0  0  0  0  0  0  0  0  0  0  0  0
    5.8684   -1.8756   43.9130 C   0  0  0  0  0  0  0  0  0  0  0  0
    5.0468   -2.9814   44.2042 C   0  0  0  0  0  0  0  0  0  0  0  0
    3.7547   -3.0267   43.7234 C   0  0  0  0  0  0  0  0  0  0  0  0
    3.2365   -1.9379   43.0785 C   0  0  0  0  0  0  0  0  0  0  0  0
    2.9116   -4.1928   44.0500 C   0  0  0  0  0  0  0  0  0  0  0  0
    2.5679   -4.5590   45.3244 C   0  0  0  0  0  0  0  0  0  0  0  0
    1.5732   -5.5326   45.6089 C   0  0  2  0  0  0  0  0  0  0  0  0
    0.2705   -5.0567   45.8712 C   0  0  0  0  0  0  0  0  0  0  0  0
   -0.7278   -5.9643   46.1597 N   0  0  0  0  0  0  0  0  0  0  0  0
   -0.4810   -7.0758   46.7898 C   0  0  0  0  0  0  0  0  0  0  0  0
    0.4661   -7.8775   46.0591 C   0  0  1  0  0  0  0  0  0  0  0  0
    1.7693   -6.9619   45.8667 C   0  0  1  0  0  0  0  0  0  0  0  0
    0.0178   -3.7972   45.7356 O   0  0  0  0  0  0  0  0  0  0  0  0
    0.8906   -9.0655   46.6984 O   0  0  0  0  0  0  0  0  0  0  0  0
    2.1663   -9.2361   46.7488 C   0  0  0  0  0  0  0  0  0  0  0  0
    2.7026  -10.2155   47.7060 C   0  0  0  0  0  0  0  0  0  0  0  0
    4.1094  -10.3787   47.7841 C   0  0  0  0  0  0  0  0  0  0  0  0
    4.9685   -9.3209   47.3319 C   0  0  0  0  0  0  0  0  0  0  0  0
    4.3595   -8.2211   46.7143 C   0  0  0  0  0  0  0  0  0  0  0  0
    3.0340   -8.0191   46.8737 C   0  0  0  0  0  0  0  0  0  0  0  0
    2.3066   -7.3017   44.4632 O   0  0  0  0  0  0  0  0  0  0  0  0
    2.8508   -7.3893   48.0735 O   0  0  0  0  0  0  0  0  0  0  0  0
    6.4291   -9.4691   47.3761 C   0  0  0  0  0  0  0  0  0  0  0  0
    6.9170  -10.2155   46.6035 F   0  0  0  0  0  0  0  0  0  0  0  0
    6.9987   -8.2033   47.2718 F   0  0  0  0  0  0  0  0  0  0  0  0
  1  2  1  0
  1  3  1  0
  1  4  1  0
  1  5  2  0
  2  6  1  0
  6  7  2  3
  7  8  1  0
 13 15  1  0
 15 16  2  3
 17 16  1  1
 17 18  1  0
 18 19  1  0
 19 20  1  0
 20 21  1  0
 17 22  1  0
 21 22  1  0
 18 23  2  0
 21 24  1  1
 24 25  1  0
 22 31  1  6
 30 32  1  0
 28 33  1  0
 33 34  1  0
 33 35  1  0
  8  9  1  0
 25 26  2  0
 26 27  1  0
 27 28  2  0
 28 29  1  0
 29 30  2  0
 30 25  1  0
  9 10  2  0
 10 11  1  0
 11 12  2  0
 12 13  1  0
 13 14  2  0
 14  9  1  0
M  END
$$$$
O14757_PocketFlow_idx-in-all-generaetd-982
     RDKit          3D

 25 27  0  0  0  0  0  0  0  0999 V2000
   -0.6395   -2.0713   41.4947 C   0  0  0  0  0  0  0  0  0  0  0  0
    0.1859   -1.1027   41.5970 C   0  0  0  0  0  0  0  0  0  0  0  0
   -0.2410   -3.3795   41.5297 C   0  0  0  0  0  0  0  0  0  0  0  0
    1.6125   -1.3641   41.8466 C   0  0  0  0  0  0  0  0  0  0  0  0
    1.9568   -2.7213   42.1561 C   0  0  0  0  0  0  0  0  0  0  0  0
    0.9568   -3.6932   42.0424 C   0  0  0  0  0  0  0  0  0  0  0  0
    2.5419   -0.3107   42.1030 C   0  0  0  0  0  0  0  0  0  0  0  0
    3.8498   -0.5462   42.5716 C   0  0  0  0  0  0  0  0  0  0  0  0
    4.4635   -0.3144   43.4811 C   0  0  0  0  0  0  0  0  0  0  0  0
    5.8299   -0.8034   43.8778 C   0  0  0  0  0  0  0  0  0  0  0  0
    5.9981   -1.8136   44.8596 C   0  0  0  0  0  0  0  0  0  0  0  0
    7.1917   -1.9913   45.5597 C   0  0  0  0  0  0  0  0  0  0  0  0
    7.3512   -3.1043   46.3798 C   0  0  0  0  0  0  0  0  0  0  0  0
    6.1837   -3.8320   46.6931 C   0  0  0  0  0  0  0  0  0  0  0  0
    5.0232   -2.7454   45.2519 C   0  0  0  0  0  0  0  0  0  0  0  0
    5.0583   -3.6438   46.0800 C   0  0  0  0  0  0  0  0  0  0  0  0
   -2.0782   -1.8266   41.0694 C   0  0  0  0  0  0  0  0  0  0  0  0
   -2.5976   -0.7069   41.3952 O   0  0  0  0  0  0  0  0  0  0  0  0
   -2.7344   -2.6763   40.4969 F   0  0  0  0  0  0  0  0  0  0  0  0
    8.6630   -3.2920   47.0082 C   0  0  0  0  0  0  0  0  0  0  0  0
    9.1181   -4.5516   47.2497 C   0  0  0  0  0  0  0  0  0  0  0  0
   10.4363   -4.7926   47.7059 C   0  0  0  0  0  0  0  0  0  0  0  0
    9.5113   -2.2684   47.3092 C   0  0  0  0  0  0  0  0  0  0  0  0
   10.7845   -2.3905   47.8402 C   0  0  0  0  0  0  0  0  0  0  0  0
   11.2459   -3.6879   48.0717 C   0  0  0  0  0  0  0  0  0  0  0  0
  4  7  1  0
  7  8  2  3
  8  9  1  0
  9 10  2  3
 10 11  1  0
  1 17  1  0
 17 18  2  0
 17 19  1  0
 13 20  1  0
  1  2  2  0
  2  4  1  0
  4  5  2  0
  5  6  1  0
  6  3  2  0
  3  1  1  0
 20 21  2  0
 21 22  1  0
 22 25  2  0
 25 24  1  0
 24 23  2  0
 23 20  1  0
 11 12  2  0
 12 13  1  0
 13 14  2  0
 14 16  1  0
 16 15  2  0
 15 11  1  0
M  END
$$$$
O14757_PocketFlow_idx-in-all-generaetd-983
     RDKit          3D

 13 15  0  0  0  0  0  0  0  0999 V2000
    0.2881   -2.9111   42.4378 C   0  0  0  0  0  0  0  0  0  0  0  0
    1.1784   -3.4293   42.9321 C   0  0  0  0  0  0  0  0  0  0  0  0
    1.1643   -4.3749   43.9960 C   0  0  0  0  0  0  0  0  0  0  0  0
    1.8790   -4.1402   45.1620 C   0  0  0  0  0  0  0  0  0  0  0  0
    0.4442   -1.7764   41.5237 C   0  0  0  0  0  0  0  0  0  0  0  0
    1.6259   -1.0049   41.6681 C   0  0  0  0  0  0  0  0  0  0  0  0
    2.5998   -1.4209   42.5615 C   0  0  0  0  0  0  0  0  0  0  0  0
    2.4400   -2.6031   43.3338 C   0  0  0  0  0  0  0  0  0  0  0  0
    3.0527   -3.2390   44.6221 C   0  0  1  0  0  0  0  0  0  0  0  0
    3.8946   -0.7211   42.7850 C   0  0  0  0  0  0  0  0  0  0  0  0
    4.9854   -1.3569   43.4058 C   0  0  0  0  0  0  0  0  0  0  0  0
    4.9151   -1.6508   44.6461 C   0  0  0  0  0  0  0  0  0  0  0  0
    4.1912   -2.8804   45.2396 C   0  0  0  0  0  0  0  0  0  0  0  0
  2  3  1  0
  3  4  1  0
  9  4  1  1
  8  9  1  0
  7 10  1  0
 10 11  2  0
 11 12  1  0
  9 13  1  0
 12 13  2  0
  1  2  2  0
  2  8  1  0
  8  7  2  0
  7  6  1  0
  6  5  2  0
  5  1  1  0
M  END
$$$$
O14757_PocketFlow_idx-in-all-generaetd-984
     RDKit          3D

 12 12  0  0  0  0  0  0  0  0999 V2000
   -0.6395   -2.0713   41.4947 C   0  0  0  0  0  0  0  0  0  0  0  0
    0.1859   -1.1027   41.5970 C   0  0  0  0  0  0  0  0  0  0  0  0
    1.5836   -1.3270   41.4670 C   0  0  0  0  0  0  0  0  0  0  0  0
   -0.2462   -3.3905   41.2409 C   0  0  0  0  0  0  0  0  0  0  0  0
    2.0075   -2.6977   41.3341 C   0  0  0  0  0  0  0  0  0  0  0  0
    1.0655   -3.6470   41.1373 C   0  0  0  0  0  0  0  0  0  0  0  0
    2.7336   -0.1041   41.7707 Cl  0  0  0  0  0  0  0  0  0  0  0  0
   -2.0149   -1.8254   41.5956 O   0  0  0  0  0  0  0  0  0  0  0  0
   -2.5048   -0.7412   40.9671 C   0  0  0  0  0  0  0  0  0  0  0  0
   -3.9086   -0.7599   40.6806 C   0  0  0  0  0  0  0  0  0  0  0  0
   -4.4059    0.3390   40.3605 O   0  0  0  0  0  0  0  0  0  0  0  0
   -4.3802   -1.8586   40.2501 O   0  0  0  0  0  0  0  0  0  0  0  0
  3  7  1  0
  1  8  1  0
  8  9  1  0
  9 10  1  0
 10 11  2  0
 10 12  1  0
  1  2  2  0
  2  3  1  0
  3  5  2  0
  5  6  1  0
  6  4  2  0
  4  1  1  0
M  END
$$$$
O14757_PocketFlow_idx-in-all-generaetd-985
     RDKit          3D

 17 18  0  0  0  0  0  0  0  0999 V2000
   -0.6395   -2.0713   41.4947 C   0  0  0  0  0  0  0  0  0  0  0  0
    0.6719   -2.2449   41.7518 C   0  0  0  0  0  0  0  0  0  0  0  0
    1.1287   -3.3339   42.4778 C   0  0  0  0  0  0  0  0  0  0  0  0
    2.2706   -3.1945   43.3374 C   0  0  0  0  0  0  0  0  0  0  0  0
    3.1816   -2.2032   43.1295 C   0  0  0  0  0  0  0  0  0  0  0  0
    4.3779   -2.1495   43.9002 C   0  0  0  0  0  0  0  0  0  0  0  0
    5.2633   -1.0438   43.7669 C   0  0  0  0  0  0  0  0  0  0  0  0
    4.8822   -0.0258   42.9191 C   0  0  0  0  0  0  0  0  0  0  0  0
    3.6037    0.0089   42.3437 C   0  0  0  0  0  0  0  0  0  0  0  0
    2.8071   -1.0507   42.4616 C   0  0  0  0  0  0  0  0  0  0  0  0
    1.4657   -1.0369   41.7257 C   0  0  0  0  0  0  0  0  0  0  0  0
   -1.3007   -0.9354   41.4607 N   0  0  0  0  0  0  0  0  0  0  0  0
    4.8432   -3.2835   44.7390 C   0  0  0  0  0  0  0  0  0  0  0  0
    5.8575   -3.1408   45.6845 C   0  0  0  0  0  0  0  0  0  0  0  0
    6.9595   -2.5931   45.4014 C   0  0  0  0  0  0  0  0  0  0  0  0
    8.0485   -2.7042   46.4163 C   0  0  0  0  0  0  0  0  0  0  0  0
    9.3235   -2.0635   46.3142 C   0  0  0  0  0  0  0  0  0  0  0  0
  1  2  1  0
  1 12  1  0
  6 13  1  0
 13 14  1  0
 14 15  2  3
 15 16  1  0
 16 17  1  0
  2  3  2  0
  3  4  1  0
  4  5  2  0
 10 11  2  0
 11  2  1  0
  5  6  1  0
  6  7  2  0
  7  8  1  0
  8  9  2  0
  9 10  1  0
 10  5  1  0
M  END
$$$$
O14757_PocketFlow_idx-in-all-generaetd-986
     RDKit          3D

 35 38  0  0  0  0  0  0  0  0999 V2000
   -0.6395   -2.0713   41.4947 C   0  0  0  0  0  0  0  0  0  0  0  0
   -0.2671   -3.2464   41.6546 C   0  0  0  0  0  0  0  0  0  0  0  0
   -2.0053   -1.6706   41.3987 C   0  0  0  0  0  0  0  0  0  0  0  0
   -2.2928   -0.3176   41.3208 C   0  0  0  0  0  0  0  0  0  0  0  0
   -3.5679   -0.0116   41.1750 N   0  0  0  0  0  0  0  0  0  0  0  0
    0.4132   -1.0390   41.4557 C   0  0  0  0  0  0  0  0  0  0  0  0
    1.7546   -1.3379   41.5356 C   0  0  0  0  0  0  0  0  0  0  0  0
    2.1411   -2.4177   42.3929 C   0  0  0  0  0  0  0  0  0  0  0  0
    1.0752   -3.4785   42.4697 C   0  0  0  0  0  0  0  0  0  0  0  0
    3.2854   -2.5522   43.0594 C   0  0  0  0  0  0  0  0  0  0  0  0
    4.1585   -1.4732   43.3144 C   0  0  0  0  0  0  0  0  0  0  0  0
    5.2518   -1.4866   44.2005 C   0  0  0  0  0  0  0  0  0  0  0  0
    5.4105   -2.6666   44.9851 C   0  0  0  0  0  0  0  0  0  0  0  0
    4.5516   -3.7619   44.7823 C   0  0  0  0  0  0  0  0  0  0  0  0
    3.5043   -3.6771   43.9328 C   0  0  0  0  0  0  0  0  0  0  0  0
    6.6251   -2.7263   45.8470 C   0  0  0  0  0  0  0  0  0  0  0  0
    6.8017   -3.8599   46.6785 C   0  0  0  0  0  0  0  0  0  0  0  0
    7.9677   -3.7913   47.5122 C   0  0  0  0  0  0  0  0  0  0  0  0
    8.9459   -2.8460   47.3609 C   0  0  0  0  0  0  0  0  0  0  0  0
    7.6236   -1.7320   45.7995 C   0  0  0  0  0  0  0  0  0  0  0  0
    8.7550   -1.7917   46.4846 C   0  0  0  0  0  0  0  0  0  0  0  0
    8.1719   -4.9944   48.4184 C   0  0  0  0  0  0  0  0  0  0  0  0
    9.0528   -5.4321   48.7212 C   0  0  0  0  0  0  0  0  0  0  0  0
    9.1395   -6.5214   49.7132 C   0  0  0  0  0  0  0  0  0  0  0  0
    7.9522   -7.0878   50.1135 C   0  0  0  0  0  0  0  0  0  0  0  0
    6.7371   -6.5728   49.5998 C   0  0  0  0  0  0  0  0  0  0  0  0
    6.7530   -5.4487   48.7391 C   0  0  0  0  0  0  0  0  0  0  0  0
    9.6784   -0.8074   46.4128 O   0  0  0  0  0  0  0  0  0  0  0  0
    3.9874    0.0372   42.4304 Cl  0  0  0  0  0  0  0  0  0  0  0  0
    5.4489   -7.1417   50.0966 C   0  0  0  0  0  0  0  0  0  0  0  0
    4.7231   -7.3783   49.2290 O   0  0  0  0  0  0  0  0  0  0  0  0
    4.5374   -8.7901   48.8936 C   0  0  0  0  0  0  0  0  0  0  0  0
    5.4790   -9.1201   47.7970 C   0  0  0  0  0  0  0  0  0  0  0  0
    6.6988   -8.9057   47.9046 C   0  0  0  0  0  0  0  0  0  0  0  0
    7.6473  -10.0026   47.6179 C   0  0  0  0  0  0  0  0  0  0  0  0
  1  2  1  0
  1  3  2  3
  3  4  1  0
  4  5  1  0
  1  6  1  0
  6  7  1  0
  7  8  1  0
  2  9  1  0
  8  9  1  0
  8 10  1  0
 13 16  1  0
 18 22  1  0
 21 28  1  0
 11 29  1  0
 26 30  1  0
 30 31  1  0
 31 32  1  0
 32 33  1  0
 33 34  1  0
 34 35  2  0
 22 23  2  0
 23 24  1  0
 24 25  2  0
 25 26  1  0
 26 27  2  0
 27 22  1  0
 10 11  2  0
 11 12  1  0
 12 13  2  0
 13 14  1  0
 14 15  2  0
 15 10  1  0
 16 17  2  0
 17 18  1  0
 18 19  2  0
 19 21  1  0
 21 20  2  0
 20 16  1  0
M  END
$$$$
O14757_PocketFlow_idx-in-all-generaetd-987
     RDKit          3D

 34 37  0  0  0  0  0  0  0  0999 V2000
    0.2881   -2.9111   42.4378 C   0  0  0  0  0  0  0  0  0  0  0  0
    1.1784   -3.4293   42.9321 C   0  0  2  0  0  0  0  0  0  0  0  0
    1.2340   -4.4107   43.9123 C   0  0  0  0  0  0  0  0  0  0  0  0
    2.2208   -4.4317   44.9351 C   0  0  2  0  0  0  0  0  0  0  0  0
    3.3567   -3.5729   44.7214 C   0  0  0  0  0  0  0  0  0  0  0  0
    4.5148   -3.6547   45.6235 C   0  0  0  0  0  0  0  0  0  0  0  0
    5.5558   -2.7333   45.4174 C   0  0  0  0  0  0  0  0  0  0  0  0
    5.4247   -1.8439   44.3454 C   0  0  0  0  0  0  0  0  0  0  0  0
    4.3856   -1.8807   43.4609 C   0  0  0  0  0  0  0  0  0  0  0  0
    3.3671   -2.6771   43.7025 C   0  0  0  0  0  0  0  0  0  0  0  0
    2.3363   -2.5617   42.9558 C   0  0  0  0  0  0  0  0  0  0  0  0
   -0.8808   -3.5166   42.0216 N   0  0  0  0  0  0  0  0  0  0  0  0
    0.0733   -1.5352   42.2011 N   0  0  0  0  0  0  0  0  0  0  0  0
    6.9270   -2.8843   45.8809 C   0  0  0  0  0  0  0  0  0  0  0  0
    7.8248   -1.8195   46.0063 C   0  0  0  0  0  0  0  0  0  0  0  0
    9.0417   -1.9077   46.6871 C   0  0  0  0  0  0  0  0  0  0  0  0
    9.4342   -3.0687   47.2958 C   0  0  0  0  0  0  0  0  0  0  0  0
    8.4680   -4.1903   47.1826 C   0  0  0  0  0  0  0  0  0  0  0  0
    7.3016   -4.0367   46.6543 C   0  0  0  0  0  0  0  0  0  0  0  0
    4.3931   -0.8597   42.3925 C   0  0  0  0  0  0  0  0  0  0  0  0
    5.2130    0.3327   42.6846 C   0  0  0  0  0  0  0  0  0  0  0  0
   -0.5279   -0.9624   41.1357 C   0  0  0  0  0  0  0  0  0  0  0  0
   -1.6806   -2.9937   41.0393 C   0  0  0  0  0  0  0  0  0  0  0  0
   -1.6462   -1.6367   40.9340 N   0  0  0  0  0  0  0  0  0  0  0  0
    2.1132   -5.4204   46.0251 C   0  0  0  0  0  0  0  0  0  0  0  0
    2.7265   -6.4915   45.6633 N   0  0  0  0  0  0  0  0  0  0  0  0
    2.1452   -7.7299   45.7071 C   0  0  0  0  0  0  0  0  0  0  0  0
    0.9466   -7.8692   45.7214 N   0  0  0  0  0  0  0  0  0  0  0  0
    0.1355   -7.0221   45.0532 C   0  0  0  0  0  0  0  0  0  0  0  0
   -1.2834   -7.4469   44.8514 C   0  0  0  0  0  0  0  0  0  0  0  0
   -2.1494   -7.5494   45.9945 C   0  0  0  0  0  0  0  0  0  0  0  0
   -3.4159   -8.1721   45.7825 C   0  0  0  0  0  0  0  0  0  0  0  0
   -3.4392   -8.9160   44.8984 C   0  0  0  0  0  0  0  0  0  0  0  0
   -2.7870   -8.7271   43.5814 C   0  0  0  0  0  0  0  0  0  0  0  0
  2  3  1  0
  3  4  1  0
  4  5  1  0
  2 11  1  0
 10 11  1  0
  7 14  1  0
  9 20  1  0
 20 21  2  0
  4 25  1  6
 25 26  1  0
 26 27  1  0
 27 28  1  0
 28 29  1  0
 29 30  2  3
 30 31  1  0
 31 32  1  0
 32 33  2  3
 33 34  1  0
  2  1  1  1
 14 15  2  0
 15 16  1  0
 16 17  2  0
 17 18  1  0
 18 19  2  0
 19 14  1  0
  1 12  2  0
 12 23  1  0
 23 24  2  0
 24 22  1  0
 22 13  2  0
 13  1  1  0
  5  6  2  0
  6  7  1  0
  7  8  2  0
  8  9  1  0
  9 10  2  0
 10  5  1  0
M  END
$$$$
O14757_PocketFlow_idx-in-all-generaetd-988
     RDKit          3D

  7  7  0  0  0  0  0  0  0  0999 V2000
   -0.8794   -1.9236   41.9357 O   0  0  0  0  0  0  0  0  0  0  0  0
    0.3070   -1.6014   41.6735 C   0  0  0  0  0  0  0  0  0  0  0  0
    0.8076   -0.3104   41.6588 C   0  0  0  0  0  0  0  0  0  0  0  0
    2.1558   -0.1129   41.4921 C   0  0  0  0  0  0  0  0  0  0  0  0
    3.0245   -1.1743   41.7776 C   0  0  0  0  0  0  0  0  0  0  0  0
    2.4803   -2.4325   42.1552 C   0  0  0  0  0  0  0  0  0  0  0  0
    1.1630   -2.6011   42.1831 C   0  0  0  0  0  0  0  0  0  0  0  0
  1  2  1  0
  2  3  2  0
  3  4  1  0
  4  5  2  0
  5  6  1  0
  6  7  2  0
  7  2  1  0
M  END
$$$$
O14757_PocketFlow_idx-in-all-generaetd-989
     RDKit          3D

 35 38  0  0  0  0  0  0  0  0999 V2000
   -0.6395   -2.0713   41.4947 C   0  0  0  0  0  0  0  0  0  0  0  0
    0.1859   -1.1027   41.5970 C   0  0  0  0  0  0  0  0  0  0  0  0
    1.5836   -1.3270   41.4670 C   0  0  0  0  0  0  0  0  0  0  0  0
   -0.2462   -3.3905   41.2409 C   0  0  0  0  0  0  0  0  0  0  0  0
    2.5675   -0.3472   41.7943 C   0  0  0  0  0  0  0  0  0  0  0  0
    3.8546   -0.6776   42.2362 C   0  0  0  0  0  0  0  0  0  0  0  0
    4.7501    0.3011   42.7357 C   0  0  0  0  0  0  0  0  0  0  0  0
    1.0806   -3.6013   41.1169 N   0  0  0  0  0  0  0  0  0  0  0  0
    1.9611   -2.5865   41.2296 C   0  0  0  0  0  0  0  0  0  0  0  0
    5.8543   -0.1834   43.3814 N   0  0  0  0  0  0  0  0  0  0  0  0
   -2.0369   -1.8986   41.6179 O   0  0  0  0  0  0  0  0  0  0  0  0
    5.8083   -1.4020   44.0463 C   0  0  0  0  0  0  0  0  0  0  0  0
    4.8185   -2.3191   43.7109 C   0  0  0  0  0  0  0  0  0  0  0  0
    3.8633   -1.9409   42.9710 C   0  0  0  0  0  0  0  0  0  0  0  0
    6.7407   -1.8146   44.9387 N   0  0  0  0  0  0  0  0  0  0  0  0
    6.7150   -2.8907   45.7246 C   0  0  0  0  0  0  0  0  0  0  0  0
    7.7825   -3.1260   46.6837 C   0  0  0  0  0  0  0  0  0  0  0  0
    8.8036   -2.2792   46.5744 C   0  0  0  0  0  0  0  0  0  0  0  0
    8.0141   -1.1709   45.3588 C   0  0  0  0  0  0  0  0  0  0  0  0
    7.8992   -4.2756   47.5369 C   0  0  0  0  0  0  0  0  0  0  0  0
    6.8279   -4.7106   48.1076 O   0  0  0  0  0  0  0  0  0  0  0  0
    6.4701   -5.8398   48.4837 C   0  0  2  0  0  0  0  0  0  0  0  0
    6.6355   -5.9964   49.9226 C   0  0  0  0  0  0  0  0  0  0  0  0
    6.3206   -7.4037   50.3670 C   0  0  2  0  0  0  0  0  0  0  0  0
    5.3901   -8.0109   49.3999 C   0  0  1  0  0  0  0  0  0  0  0  0
    6.1096   -8.4469   48.3140 C   0  0  2  0  0  0  0  0  0  0  0  0
    6.5040   -7.2037   47.6386 O   0  0  0  0  0  0  0  0  0  0  0  0
    4.9482   -9.2504   50.1441 O   0  0  0  0  0  0  0  0  0  0  0  0
    5.8423   -7.3857   51.7627 O   0  0  0  0  0  0  0  0  0  0  0  0
    5.2657   -8.9143   47.3369 F   0  0  0  0  0  0  0  0  0  0  0  0
    3.5839   -9.3750   50.4058 C   0  0  0  0  0  0  0  0  0  0  0  0
    3.1146  -10.6920   50.5594 C   0  0  0  0  0  0  0  0  0  0  0  0
    1.8064  -10.7544   50.7684 C   0  0  0  0  0  0  0  0  0  0  0  0
    1.0665  -11.4798   51.1699 C   0  0  0  0  0  0  0  0  0  0  0  0
   -0.4795  -11.4141   51.3256 C   0  0  0  0  0  0  0  0  0  0  0  0
  3  5  1  0
  5  6  1  0
  1 11  1  0
 12 15  1  0
 15 16  1  0
 16 17  2  0
 17 18  1  0
 15 19  1  0
 18 19  2  0
 17 20  1  0
 20 21  1  0
 22 21  1  6
 22 23  1  0
 23 24  1  0
 24 25  1  0
 25 26  1  0
 22 27  1  0
 26 27  1  0
 25 28  1  1
 24 29  1  1
 26 30  1  6
 28 31  1  0
 31 32  1  0
 32 33  1  0
 33 34  2  3
 34 35  1  0
  6  7  2  0
  7 10  1  0
 10 12  2  0
 12 13  1  0
 13 14  2  0
 14  6  1  0
  1  2  2  0
  2  3  1  0
  3  9  2  0
  9  8  1  0
  8  4  2  0
  4  1  1  0
M  END
$$$$
O14757_PocketFlow_idx-in-all-generaetd-990
     RDKit          3D

  8  8  0  0  0  0  0  0  0  0999 V2000
   -0.6395   -2.0713   41.4947 C   0  0  0  0  0  0  0  0  0  0  0  0
    0.1859   -1.1027   41.5970 C   0  0  0  0  0  0  0  0  0  0  0  0
    1.5836   -1.3270   41.4670 C   0  0  0  0  0  0  0  0  0  0  0  0
   -0.2462   -3.3905   41.2409 C   0  0  0  0  0  0  0  0  0  0  0  0
    2.0075   -2.6977   41.3341 C   0  0  0  0  0  0  0  0  0  0  0  0
    1.0655   -3.6470   41.1373 C   0  0  0  0  0  0  0  0  0  0  0  0
    2.7327   -0.1019   41.7587 Cl  0  0  0  0  0  0  0  0  0  0  0  0
   -2.3736   -1.7593   41.5831 Cl  0  0  0  0  0  0  0  0  0  0  0  0
  3  7  1  0
  1  8  1  0
  1  2  2  0
  2  3  1  0
  3  5  2  0
  5  6  1  0
  6  4  2  0
  4  1  1  0
M  END
$$$$
O14757_PocketFlow_idx-in-all-generaetd-991
     RDKit          3D

 35 37  0  0  0  0  0  0  0  0999 V2000
    0.0138   -2.7927   42.5918 N   0  0  0  0  0  0  0  0  0  0  0  0
   -0.1707   -2.5494   41.4965 C   0  0  0  0  0  0  0  0  0  0  0  0
    0.5345   -4.0216   42.9838 C   0  0  0  0  0  0  0  0  0  0  0  0
    1.5453   -3.9241   44.0322 C   0  0  0  0  0  0  0  0  0  0  0  0
    1.8349   -5.0716   44.8770 C   0  0  0  0  0  0  0  0  0  0  0  0
    1.0222   -6.1987   44.6731 C   0  0  0  0  0  0  0  0  0  0  0  0
   -0.0528   -6.1586   43.7507 C   0  0  0  0  0  0  0  0  0  0  0  0
   -0.3135   -5.0808   42.9825 C   0  0  0  0  0  0  0  0  0  0  0  0
   -0.4454   -1.2611   41.0755 N   0  0  0  0  0  0  0  0  0  0  0  0
    0.3568   -3.3346   40.6314 O   0  0  0  0  0  0  0  0  0  0  0  0
    2.9856   -5.0526   45.7285 C   0  0  0  0  0  0  0  0  0  0  0  0
    4.2905   -4.7293   45.0791 C   0  0  0  0  0  0  0  0  0  0  0  0
    4.6830   -3.3267   45.1537 C   0  0  0  0  0  0  0  0  0  0  0  0
    5.7279   -2.9536   46.0310 C   0  0  0  0  0  0  0  0  0  0  0  0
    6.2747   -1.6613   45.8957 C   0  0  0  0  0  0  0  0  0  0  0  0
    5.8161   -0.8831   44.8307 C   0  0  0  0  0  0  0  0  0  0  0  0
    4.9007   -1.2486   43.8928 C   0  0  0  0  0  0  0  0  0  0  0  0
    4.3901   -2.5424   44.0308 C   0  0  0  0  0  0  0  0  0  0  0  0
    4.5213   -0.3791   42.7958 C   0  0  0  0  0  0  0  0  0  0  0  0
    5.0863    0.7997   42.5863 N   0  0  0  0  0  0  0  0  0  0  0  0
    3.5618   -0.8242   42.0578 O   0  0  0  0  0  0  0  0  0  0  0  0
    6.0687   -3.7663   47.2073 C   0  0  0  0  0  0  0  0  0  0  0  0
    5.3248   -4.1224   48.1858 N   0  0  0  0  0  0  0  0  0  0  0  0
    7.4826   -4.2311   47.2659 C   0  0  0  0  0  0  0  0  0  0  0  0
    7.8034   -5.0617   48.3187 C   0  0  0  0  0  0  0  0  0  0  0  0
    5.7228   -4.8496   49.2670 C   0  0  0  0  0  0  0  0  0  0  0  0
    6.9786   -5.3586   49.3414 C   0  0  0  0  0  0  0  0  0  0  0  0
    1.2736   -7.4264   45.4670 C   0  0  0  0  0  0  0  0  0  0  0  0
    2.3868   -7.9194   45.4955 O   0  0  0  0  0  0  0  0  0  0  0  0
    0.2583   -8.0614   46.0072 N   0  0  0  0  0  0  0  0  0  0  0  0
   -1.0707   -7.5502   46.1746 C   0  0  0  0  0  0  0  0  0  0  0  0
   -2.0384   -8.5247   46.2401 C   0  0  0  0  0  0  0  0  0  0  0  0
   -3.1969   -8.3576   45.3325 C   0  0  0  0  0  0  0  0  0  0  0  0
   -4.1826   -9.3614   45.2677 C   0  0  0  0  0  0  0  0  0  0  0  0
   -4.0910  -10.4816   46.0384 C   0  0  0  0  0  0  0  0  0  0  0  0
  1  2  1  0
  1  3  1  0
  2  9  1  0
  2 10  2  0
  5 11  1  0
 11 12  1  0
 12 13  1  0
 17 19  1  0
 19 20  1  0
 19 21  2  0
 14 22  1  0
  6 28  1  0
 28 29  2  0
 28 30  1  0
 30 31  1  0
 31 32  1  0
 32 33  2  3
 33 34  1  0
 34 35  2  0
 13 14  1  0
 14 15  2  0
 15 16  1  0
 16 17  2  0
 17 18  1  0
 18 13  2  0
  3  4  2  0
  4  5  1  0
  5  6  2  0
  6  7  1  0
  7  8  2  0
  8  3  1  0
 22 23  2  0
 23 26  1  0
 26 27  2  0
 27 25  1  0
 25 24  2  0
 24 22  1  0
M  END
$$$$
O14757_PocketFlow_idx-in-all-generaetd-992
     RDKit          3D

 20 22  0  0  0  0  0  0  0  0999 V2000
   -0.8794   -1.9236   41.9357 O   0  0  0  0  0  0  0  0  0  0  0  0
    0.3070   -1.6014   41.6735 C   0  0  0  0  0  0  0  0  0  0  0  0
    0.8076   -0.3104   41.6588 C   0  0  0  0  0  0  0  0  0  0  0  0
    2.1558   -0.1129   41.4921 C   0  0  0  0  0  0  0  0  0  0  0  0
    3.0245   -1.1743   41.7776 C   0  0  0  0  0  0  0  0  0  0  0  0
    2.4803   -2.4325   42.1552 C   0  0  0  0  0  0  0  0  0  0  0  0
    1.1630   -2.6011   42.1831 C   0  0  0  0  0  0  0  0  0  0  0  0
    0.8152   -3.8912   42.5537 N   0  0  0  0  0  0  0  0  0  0  0  0
    1.3490   -4.4413   43.7054 C   0  0  0  0  0  0  0  0  0  0  0  0
    2.4470   -4.0155   44.2737 C   0  0  0  0  0  0  0  0  0  0  0  0
    3.0652   -4.5556   45.3381 C   0  0  0  0  0  0  0  0  0  0  0  0
    4.3268   -4.0654   45.8305 C   0  0  0  0  0  0  0  0  0  0  0  0
    4.9903   -4.5516   47.0074 C   0  0  0  0  0  0  0  0  0  0  0  0
    6.0660   -3.7916   47.5874 C   0  0  0  0  0  0  0  0  0  0  0  0
    6.5957   -2.7503   46.8290 C   0  0  0  0  0  0  0  0  0  0  0  0
    6.0099   -2.3882   45.6477 C   0  0  0  0  0  0  0  0  0  0  0  0
    4.9162   -3.0234   45.1916 C   0  0  0  0  0  0  0  0  0  0  0  0
    0.6492   -5.6244   44.2348 C   0  0  0  0  0  0  0  0  0  0  0  0
    1.1148   -6.2103   45.3968 C   0  0  0  0  0  0  0  0  0  0  0  0
    2.3613   -5.6940   45.9849 C   0  0  0  0  0  0  0  0  0  0  0  0
  1  2  1  0
  7  8  1  0
  8  9  1  0
 11 12  1  0
  9 10  2  0
 10 11  1  0
 11 20  2  0
 20 19  1  0
 19 18  2  0
 18  9  1  0
  2  3  2  0
  3  4  1  0
  4  5  2  0
  5  6  1  0
  6  7  2  0
  7  2  1  0
 12 13  2  0
 13 14  1  0
 14 15  2  0
 15 16  1  0
 16 17  2  0
 17 12  1  0
M  END
$$$$
O14757_PocketFlow_idx-in-all-generaetd-993
     RDKit          3D

 10 10  0  0  0  0  0  0  0  0999 V2000
   -0.6395   -2.0713   41.4947 C   0  0  0  0  0  0  0  0  0  0  0  0
    0.1859   -1.1027   41.5970 C   0  0  0  0  0  0  0  0  0  0  0  0
   -2.0077   -1.8651   41.2044 C   0  0  0  0  0  0  0  0  0  0  0  0
    1.5974   -1.2445   41.7640 C   0  0  0  0  0  0  0  0  0  0  0  0
    2.5563   -0.2262   41.8331 C   0  0  0  0  0  0  0  0  0  0  0  0
    3.8717   -0.4554   42.2584 C   0  0  0  0  0  0  0  0  0  0  0  0
    4.1068   -1.7133   42.9216 C   0  0  0  0  0  0  0  0  0  0  0  0
    3.0906   -2.6370   43.0971 C   0  0  0  0  0  0  0  0  0  0  0  0
    1.8496   -2.3175   42.5934 C   0  0  0  0  0  0  0  0  0  0  0  0
   -2.4587   -0.2423   41.1814 Cl  0  0  0  0  0  0  0  0  0  0  0  0
  1  2  2  3
  1  3  1  0
  2  4  1  0
  3 10  1  0
  4  5  2  0
  5  6  1  0
  6  7  2  0
  7  8  1  0
  8  9  2  0
  9  4  1  0
M  END
$$$$
O14757_PocketFlow_idx-in-all-generaetd-994
     RDKit          3D

 30 34  0  0  0  0  0  0  0  0999 V2000
    0.0138   -2.7927   42.5918 N   0  0  0  0  0  0  0  0  0  0  0  0
   -0.1707   -2.5494   41.4965 C   0  0  0  0  0  0  0  0  0  0  0  0
    1.3170   -2.6905   43.0184 C   0  0  2  0  0  0  0  0  0  0  0  0
    2.0255   -1.8901   42.0563 C   0  0  2  0  0  0  0  0  0  0  0  0
    3.2686   -1.2269   42.2284 C   0  0  0  0  0  0  0  0  0  0  0  0
    1.0169   -1.8189   41.1311 N   0  0  0  0  0  0  0  0  0  0  0  0
    4.1556   -1.8672   43.1888 C   0  0  0  0  0  0  0  0  0  0  0  0
    4.9514   -1.2035   44.0816 C   0  0  0  0  0  0  0  0  0  0  0  0
    5.5840   -1.9495   45.1295 C   0  0  0  0  0  0  0  0  0  0  0  0
    5.3005   -3.2677   45.3923 C   0  0  0  0  0  0  0  0  0  0  0  0
    4.4304   -3.9158   44.4672 C   0  0  0  0  0  0  0  0  0  0  0  0
    3.8277   -3.2513   43.4888 C   0  0  0  0  0  0  0  0  0  0  0  0
    6.0761   -3.9641   46.4163 C   0  0  0  0  0  0  0  0  0  0  0  0
    5.4067   -4.2964   47.6251 C   0  0  0  0  0  0  0  0  0  0  0  0
    6.1103   -4.7832   48.7574 C   0  0  0  0  0  0  0  0  0  0  0  0
    5.6218   -5.4754   49.6575 C   0  0  0  0  0  0  0  0  0  0  0  0
    1.9049   -3.3214   44.0598 O   0  0  0  0  0  0  0  0  0  0  0  0
    2.7414   -3.8740   43.1901 C   0  0  2  0  0  0  0  0  0  0  0  0
    2.0285   -4.8399   43.7842 F   0  0  0  0  0  0  0  0  0  0  0  0
    6.6907   -6.1003   50.5002 C   0  0  0  0  0  0  0  0  0  0  0  0
    7.5498   -4.4895   48.8472 C   0  0  1  0  0  0  0  0  0  0  0  0
    8.2888   -3.4869   48.0210 C   0  0  0  0  0  0  0  0  0  0  0  0
    7.9178   -5.6872   50.2938 C   0  0  0  0  0  0  0  0  0  0  0  0
    9.5160   -3.0164   48.4981 C   0  0  0  0  0  0  0  0  0  0  0  0
    7.8485   -3.1558   46.7938 C   0  0  0  0  0  0  0  0  0  0  0  0
    8.3402   -2.4076   45.8726 C   0  0  0  0  0  0  0  0  0  0  0  0
    8.2360   -3.9785   46.2456 F   0  0  0  0  0  0  0  0  0  0  0  0
    6.3650   -5.1794   45.8952 F   0  0  0  0  0  0  0  0  0  0  0  0
    9.5766   -1.8048   46.1085 C   0  0  0  0  0  0  0  0  0  0  0  0
   10.0606   -1.9255   47.5807 C   0  0  0  0  0  0  0  0  0  0  0  0
  1  2  2  0
  1  3  1  0
  3  4  1  0
  4  5  1  1
  2  6  1  0
  4  6  1  0
 10 13  1  0
 13 14  2  3
 14 15  1  0
 15 16  2  0
  3 17  1  6
 12 18  1  0
 17 18  1  0
 18 19  1  1
 16 20  1  0
 15 21  1  0
 21 22  1  1
 20 23  2  0
 21 23  1  0
 25 27  1  0
 13 28  1  0
  5  7  1  0
 22 24  2  0
 24 30  1  0
 30 29  2  0
 29 26  1  0
 26 25  2  0
 25 22  1  0
  7  8  2  0
  8  9  1  0
  9 10  2  0
 10 11  1  0
 11 12  2  0
 12  7  1  0
M  END
$$$$
O14757_PocketFlow_idx-in-all-generaetd-995
     RDKit          3D

 16 17  0  0  0  0  0  0  0  0999 V2000
    0.2881   -2.9111   42.4378 C   0  0  0  0  0  0  0  0  0  0  0  0
    1.1784   -3.4293   42.9321 C   0  0  0  0  0  0  0  0  0  0  0  0
    2.4696   -2.7231   42.8997 C   0  0  0  0  0  0  0  0  0  0  0  0
    3.6320   -3.1839   43.6508 C   0  0  0  0  0  0  0  0  0  0  0  0
    4.7810   -2.3542   43.7528 C   0  0  0  0  0  0  0  0  0  0  0  0
    0.3948   -1.7688   41.5591 C   0  0  0  0  0  0  0  0  0  0  0  0
    1.5740   -1.0667   41.5573 C   0  0  0  0  0  0  0  0  0  0  0  0
    2.6368   -1.5468   42.2493 C   0  0  0  0  0  0  0  0  0  0  0  0
    4.7735   -1.1189   43.0121 C   0  0  0  0  0  0  0  0  0  0  0  0
    3.7259   -0.7116   42.3273 C   0  0  0  0  0  0  0  0  0  0  0  0
    3.6402   -4.6124   44.5516 Cl  0  0  0  0  0  0  0  0  0  0  0  0
   -0.9114   -1.2210   41.0338 C   0  0  0  0  0  0  0  0  0  0  0  0
   -2.0779   -2.0448   40.9960 C   0  0  0  0  0  0  0  0  0  0  0  0
   -3.2721   -1.5519   40.5654 C   0  0  0  0  0  0  0  0  0  0  0  0
   -3.5072   -0.1835   40.7024 C   0  0  0  0  0  0  0  0  0  0  0  0
   -2.4567    0.6572   41.2521 C   0  0  0  0  0  0  0  0  0  0  0  0
  4 11  1  0
  6 12  1  0
 12 13  2  3
 13 14  1  0
 14 15  2  3
 15 16  1  0
  1  2  2  0
  2  3  1  0
  8  7  1  0
  7  6  2  0
  6  1  1  0
  3  4  2  0
  4  5  1  0
  5  9  2  0
  9 10  1  0
 10  8  2  0
  8  3  1  0
M  END
$$$$
O14757_PocketFlow_idx-in-all-generaetd-996
     RDKit          3D

  9  9  0  0  0  0  0  0  0  0999 V2000
    0.2881   -2.9111   42.4378 C   0  0  0  0  0  0  0  0  0  0  0  0
    1.3023   -2.0648   42.1981 C   0  0  0  0  0  0  0  0  0  0  0  0
    2.5200   -2.2700   42.7140 C   0  0  0  0  0  0  0  0  0  0  0  0
    3.5900   -1.3450   42.5364 C   0  0  0  0  0  0  0  0  0  0  0  0
    4.8853   -1.5459   43.2165 C   0  0  0  0  0  0  0  0  0  0  0  0
    5.7461   -0.4457   43.4777 C   0  0  0  0  0  0  0  0  0  0  0  0
    0.5503   -4.0266   43.2789 C   0  0  0  0  0  0  0  0  0  0  0  0
    1.7169   -4.0948   44.0366 C   0  0  0  0  0  0  0  0  0  0  0  0
    2.7624   -3.1822   43.7835 C   0  0  0  0  0  0  0  0  0  0  0  0
  3  4  1  0
  4  5  1  0
  5  6  2  0
  1  2  2  0
  2  3  1  0
  3  9  2  0
  9  8  1  0
  8  7  2  0
  7  1  1  0
M  END
$$$$
O14757_PocketFlow_idx-in-all-generaetd-997
     RDKit          3D

 32 33  0  0  0  0  0  0  0  0999 V2000
   -0.8794   -1.9236   41.9357 O   0  0  0  0  0  0  0  0  0  0  0  0
    0.3070   -1.6014   41.6735 C   0  0  0  0  0  0  0  0  0  0  0  0
    1.2548   -2.6723   41.5755 C   0  0  0  0  0  0  0  0  0  0  0  0
    2.4147   -2.3743   42.2522 C   0  0  0  0  0  0  0  0  0  0  0  0
    3.0010   -1.1176   42.2444 C   0  0  0  0  0  0  0  0  0  0  0  0
    4.2408   -0.9091   42.9244 C   0  0  0  0  0  0  0  0  0  0  0  0
    4.8125   -1.9011   43.7441 C   0  0  0  0  0  0  0  0  0  0  0  0
    4.1331   -3.0837   43.8989 C   0  0  0  0  0  0  0  0  0  0  0  0
    2.9138   -3.3672   43.2263 C   0  0  0  0  0  0  0  0  0  0  0  0
    6.0258   -1.6024   44.4542 C   0  0  0  0  0  0  0  0  0  0  0  0
    6.8547   -0.7859   44.0110 F   0  0  0  0  0  0  0  0  0  0  0  0
    6.7645   -2.8116   44.7438 F   0  0  0  0  0  0  0  0  0  0  0  0
    5.6289   -1.0811   45.7231 F   0  0  0  0  0  0  0  0  0  0  0  0
    0.5342   -0.3819   41.4724 O   0  0  0  0  0  0  0  0  0  0  0  0
   -1.9270   -1.9457   40.9353 C   0  0  0  0  0  0  0  0  0  0  0  0
    4.8352    0.3026   42.7746 O   0  0  0  0  0  0  0  0  0  0  0  0
    4.6709   -4.3436   44.9438 Cl  0  0  0  0  0  0  0  0  0  0  0  0
   -2.9746   -0.9691   41.1845 C   0  0  0  0  0  0  0  0  0  0  0  0
   -4.0083   -0.9110   40.3274 C   0  0  0  0  0  0  0  0  0  0  0  0
   -4.1487   -2.0223   39.4000 C   0  0  0  0  0  0  0  0  0  0  0  0
   -2.9948   -2.8493   39.4553 C   0  0  0  0  0  0  0  0  0  0  0  0
   -2.0862   -2.9688   40.2157 C   0  0  0  0  0  0  0  0  0  0  0  0
    2.2560   -4.4311   43.4645 O   0  0  0  0  0  0  0  0  0  0  0  0
    2.1818   -4.8305   44.7813 C   0  0  0  0  0  0  0  0  0  0  0  0
    0.9178   -5.5844   45.1642 C   0  0  1  0  0  0  0  0  0  0  0  0
    0.0228   -4.9183   46.0271 C   0  0  0  0  0  0  0  0  0  0  0  0
   -0.9957   -5.6524   46.5478 O   0  0  0  0  0  0  0  0  0  0  0  0
    0.1560   -5.8379   43.8862 N   0  0  0  0  0  0  0  0  0  0  0  0
   -0.6099   -6.9525   43.9021 C   0  0  0  0  0  0  0  0  0  0  0  0
   -0.4533   -7.7459   44.8586 O   0  0  0  0  0  0  0  0  0  0  0  0
   -1.2668   -7.1852   42.9216 O   0  0  0  0  0  0  0  0  0  0  0  0
    0.0620   -3.6747   46.3301 O   0  0  0  0  0  0  0  0  0  0  0  0
  1  2  1  0
  2  3  1  0
  3  4  1  0
  7 10  1  0
 10 11  1  0
 10 12  1  0
 10 13  1  0
  2 14  2  0
  1 15  1  0
  6 16  1  0
  8 17  1  0
  9 23  1  0
 23 24  1  0
 25 24  1  6
 25 26  1  0
 26 27  1  0
 25 28  1  0
 28 29  1  0
 29 30  2  0
 29 31  1  0
 26 32  2  0
 15 18  2  0
 18 19  1  0
 19 20  2  0
 20 21  1  0
 21 22  2  0
 22 15  1  0
  4  5  2  0
  5  6  1  0
  6  7  2  0
  7  8  1  0
  8  9  2  0
  9  4  1  0
M  END
$$$$
O14757_PocketFlow_idx-in-all-generaetd-998
     RDKit          3D

 35 38  0  0  0  0  0  0  0  0999 V2000
   -0.6395   -2.0713   41.4947 C   0  0  0  0  0  0  0  0  0  0  0  0
    0.1859   -1.1027   41.5970 C   0  0  0  0  0  0  0  0  0  0  0  0
    1.5858   -1.4430   41.9548 C   0  0  0  0  0  0  0  0  0  0  0  0
   -2.0361   -1.7936   41.0994 C   0  0  0  0  0  0  0  0  0  0  0  0
    1.7796   -2.7265   42.4471 C   0  0  0  0  0  0  0  0  0  0  0  0
    0.6721   -3.6124   42.5649 C   0  0  0  0  0  0  0  0  0  0  0  0
   -0.5331   -3.2272   42.0430 C   0  0  0  0  0  0  0  0  0  0  0  0
    2.6480   -0.4514   42.0354 C   0  0  0  0  0  0  0  0  0  0  0  0
    3.9606   -0.7775   42.4968 C   0  0  0  0  0  0  0  0  0  0  0  0
    4.9489    0.2393   42.6719 C   0  0  0  0  0  0  0  0  0  0  0  0
   -2.6815   -0.6140   41.2071 N   0  0  0  0  0  0  0  0  0  0  0  0
   -2.7753   -2.6265   40.2709 N   0  0  0  0  0  0  0  0  0  0  0  0
   -3.8611   -0.6103   40.5916 C   0  0  0  0  0  0  0  0  0  0  0  0
   -3.9415   -1.8764   40.0472 N   0  0  0  0  0  0  0  0  0  0  0  0
    4.2667   -2.0659   42.8861 C   0  0  0  0  0  0  0  0  0  0  0  0
    3.0729   -3.0002   43.0378 C   0  0  0  0  0  0  0  0  0  0  0  0
    5.4102    0.4799   43.8584 O   0  0  0  0  0  0  0  0  0  0  0  0
    5.5792    0.6307   41.6822 O   0  0  0  0  0  0  0  0  0  0  0  0
    3.3599   -4.1840   43.5846 O   0  0  0  0  0  0  0  0  0  0  0  0
    4.2574   -4.1640   44.6841 C   0  0  0  0  0  0  0  0  0  0  0  0
    3.9291   -5.2735   45.6552 C   0  0  0  0  0  0  0  0  0  0  0  0
    2.8245   -5.7205   45.6236 O   0  0  0  0  0  0  0  0  0  0  0  0
    4.7435   -5.5199   46.5923 O   0  0  0  0  0  0  0  0  0  0  0  0
    5.5473   -4.4938   47.1727 C   0  0  0  0  0  0  0  0  0  0  0  0
    6.2348   -4.8753   48.3555 C   0  0  0  0  0  0  0  0  0  0  0  0
    6.9603   -3.8875   49.0734 C   0  0  0  0  0  0  0  0  0  0  0  0
    8.0512   -3.2817   48.4926 C   0  0  0  0  0  0  0  0  0  0  0  0
    8.2066   -3.1371   47.1641 C   0  0  0  0  0  0  0  0  0  0  0  0
    7.1527   -3.3472   46.1407 C   0  0  0  0  0  0  0  0  0  0  0  0
    6.0077   -3.5107   46.3934 C   0  0  0  0  0  0  0  0  0  0  0  0
    9.2024   -2.8091   49.2545 C   0  0  0  0  0  0  0  0  0  0  0  0
    9.0157   -2.5215   50.4651 O   0  0  0  0  0  0  0  0  0  0  0  0
   10.3851   -2.8664   48.8739 O   0  0  0  0  0  0  0  0  0  0  0  0
    9.5569   -1.4482   51.1375 C   0  0  0  0  0  0  0  0  0  0  0  0
    9.1823   -1.4435   52.5586 C   0  0  0  0  0  0  0  0  0  0  0  0
  1  4  1  0
  9 10  1  0
  4 11  2  0
  4 12  1  0
 11 13  1  0
 12 14  2  0
 13 14  1  0
 10 17  1  0
 10 18  2  0
 16 19  1  0
 19 20  1  0
 20 21  1  0
 21 22  2  0
 21 23  1  0
 23 24  1  0
 24 25  2  0
 25 26  1  0
 26 27  2  0
 27 28  1  0
 28 29  2  0
 24 30  1  0
 29 30  1  0
 27 31  1  0
 31 32  1  0
 31 33  2  0
 32 34  1  0
 34 35  1  0
  5 16  2  0
 16 15  1  0
 15  9  2  0
  9  8  1  0
  8  3  2  0
  1  2  2  0
  2  3  1  0
  3  5  1  0
  5  6  1  0
  6  7  2  0
  7  1  1  0
M  END
$$$$
O14757_PocketFlow_idx-in-all-generaetd-999
     RDKit          3D

 32 34  0  0  0  0  0  0  0  0999 V2000
    0.2881   -2.9111   42.4378 C   0  0  0  0  0  0  0  0  0  0  0  0
    1.1784   -3.4293   42.9321 C   0  0  0  0  0  0  0  0  0  0  0  0
    2.4507   -2.7243   42.9621 C   0  0  0  0  0  0  0  0  0  0  0  0
    3.6020   -3.2282   43.7398 C   0  0  0  0  0  0  0  0  0  0  0  0
    3.4876   -4.4021   44.5035 C   0  0  0  0  0  0  0  0  0  0  0  0
    2.2145   -4.9885   44.5455 C   0  0  0  0  0  0  0  0  0  0  0  0
    1.1074   -4.5172   43.9067 C   0  0  0  0  0  0  0  0  0  0  0  0
    0.3530   -1.6499   41.7106 C   0  0  0  0  0  0  0  0  0  0  0  0
    1.5895   -0.9717   41.6714 C   0  0  0  0  0  0  0  0  0  0  0  0
    2.6367   -1.4787   42.3415 C   0  0  0  0  0  0  0  0  0  0  0  0
    3.8826   -0.7580   42.4229 C   0  0  1  0  0  0  0  0  0  0  0  0
    4.1399    0.2139   43.5281 C   0  0  0  0  0  0  0  0  0  0  0  0
    4.6217   -4.8883   45.2381 C   0  0  0  0  0  0  0  0  0  0  0  0
    5.5078    0.5973   43.4407 N   0  0  0  0  0  0  0  0  0  0  0  0
    5.1087   -1.1885   41.9839 C   0  0  0  0  0  0  0  0  0  0  0  0
    6.1295   -0.4022   42.5842 C   0  0  0  0  0  0  0  0  0  0  0  0
   -0.8786   -1.0354   41.0905 C   0  0  0  0  0  0  0  0  0  0  0  0
   -2.0853   -1.2443   41.4677 N   0  0  0  0  0  0  0  0  0  0  0  0
   -3.1484   -0.7398   40.8776 C   0  0  0  0  0  0  0  0  0  0  0  0
    4.4677   -6.0533   45.6525 F   0  0  0  0  0  0  0  0  0  0  0  0
    4.9133   -4.0112   46.2753 F   0  0  0  0  0  0  0  0  0  0  0  0
   -3.3377    0.6054   41.1838 C   0  0  0  0  0  0  0  0  0  0  0  0
   -4.1529   -1.4726   40.2413 C   0  0  0  0  0  0  0  0  0  0  0  0
   -3.9314   -2.6515   39.9390 O   0  0  0  0  0  0  0  0  0  0  0  0
    5.7154   -4.7271   44.5278 F   0  0  0  0  0  0  0  0  0  0  0  0
    0.0058   -5.2334   43.9457 O   0  0  0  0  0  0  0  0  0  0  0  0
    0.2293   -6.5560   43.9262 C   0  0  0  0  0  0  0  0  0  0  0  0
    0.6392   -7.0769   45.2167 C   0  0  2  0  0  0  0  0  0  0  0  0
    0.0919   -7.8178   45.7269 F   0  0  0  0  0  0  0  0  0  0  0  0
    1.3559   -6.2617   45.9287 C   0  0  0  0  0  0  0  0  0  0  0  0
    2.3792   -6.1697   43.9872 O   0  0  0  0  0  0  0  0  0  0  0  0
    0.5376   -5.4213   46.6280 O   0  0  0  0  0  0  0  0  0  0  0  0
 11 10  1  1
 11 12  1  0
  5 13  1  0
 12 14  1  0
 11 15  1  0
 14 16  2  0
 15 16  1  0
  8 17  1  0
 17 18  1  0
 18 19  1  0
 13 20  1  0
 13 21  1  0
 19 22  2  0
 19 23  1  0
 23 24  1  0
 13 25  1  0
  7 26  1  0
 26 27  1  0
 27 28  1  0
 28 29  1  1
 28 30  1  0
  6 31  1  0
 30 32  1  0
  3  4  1  0
  4  5  2  0
  5  6  1  0
  6  7  2  0
  7  2  1  0
  1  2  2  0
  2  3  1  0
  3 10  2  0
 10  9  1  0
  9  8  2  0
  8  1  1  0
M  END
$$$$
