O14757_Sries14139_DeleteHit2Lead(CrossDock)_idx-in-all-generaetd-1
     RDKit          3D

 28 30  0  0  0  0  0  0  0  0999 V2000
    9.7300   -5.2610   48.3220 C   0  0  0  0  0  0  0  0  0  0  0  0
    8.5780   -1.4860   46.0070 C   0  0  0  0  0  0  0  0  0  0  0  0
    7.4970   -3.1200   47.3650 N   0  0  0  0  0  0  0  0  0  0  0  0
   11.5680   -5.8070   44.8140 Cl  0  0  0  0  0  0  0  0  0  0  0  0
   10.6850   -6.1210   46.2720 C   0  0  0  0  0  0  0  0  0  0  0  0
    8.5490   -2.3080   47.1330 C   0  0  0  0  0  0  0  0  0  0  0  0
    8.6240   -6.6640   49.8400 O   0  0  0  0  0  0  0  0  0  0  0  0
    9.9740   -2.2870   50.2480 O   0  0  0  0  0  0  0  0  0  0  0  0
    7.8400   -7.8280   50.0990 C   0  0  0  0  0  0  0  0  0  0  0  0
    7.5920   -1.4560   45.0770 N   0  0  0  0  0  0  0  0  0  0  0  0
    5.7570   -6.5570   49.2960 C   0  0  0  0  0  0  0  0  0  0  0  0
    9.4710   -4.2370   49.2640 N   0  0  0  0  0  0  0  0  0  0  0  0
    6.5350   -2.2760   45.3290 C   0  0  0  0  0  0  0  0  0  0  0  0
   10.2320   -7.4180   46.5670 C   0  0  0  0  0  0  0  0  0  0  0  0
    9.5610   -7.6260   47.7810 C   0  0  0  0  0  0  0  0  0  0  0  0
    5.2590   -4.4510   47.9730 C   0  0  0  0  0  0  0  0  0  0  0  0
    6.5210   -7.8850   49.3130 C   0  0  0  0  0  0  0  0  0  0  0  0
    9.6140   -2.2180   48.0500 N   0  0  0  0  0  0  0  0  0  0  0  0
    9.2960   -6.5610   48.6480 C   0  0  0  0  0  0  0  0  0  0  0  0
    6.4800   -3.0790   46.4660 C   0  0  0  0  0  0  0  0  0  0  0  0
    5.3500   -3.8430   46.6830 O   0  0  0  0  0  0  0  0  0  0  0  0
   10.4420   -5.0550   47.1390 C   0  0  0  0  0  0  0  0  0  0  0  0
    5.8410   -5.8630   47.9340 C   0  0  0  0  0  0  0  0  0  0  0  0
    9.6880   -2.8990   49.2180 C   0  0  0  0  0  0  0  0  0  0  0  0
   10.5660   -8.5100   45.7280 N   0  0  0  0  0  0  0  0  0  0  0  0
    9.5460   -9.1980   45.0670 O   0  0  0  0  0  0  0  0  0  0  0  0
    5.4720   -2.2510   44.3680 C   0  0  0  0  0  0  0  0  0  0  0  0
    4.6130   -2.2310   43.5860 N   0  0  0  0  0  0  0  0  0  0  0  0
  1 22  1  0
  1 19  2  0
  1 12  1  0
  2 10  2  0
  2  6  1  0
  3 20  1  0
  3  6  2  0
  4  5  1  0
  5 14  1  0
  5 22  2  0
  6 18  1  0
  7 19  1  0
  7  9  1  0
  8 24  2  0
  9 17  1  0
 10 13  1  0
 11 23  1  0
 11 17  1  0
 12 24  1  0
 13 27  1  0
 13 20  2  0
 14 25  1  0
 14 15  2  0
 15 19  1  0
 16 21  1  0
 16 23  1  0
 18 24  1  0
 20 21  1  0
 25 26  1  0
 27 28  3  0
M  END
>  <vina_dock>  (1) 
-5.793

$$$$
O14757_Sries14139_DeleteHit2Lead(CrossDock)_idx-in-all-generaetd-0
     RDKit          3D

 27 29  0  0  0  0  0  0  0  0999 V2000
   10.2740   -5.1520   48.6930 C   0  0  0  0  0  0  0  0  0  0  0  0
    8.5440   -1.6890   46.2030 C   0  0  0  0  0  0  0  0  0  0  0  0
    7.7380   -3.3650   47.7090 N   0  0  0  0  0  0  0  0  0  0  0  0
   11.6790   -5.8460   45.0180 Cl  0  0  0  0  0  0  0  0  0  0  0  0
   11.0670   -6.1230   46.6120 C   0  0  0  0  0  0  0  0  0  0  0  0
    8.6770   -2.4510   47.3680 C   0  0  2  0  0  0  0  0  0  0  0  0
    9.5940   -6.6950   50.4510 O   0  0  0  0  0  0  0  0  0  0  0  0
   10.4090   -2.0010   50.3130 O   0  0  0  0  0  0  0  0  0  0  0  0
    8.2000   -6.3680   50.5580 C   0  0  0  0  0  0  0  0  0  0  0  0
    7.5070   -1.8080   45.3420 N   0  0  0  0  0  0  0  0  0  0  0  0
    5.9190   -7.1250   49.7140 C   0  0  0  0  0  0  0  0  0  0  0  0
   10.0400   -4.0730   49.5710 N   0  0  0  0  0  0  0  0  0  0  0  0
    6.5670   -2.7230   45.6990 C   0  0  0  0  0  0  0  0  0  0  0  0
   10.8840   -7.4220   47.1070 C   0  0  0  0  0  0  0  0  0  0  0  0
   10.4000   -7.5740   48.4130 C   0  0  0  0  0  0  0  0  0  0  0  0
    5.6170   -4.9090   48.4700 C   0  0  0  0  0  0  0  0  0  0  0  0
    7.3170   -7.5520   50.1670 C   0  0  0  0  0  0  0  0  0  0  0  0
    9.7840   -2.1730   48.1890 N   0  0  0  0  0  0  0  0  0  0  0  0
   10.0730   -6.4540   49.1830 C   0  0  0  0  0  0  0  0  0  0  0  0
    6.6710   -3.4740   46.8690 C   0  0  0  0  0  0  0  0  0  0  0  0
    5.6410   -4.3430   47.1590 O   0  0  0  0  0  0  0  0  0  0  0  0
   10.7800   -5.0010   47.4010 C   0  0  0  0  0  0  0  0  0  0  0  0
    5.9350   -6.3990   48.3620 C   0  0  0  0  0  0  0  0  0  0  0  0
   10.0740   -2.7360   49.3820 C   0  0  0  0  0  0  0  0  0  0  0  0
   11.2060   -8.6410   46.2890 C   0  0  0  0  0  0  0  0  0  0  0  0
    5.4480   -2.8550   44.8110 C   0  0  0  0  0  0  0  0  0  0  0  0
    4.5430   -2.9610   44.0890 N   0  0  0  0  0  0  0  0  0  0  0  0
  1 22  1  0
  1 19  2  0
  1 12  1  0
  2 10  2  0
  2  6  1  0
  3 20  2  0
  3  6  1  0
  4  5  1  0
  5 14  1  0
  5 22  2  0
  6 18  1  1
  7 19  1  0
  7  9  1  0
  8 24  2  0
  9 17  1  0
 10 13  1  0
 11 23  1  0
 11 17  1  0
 12 24  1  0
 13 26  1  0
 13 20  1  0
 14 25  1  0
 14 15  2  0
 15 19  1  0
 16 21  1  0
 16 23  1  0
 18 24  1  0
 20 21  1  0
 26 27  3  0
M  END
>  <vina_dock>  (2) 
-5.251

$$$$
O14757_Sries14139_DeleteHit2Lead(CrossDock)_idx-in-all-generaetd-3
     RDKit          3D

 28 30  0  0  0  0  0  0  0  0999 V2000
    8.5850   -2.7090   48.7850 C   0  0  0  0  0  0  0  0  0  0  0  0
   12.6280   -2.7860   46.9110 C   0  0  0  0  0  0  0  0  0  0  0  0
   11.1950   -4.0230   48.3510 N   0  0  0  0  0  0  0  0  0  0  0  0
    7.8020   -2.0100   44.9310 Cl  0  0  0  0  0  0  0  0  0  0  0  0
    7.7040   -2.6780   46.5290 C   0  0  0  0  0  0  0  0  0  0  0  0
   11.7440   -2.8460   47.9870 C   0  0  0  0  0  0  0  0  0  0  0  0
    7.5520   -4.2490   50.3550 O   0  0  0  0  0  0  0  0  0  0  0  0
   10.8840   -0.7330   50.6290 O   0  0  0  0  0  0  0  0  0  0  0  0
    8.6240   -5.1680   50.6280 C   0  0  0  0  0  0  0  0  0  0  0  0
   12.9460   -3.8590   46.1410 N   0  0  0  0  0  0  0  0  0  0  0  0
    9.3470   -7.6110   50.5460 C   0  0  0  0  0  0  0  0  0  0  0  0
    9.4360   -2.2320   49.8060 N   0  0  0  0  0  0  0  0  0  0  0  0
   12.3310   -5.0240   46.4880 C   0  0  0  0  0  0  0  0  0  0  0  0
    6.7180   -3.6370   46.8450 C   0  0  0  0  0  0  0  0  0  0  0  0
    6.7150   -4.1440   48.1490 C   0  0  0  0  0  0  0  0  0  0  0  0
   11.3500   -6.8270   49.1070 C   0  0  0  0  0  0  0  0  0  0  0  0
    8.3300   -6.5670   50.0770 C   0  0  0  0  0  0  0  0  0  0  0  0
   11.4460   -1.6660   48.6870 N   0  0  0  0  0  0  0  0  0  0  0  0
    7.6410   -3.6970   49.1000 C   0  0  0  0  0  0  0  0  0  0  0  0
   11.4910   -5.1020   47.5900 C   0  0  0  0  0  0  0  0  0  0  0  0
   10.8220   -6.2570   47.9050 O   0  0  0  0  0  0  0  0  0  0  0  0
    8.6070   -2.2000   47.4880 C   0  0  0  0  0  0  0  0  0  0  0  0
   10.4460   -7.9800   49.5400 C   0  0  0  0  0  0  0  0  0  0  0  0
   10.5900   -1.5240   49.7300 C   0  0  0  0  0  0  0  0  0  0  0  0
    5.8690   -4.1380   45.8420 N   0  0  0  0  0  0  0  0  0  0  0  0
    4.4380   -4.1830   46.0840 C   0  0  0  0  0  0  0  0  0  0  0  0
   12.6190   -6.1680   45.6770 C   0  0  0  0  0  0  0  0  0  0  0  0
   12.8770   -7.0930   45.0210 N   0  0  0  0  0  0  0  0  0  0  0  0
  1 22  1  0
  1 19  2  0
  1 12  1  0
  2 10  2  0
  2  6  1  0
  3 20  1  0
  3  6  2  0
  4  5  1  0
  5 14  1  0
  5 22  2  0
  6 18  1  0
  7 19  1  0
  7  9  1  0
  8 24  2  0
  9 17  1  0
 10 13  1  0
 11 23  1  0
 11 17  1  0
 12 24  1  0
 13 27  1  0
 13 20  2  0
 14 25  1  0
 14 15  2  0
 15 19  1  0
 16 21  1  0
 16 23  1  0
 18 24  1  0
 20 21  1  0
 25 26  1  0
 27 28  3  0
M  END
>  <vina_dock>  (3) 
-4.184

$$$$
O14757_Sries14139_DeleteHit2Lead(CrossDock)_idx-in-all-generaetd-2
     RDKit          3D

 29 31  0  0  0  0  0  0  0  0999 V2000
    8.0440   -7.1000   49.0960 C   0  0  0  0  0  0  0  0  0  0  0  0
    4.4190   -5.9030   46.4730 C   0  0  0  0  0  0  0  0  0  0  0  0
    6.1710   -5.0440   47.8360 N   0  0  0  0  0  0  0  0  0  0  0  0
    9.0510   -8.9510   45.7100 Cl  0  0  0  0  0  0  0  0  0  0  0  0
    9.1950   -8.0490   47.1840 C   0  0  0  0  0  0  0  0  0  0  0  0
    5.2500   -5.9990   47.5910 C   0  0  0  0  0  0  0  0  0  0  0  0
    9.3450   -5.7440   50.6290 O   0  0  0  0  0  0  0  0  0  0  0  0
    4.9110   -7.6350   50.6290 O   0  0  0  0  0  0  0  0  0  0  0  0
    8.8120   -4.4310   50.3690 C   0  0  0  0  0  0  0  0  0  0  0  0
    4.4640   -4.8750   45.5860 N   0  0  0  0  0  0  0  0  0  0  0  0
    9.3640   -2.2470   49.1640 C   0  0  0  0  0  0  0  0  0  0  0  0
    6.9160   -6.9280   49.9260 N   0  0  0  0  0  0  0  0  0  0  0  0
    5.3870   -3.9160   45.8610 C   0  0  0  0  0  0  0  0  0  0  0  0
   10.4350   -7.5140   47.6060 C   0  0  0  0  0  0  0  0  0  0  0  0
   10.4420   -6.7710   48.7950 C   0  0  0  0  0  0  0  0  0  0  0  0
    8.4580   -3.4190   47.0410 C   0  0  0  0  0  0  0  0  0  0  0  0
    9.9110   -3.4760   49.8990 C   0  0  0  0  0  0  0  0  0  0  0  0
    5.0470   -7.0680   48.4820 N   0  0  0  0  0  0  0  0  0  0  0  0
    9.2610   -6.5390   49.5080 C   0  0  0  0  0  0  0  0  0  0  0  0
    6.2370   -4.0160   46.9550 C   0  0  0  0  0  0  0  0  0  0  0  0
    7.1080   -3.0010   47.2700 O   0  0  0  0  0  0  0  0  0  0  0  0
    8.0210   -7.8590   47.9270 C   0  0  0  0  0  0  0  0  0  0  0  0
    9.4040   -2.3750   47.6330 C   0  0  0  0  0  0  0  0  0  0  0  0
    5.6140   -7.2240   49.7030 C   0  0  0  0  0  0  0  0  0  0  0  0
   11.6160   -7.7390   46.8630 N   0  0  0  0  0  0  0  0  0  0  0  0
   12.1160   -6.6110   46.0770 C   0  0  0  0  0  0  0  0  0  0  0  0
   12.6420   -8.4070   47.6720 C   0  0  0  0  0  0  0  0  0  0  0  0
    5.4450   -2.8040   44.9600 C   0  0  0  0  0  0  0  0  0  0  0  0
    5.5070   -1.9090   44.2210 N   0  0  0  0  0  0  0  0  0  0  0  0
  1 22  1  0
  1 19  2  0
  1 12  1  0
  2 10  2  0
  2  6  1  0
  3 20  1  0
  3  6  2  0
  4  5  1  0
  5 14  1  0
  5 22  2  0
  6 18  1  0
  7 19  1  0
  7  9  1  0
  8 24  2  0
  9 17  1  0
 10 13  1  0
 11 23  1  0
 11 17  1  0
 12 24  1  0
 13 28  1  0
 13 20  2  0
 14 25  1  0
 14 15  2  0
 15 19  1  0
 16 21  1  0
 16 23  1  0
 18 24  1  0
 20 21  1  0
 25 26  1  0
 25 27  1  0
 28 29  3  0
M  END
>  <vina_dock>  (4) 
-4.692

$$$$
