Q92769_PocketFlow_idx-in-all-generaetd-0
     RDKit          3D

 35 38  0  0  0  0  0  0  0  0999 V2000
   20.6531  -19.0848   -0.3360 C   0  0  0  0  0  0  0  0  0  0  0  0
   20.2485  -19.0770   -1.2646 C   0  0  0  0  0  0  0  0  0  0  0  0
   20.0278  -19.7450    0.8560 C   0  0  0  0  0  0  0  0  0  0  0  0
   18.9077  -20.4394    0.7106 C   0  0  0  0  0  0  0  0  0  0  0  0
   18.3045  -20.3456   -0.5139 N   0  0  0  0  0  0  0  0  0  0  0  0
   18.9201  -19.6979   -1.5371 C   0  0  0  0  0  0  0  0  0  0  0  0
   22.0050  -18.3677   -0.0191 C   0  0  0  0  0  0  0  0  0  0  0  0
   22.9311  -18.9606    0.5889 O   0  0  0  0  0  0  0  0  0  0  0  0
   22.1791  -17.1678   -0.5724 O   0  0  0  0  0  0  0  0  0  0  0  0
   18.2115  -21.0271    1.6362 N   0  0  0  0  0  0  0  0  0  0  0  0
   23.5169  -16.7628   -0.7862 C   0  0  0  0  0  0  0  0  0  0  0  0
   24.2184  -17.3182   -1.8974 C   0  0  0  0  0  0  0  0  0  0  0  0
   25.5447  -16.6398   -2.0039 C   0  0  0  0  0  0  0  0  0  0  0  0
   25.5166  -15.3434   -2.4117 C   0  0  0  0  0  0  0  0  0  0  0  0
   26.7763  -14.5964   -2.3621 C   0  0  0  0  0  0  0  0  0  0  0  0
   27.8715  -15.1184   -1.7804 C   0  0  0  0  0  0  0  0  0  0  0  0
   27.7516  -16.5075   -1.2181 C   0  0  0  0  0  0  0  0  0  0  0  0
   26.6164  -17.0931   -1.2386 C   0  0  0  0  0  0  0  0  0  0  0  0
   26.8260  -13.2255   -2.9660 C   0  0  0  0  0  0  0  0  0  0  0  0
   27.4157  -12.2222   -2.2942 C   0  0  0  0  0  0  0  0  0  0  0  0
   27.5162  -10.9329   -2.9074 C   0  0  0  0  0  0  0  0  0  0  0  0
   28.0390   -9.7973   -2.1761 C   0  0  0  0  0  0  0  0  0  0  0  0
   26.1338  -12.9208   -4.1328 C   0  0  0  0  0  0  0  0  0  0  0  0
   26.1834  -11.6768   -4.7519 C   0  0  0  0  0  0  0  0  0  0  0  0
   26.7926  -10.6735   -4.1134 C   0  0  0  0  0  0  0  0  0  0  0  0
   28.5194  -10.1043   -1.0216 N   0  0  0  0  0  0  0  0  0  0  0  0
   28.5641  -11.0733   -0.3097 C   0  0  0  0  0  0  0  0  0  0  0  0
   28.0106  -12.3266   -0.9390 C   0  0  0  0  0  0  0  0  0  0  0  0
   29.1033  -11.2429    0.8282 F   0  0  0  0  0  0  0  0  0  0  0  0
   28.0442   -8.2011   -2.7608 Cl  0  0  0  0  0  0  0  0  0  0  0  0
   28.9812  -17.0378   -0.5318 C   0  0  0  0  0  0  0  0  0  0  0  0
   28.8693  -18.1202   -0.4395 F   0  0  0  0  0  0  0  0  0  0  0  0
   29.2638  -16.3310    0.5817 F   0  0  0  0  0  0  0  0  0  0  0  0
   30.0745  -16.8114   -1.3812 F   0  0  0  0  0  0  0  0  0  0  0  0
   24.5000  -14.8012   -2.9831 O   0  0  0  0  0  0  0  0  0  0  0  0
  1  7  1  0
  7  8  2  0
  7  9  1  0
  4 10  1  0
  9 11  1  0
 11 12  1  0
 15 19  1  0
 27 29  1  0
 22 30  1  0
 17 31  1  0
 31 32  1  0
 31 33  1  0
 31 34  1  0
 14 35  1  0
 12 13  1  0
 13 14  2  0
 14 15  1  0
 15 16  2  0
 16 17  1  0
 17 18  2  0
 18 13  1  0
  1  2  2  0
  2  6  1  0
  6  5  2  0
  5  4  1  0
  4  3  2  0
  3  1  1  0
 21 22  2  0
 22 26  1  0
 26 27  2  0
 27 28  1  0
 28 20  2  0
 19 20  1  0
 20 21  1  0
 21 25  1  0
 25 24  2  0
 24 23  1  0
 23 19  2  0
M  END
$$$$
Q92769_PocketFlow_idx-in-all-generaetd-1
     RDKit          3D

  9  8  0  0  0  0  0  0  0  0999 V2000
   20.6531  -19.0848   -0.3360 C   0  0  0  0  0  0  0  0  0  0  0  0
   20.2485  -19.0770   -1.2646 C   0  0  0  0  0  0  0  0  0  0  0  0
   20.2966  -19.1403    0.6590 C   0  0  0  0  0  0  0  0  0  0  0  0
   19.0921  -19.9155    0.9123 C   0  0  2  0  0  0  0  0  0  0  0  0
   18.9873  -19.7588   -1.2696 N   0  0  0  0  0  0  0  0  0  0  0  0
   18.5508  -20.1348   -0.2494 N   0  0  0  0  0  0  0  0  0  0  0  0
   18.5930  -20.2890    2.0480 N   0  0  0  0  0  0  0  0  0  0  0  0
   19.3436  -20.8501    1.3517 Cl  0  0  0  0  0  0  0  0  0  0  0  0
   17.4253  -20.9182   -0.4303 O   0  0  0  0  0  0  0  0  0  0  0  0
  1  2  1  0
  1  3  2  3
  3  4  1  0
  2  5  2  3
  5  6  1  0
  4  7  1  1
  4  8  1  0
  6  9  2  0
M  END
$$$$
Q92769_PocketFlow_idx-in-all-generaetd-2
     RDKit          3D

 27 29  0  0  0  0  0  0  0  0999 V2000
   20.6531  -19.0848   -0.3360 C   0  0  0  0  0  0  0  0  0  0  0  0
   19.6634  -19.8131   -0.3282 C   0  0  0  0  0  0  0  0  0  0  0  0
   21.1945  -18.5862    0.7145 C   0  0  0  0  0  0  0  0  0  0  0  0
   19.1007  -19.9683   -1.4955 F   0  0  0  0  0  0  0  0  0  0  0  0
   19.0776  -20.3936    0.7292 C   0  0  0  0  0  0  0  0  0  0  0  0
   19.5457  -19.9429    1.8940 N   0  0  0  0  0  0  0  0  0  0  0  0
   20.6494  -19.1427    2.0040 C   0  0  0  0  0  0  0  0  0  0  0  0
   18.0180  -21.1146    0.5592 N   0  0  0  0  0  0  0  0  0  0  0  0
   21.2445  -18.5651   -1.5293 O   0  0  0  0  0  0  0  0  0  0  0  0
   22.5911  -19.0651   -1.7154 C   0  0  0  0  0  0  0  0  0  0  0  0
   23.5219  -18.1532   -0.7888 C   0  0  0  0  0  0  0  0  0  0  0  0
   24.0400  -16.9370   -1.1686 C   0  0  0  0  0  0  0  0  0  0  0  0
   25.1821  -16.4444   -0.4898 C   0  0  0  0  0  0  0  0  0  0  0  0
   25.8844  -15.2799   -1.0291 C   0  0  0  0  0  0  0  0  0  0  0  0
   27.0534  -14.7367   -0.3997 C   0  0  0  0  0  0  0  0  0  0  0  0
   28.0265  -15.0912   -0.5446 C   0  0  0  0  0  0  0  0  0  0  0  0
   29.2692  -14.6552    0.2698 C   0  0  0  0  0  0  0  0  0  0  0  0
   28.9749  -13.8310    1.3584 C   0  0  0  0  0  0  0  0  0  0  0  0
   27.6468  -13.3301    1.5199 C   0  0  0  0  0  0  0  0  0  0  0  0
   26.6426  -13.8186    0.7184 C   0  0  0  0  0  0  0  0  0  0  0  0
   27.4285  -12.3364    2.6193 C   0  0  0  0  0  0  0  0  0  0  0  0
   28.0670  -12.5097    3.8575 C   0  0  0  0  0  0  0  0  0  0  0  0
   28.4667  -11.5040    4.6208 C   0  0  0  0  0  0  0  0  0  0  0  0
   29.0501  -11.7541    5.8954 C   0  0  0  0  0  0  0  0  0  0  0  0
   29.1595  -13.0650    6.3433 C   0  0  0  0  0  0  0  0  0  0  0  0
   28.7769  -14.1019    5.5170 C   0  0  0  0  0  0  0  0  0  0  0  0
   28.2574  -13.8746    4.2643 C   0  0  0  0  0  0  0  0  0  0  0  0
  2  4  1  0
  5  8  1  0
  1  9  1  0
  9 10  1  0
 10 11  1  0
 11 12  2  3
 12 13  1  0
 13 14  1  0
 14 15  1  0
 19 21  1  0
 21 22  1  0
 15 16  2  0
 16 17  1  0
 17 18  2  0
 18 19  1  0
 19 20  2  0
 20 15  1  0
 22 23  2  0
 23 24  1  0
 24 25  2  0
 25 26  1  0
 26 27  2  0
 27 22  1  0
  1  2  2  0
  2  5  1  0
  5  6  2  0
  6  7  1  0
  7  3  2  0
  3  1  1  0
M  END
$$$$
Q92769_PocketFlow_idx-in-all-generaetd-3
     RDKit          3D

 35 39  0  0  0  0  0  0  0  0999 V2000
   20.6531  -19.0848   -0.3360 C   0  0  1  0  0  0  0  0  0  0  0  0
   20.2485  -19.0770   -1.2646 C   0  0  0  0  0  0  0  0  0  0  0  0
   21.8541  -18.2796   -0.0920 C   0  0  0  0  0  0  0  0  0  0  0  0
   22.9766  -18.6983   -0.9241 C   0  0  0  0  0  0  0  0  0  0  0  0
   19.0190  -19.6399   -1.2706 O   0  0  0  0  0  0  0  0  0  0  0  0
   24.0472  -17.6490   -0.8744 C   0  0  0  0  0  0  0  0  0  0  0  0
   25.2410  -17.9053   -0.1632 C   0  0  0  0  0  0  0  0  0  0  0  0
   26.3494  -17.0161   -0.1519 C   0  0  0  0  0  0  0  0  0  0  0  0
   26.3360  -15.7966   -0.8527 C   0  0  0  0  0  0  0  0  0  0  0  0
   25.1318  -15.6292   -1.7449 C   0  0  0  0  0  0  0  0  0  0  0  0
   24.0855  -16.5066   -1.6542 C   0  0  0  0  0  0  0  0  0  0  0  0
   27.4033  -14.8629   -0.9029 C   0  0  0  0  0  0  0  0  0  0  0  0
   27.7072  -14.1275   -1.6194 C   0  0  0  0  0  0  0  0  0  0  0  0
   26.9238  -13.8636   -2.8964 C   0  0  0  0  0  0  0  0  0  0  0  0
   25.7023  -14.1757   -3.2826 C   0  0  0  0  0  0  0  0  0  0  0  0
   25.1201  -14.7254   -2.7985 C   0  0  0  0  0  0  0  0  0  0  0  0
   20.1583  -19.7429    0.8560 C   0  0  0  0  0  0  0  0  0  0  0  0
   18.9498  -20.4530    0.7988 C   0  0  0  0  0  0  0  0  0  0  0  0
   18.4174  -20.3756   -0.4633 C   0  0  0  0  0  0  0  0  0  0  0  0
   18.3041  -20.9686    1.8145 O   0  0  0  0  0  0  0  0  0  0  0  0
   27.5540  -17.3071    0.6452 C   0  0  0  0  0  0  0  0  0  0  0  0
   27.8011  -18.3448    0.8983 O   0  0  0  0  0  0  0  0  0  0  0  0
   28.3584  -16.3106    0.9442 O   0  0  0  0  0  0  0  0  0  0  0  0
   28.4129  -15.1680    0.0363 C   0  0  2  0  0  0  0  0  0  0  0  0
   29.5701  -14.2539    0.3347 C   0  0  0  0  0  0  0  0  0  0  0  0
   30.5519  -14.5512    0.8184 N   0  0  0  0  0  0  0  0  0  0  0  0
   31.4833  -15.4044    0.3847 C   0  0  0  0  0  0  0  0  0  0  0  0
   32.7124  -15.0677    0.4252 C   0  0  0  0  0  0  0  0  0  0  0  0
   30.8357  -14.0262    2.1666 C   0  0  0  0  0  0  0  0  0  0  0  0
   33.2720  -14.9159    1.8832 C   0  0  0  0  0  0  0  0  0  0  0  0
   34.6614  -14.7639    2.1016 C   0  0  0  0  0  0  0  0  0  0  0  0
   32.3079  -13.9290    2.5252 C   0  0  0  0  0  0  0  0  0  0  0  0
   35.1955  -15.9570    2.6936 C   0  0  0  0  0  0  0  0  0  0  0  0
   36.1078  -16.4537    2.0763 C   0  0  0  0  0  0  0  0  0  0  0  0
   36.5375  -17.8142    2.5108 C   0  0  0  0  0  0  0  0  0  0  0  0
  1  2  1  0
  1  3  1  1
  3  4  1  0
  2  5  1  0
  4  6  1  0
  9 12  1  0
 12 13  2  0
 13 14  1  0
 14 15  2  0
 10 16  1  0
 15 16  1  0
  1 17  1  0
 17 18  1  0
  5 19  1  0
 18 19  2  0
 18 20  1  0
  8 21  1  0
 21 22  2  0
 21 23  1  0
 12 24  1  0
 23 24  1  0
 24 25  1  1
 25 26  1  0
 26 27  1  0
 26 29  1  0
 28 30  1  0
 30 31  1  0
 29 32  1  0
 30 32  1  0
 31 33  1  0
 33 34  2  3
 34 35  1  0
 27 28  1  0
  6  7  2  0
  7  8  1  0
  8  9  2  0
  9 10  1  0
 10 11  2  0
 11  6  1  0
M  END
$$$$
Q92769_PocketFlow_idx-in-all-generaetd-4
     RDKit          3D

 35 37  0  0  0  0  0  0  0  0999 V2000
   20.6531  -19.0848   -0.3360 C   0  0  0  0  0  0  0  0  0  0  0  0
   19.6634  -19.8131   -0.3282 C   0  0  0  0  0  0  0  0  0  0  0  0
   21.7522  -19.0464    0.0754 C   0  0  0  0  0  0  0  0  0  0  0  0
   18.5081  -19.6457   -0.9783 N   0  0  0  0  0  0  0  0  0  0  0  0
   22.7982  -18.0507   -0.2098 C   0  0  0  0  0  0  0  0  0  0  0  0
   22.4953  -16.7329   -0.3553 C   0  0  0  0  0  0  0  0  0  0  0  0
   19.6461  -20.8119    0.4711 O   0  0  0  0  0  0  0  0  0  0  0  0
   23.6102  -15.9050   -0.7546 C   0  0  0  0  0  0  0  0  0  0  0  0
   24.9121  -16.3914   -0.9103 C   0  0  0  0  0  0  0  0  0  0  0  0
   24.2006  -18.4044   -0.3274 C   0  0  0  0  0  0  0  0  0  0  0  0
   25.2365  -17.6270   -0.5579 C   0  0  0  0  0  0  0  0  0  0  0  0
   25.9501  -15.3746   -1.2849 C   0  0  0  0  0  0  0  0  0  0  0  0
   25.9438  -14.7654   -2.5603 C   0  0  0  0  0  0  0  0  0  0  0  0
   26.9128  -13.8464   -2.9665 C   0  0  0  0  0  0  0  0  0  0  0  0
   27.9201  -13.5261   -2.0729 C   0  0  0  0  0  0  0  0  0  0  0  0
   27.0477  -14.9649   -0.4966 C   0  0  0  0  0  0  0  0  0  0  0  0
   27.9465  -14.0464   -0.7982 C   0  0  0  0  0  0  0  0  0  0  0  0
   26.7852  -13.2379   -4.2885 C   0  0  0  0  0  0  0  0  0  0  0  0
   26.3801  -13.9866   -5.1226 F   0  0  0  0  0  0  0  0  0  0  0  0
   25.8228  -12.1605   -4.2525 F   0  0  0  0  0  0  0  0  0  0  0  0
   27.8509  -12.5432   -4.7150 F   0  0  0  0  0  0  0  0  0  0  0  0
   28.9825  -13.6297    0.1488 C   0  0  0  0  0  0  0  0  0  0  0  0
   30.1059  -14.1371    0.1529 C   0  0  1  0  0  0  0  0  0  0  0  0
   30.4545  -15.3109   -0.2344 C   0  0  0  0  0  0  0  0  0  0  0  0
   31.2346  -15.6554   -0.7638 C   0  0  0  0  0  0  0  0  0  0  0  0
   31.4277  -17.1166   -1.3512 C   0  0  0  0  0  0  0  0  0  0  0  0
   32.2224  -17.4921   -2.3038 C   0  0  0  0  0  0  0  0  0  0  0  0
   33.1848  -16.5787   -2.7092 C   0  0  0  0  0  0  0  0  0  0  0  0
   33.1905  -15.3380   -2.2905 C   0  0  0  0  0  0  0  0  0  0  0  0
   32.2574  -14.8506   -1.4428 C   0  0  0  0  0  0  0  0  0  0  0  0
   31.3044  -13.2344    0.5282 C   0  0  0  0  0  0  0  0  0  0  0  0
   31.6030  -13.1066    1.7202 C   0  0  0  0  0  0  0  0  0  0  0  0
   30.7664  -13.6839    2.8622 C   0  0  0  0  0  0  0  0  0  0  0  0
   30.2312  -12.9176    3.7829 N   0  0  0  0  0  0  0  0  0  0  0  0
   28.9201  -12.6706    3.7804 C   0  0  0  0  0  0  0  0  0  0  0  0
  1  2  2  3
  1  3  1  0
  2  4  1  0
  2  7  1  0
  9 12  1  0
 14 18  1  0
 18 19  1  0
 18 20  1  0
 18 21  1  0
 17 22  1  0
 23 22  1  6
 23 24  1  0
 23 31  1  0
 31 32  2  3
 32 33  1  0
 33 34  1  0
 34 35  1  0
 24 25  1  0
  3  5  1  0
 12 13  2  0
 13 14  1  0
 14 15  2  0
 15 17  1  0
 17 16  2  0
 16 12  1  0
  5  6  2  0
  6  8  1  0
  8  9  2  0
  9 11  1  0
 11 10  2  0
 10  5  1  0
 25 26  2  0
 26 27  1  0
 27 28  2  0
 28 29  1  0
 29 30  2  0
 30 25  1  0
M  END
$$$$
Q92769_PocketFlow_idx-in-all-generaetd-5
     RDKit          3D

 10  9  0  0  0  0  0  0  0  0999 V2000
   20.6531  -19.0848   -0.3360 C   0  0  0  0  0  0  0  0  0  0  0  0
   19.8795  -19.4408   -1.3062 P   0  0  2  0  0  0  0  0  0  0  0  0
   20.4097  -19.4499   -2.5626 O   0  0  0  0  0  0  0  0  0  0  0  0
   18.7322  -18.3525   -1.4393 O   0  0  0  0  0  0  0  0  0  0  0  0
   19.0501  -20.6721   -0.9593 O   0  0  0  0  0  0  0  0  0  0  0  0
   21.6601  -19.3517   -0.1691 F   0  0  0  0  0  0  0  0  0  0  0  0
   19.5960  -21.3758   -0.1219 F   0  0  0  0  0  0  0  0  0  0  0  0
   20.1609  -18.4107    0.7885 F   0  0  0  0  0  0  0  0  0  0  0  0
   21.4276  -18.0812   -0.9126 O   0  0  0  0  0  0  0  0  0  0  0  0
   21.2769  -17.0162   -0.3868 F   0  0  0  0  0  0  0  0  0  0  0  0
  1  2  1  0
  2  3  2  0
  2  4  1  6
  2  5  1  0
  1  6  1  0
  5  7  1  0
  1  8  1  0
  1  9  1  0
  9 10  1  0
M  END
$$$$
Q92769_PocketFlow_idx-in-all-generaetd-6
     RDKit          3D

  8  7  0  0  0  0  0  0  0  0999 V2000
   20.6531  -19.0848   -0.3360 C   0  0  0  0  0  0  0  0  0  0  0  0
   19.6634  -19.8131   -0.3282 C   0  0  0  0  0  0  0  0  0  0  0  0
   21.1436  -18.6603   -1.3555 O   0  0  0  0  0  0  0  0  0  0  0  0
   19.1478  -20.1381    0.8859 C   0  0  0  0  0  0  0  0  0  0  0  0
   21.3140  -18.7134    0.6690 O   0  0  0  0  0  0  0  0  0  0  0  0
   18.0856  -20.9596    0.9761 O   0  0  0  0  0  0  0  0  0  0  0  0
   19.2593  -19.3773    1.9823 O   0  0  0  0  0  0  0  0  0  0  0  0
   18.9889  -20.2083   -1.3604 O   0  0  0  0  0  0  0  0  0  0  0  0
  1  2  1  0
  1  3  2  0
  2  4  1  0
  1  5  1  0
  4  6  1  0
  4  7  1  0
  2  8  2  0
M  END
$$$$
Q92769_PocketFlow_idx-in-all-generaetd-7
     RDKit          3D

 20 21  0  0  0  0  0  0  0  0999 V2000
   20.6531  -19.0848   -0.3360 C   0  0  0  0  0  0  0  0  0  0  0  0
   20.2485  -19.0770   -1.2646 C   0  0  0  0  0  0  0  0  0  0  0  0
   20.0830  -19.7449    0.8608 C   0  0  0  0  0  0  0  0  0  0  0  0
   18.9470  -20.4533    0.7487 C   0  0  0  0  0  0  0  0  0  0  0  0
   18.5267  -21.0918    1.8025 N   0  0  0  0  0  0  0  0  0  0  0  0
   20.8308  -18.3706   -2.2731 F   0  0  0  0  0  0  0  0  0  0  0  0
   18.3497  -20.4501   -0.4104 N   0  0  0  0  0  0  0  0  0  0  0  0
   18.9226  -19.6999   -1.4789 C   0  0  0  0  0  0  0  0  0  0  0  0
   22.0263  -18.3814    0.0314 C   0  0  0  0  0  0  0  0  0  0  0  0
   22.6372  -17.6735   -1.0415 C   0  0  0  0  0  0  0  0  0  0  0  0
   23.9743  -17.0751   -0.6703 C   0  0  0  0  0  0  0  0  0  0  0  0
   24.5317  -16.1839   -1.6071 C   0  0  0  0  0  0  0  0  0  0  0  0
   25.8302  -15.6199   -1.3080 C   0  0  0  0  0  0  0  0  0  0  0  0
   26.3545  -14.5109   -1.9910 C   0  0  0  0  0  0  0  0  0  0  0  0
   27.4106  -13.7335   -1.4984 C   0  0  0  0  0  0  0  0  0  0  0  0
   28.0648  -14.2474   -0.3559 C   0  0  0  0  0  0  0  0  0  0  0  0
   27.6305  -15.3562    0.3123 C   0  0  0  0  0  0  0  0  0  0  0  0
   26.4790  -16.0317   -0.0849 C   0  0  0  0  0  0  0  0  0  0  0  0
   25.6034  -14.0440   -3.1521 C   0  0  0  0  0  0  0  0  0  0  0  0
   26.2402  -14.3515   -4.3975 C   0  0  0  0  0  0  0  0  0  0  0  0
  4  5  1  0
  2  6  1  0
  1  9  1  0
  9 10  1  0
 10 11  1  0
 11 12  2  3
 12 13  1  0
 14 19  1  0
 19 20  1  0
  1  2  2  0
  2  8  1  0
  8  7  2  0
  7  4  1  0
  4  3  2  0
  3  1  1  0
 13 14  2  0
 14 15  1  0
 15 16  2  0
 16 17  1  0
 17 18  2  0
 18 13  1  0
M  END
$$$$