lig2
                    3D
 Schrodinger Suite 2020-3.
 44 45  0  0  1  0            999 V2000
   27.1746  -14.0896   -0.4973 O   0  0  0  0  0  0
   27.4874  -14.6703    0.5415 C   0  0  0  0  0  0
   27.6273  -13.9275    1.7742 C   0  0  0  0  0  0
   28.3014  -14.3379    2.8749 C   0  0  0  0  0  0
   28.4905  -13.5598    4.1210 C   0  0  0  0  0  0
   28.0989  -12.2197    4.2272 C   0  0  0  0  0  0
   28.2874  -11.4968    5.4021 C   0  0  0  0  0  0
   28.8823  -12.1117    6.5253 C   0  0  0  0  0  0
   29.0874  -11.4320    7.7530 C   0  0  0  0  0  0
   29.6799  -12.1066    8.8177 C   0  0  0  0  0  0
   30.0664  -13.4320    8.6389 C   0  0  0  0  0  0
   29.8872  -14.1128    7.4812 N   0  0  0  0  0  0
   29.2976  -13.4737    6.4326 C   0  0  0  0  0  0
   29.0911  -14.1806    5.2213 C   0  0  0  0  0  0
   27.6849  -16.0017    0.6021 N   0  0  0  0  0  0
   27.5871  -16.9218   -0.5346 C   0  0  0  0  0  0
   26.1858  -17.0270   -1.1835 C   0  0  0  0  0  0
   25.0819  -17.5442   -0.2465 C   0  0  0  0  0  0
   23.7063  -17.6574   -0.9273 C   0  0  0  0  0  0
   22.6580  -18.3324   -0.0181 C   0  0  0  0  0  0
   21.2596  -18.3644   -0.6412 C   0  0  0  0  0  0
   20.7044  -17.3201   -0.9979 O   0  0  0  0  0  0
   20.6696  -19.5522   -0.8074 N   0  0  0  0  0  0
   19.4874  -19.7129   -1.3979 O   0  5  0  0  0  0
   27.1534  -12.9594    1.7368 H   0  0  0  0  0  0
   28.7687  -15.3129    2.8729 H   0  0  0  0  0  0
   27.6446  -11.7098    3.3923 H   0  0  0  0  0  0
   27.9737  -10.4646    5.4642 H   0  0  0  0  0  0
   28.7789  -10.4021    7.8572 H   0  0  0  0  0  0
   29.8420  -11.6078    9.7625 H   0  0  0  0  0  0
   30.5401  -13.9815    9.4394 H   0  0  0  0  0  0
   29.4236  -15.2091    5.1605 H   0  0  0  0  0  0
   28.0236  -16.3993    1.4680 H   0  0  0  0  0  0
   28.3399  -16.6711   -1.2842 H   0  0  0  0  0  0
   27.8653  -17.9025   -0.1440 H   0  0  0  0  0  0
   25.8954  -16.0618   -1.5992 H   0  0  0  0  0  0
   26.2541  -17.6961   -2.0383 H   0  0  0  0  0  0
   25.3778  -18.5129    0.1565 H   0  0  0  0  0  0
   24.9945  -16.8711    0.6021 H   0  0  0  0  0  0
   23.3722  -16.6584   -1.2151 H   0  0  0  0  0  0
   23.8061  -18.2309   -1.8511 H   0  0  0  0  0  0
   22.9878  -19.3460    0.2021 H   0  0  0  0  0  0
   22.5863  -17.8094    0.9359 H   0  0  0  0  0  0
   21.1664  -20.3758   -0.4974 H   0  0  0  0  0  0
  1  2  2  0  0  0
  2  3  1  0  0  0
  2 15  1  0  0  0
  3  4  2  0  0  0
  3 25  1  0  0  0
  4  5  1  0  0  0
  4 26  1  0  0  0
  5 14  1  0  0  0
  5  6  2  0  0  0
  6  7  1  0  0  0
  6 27  1  0  0  0
  7  8  2  0  0  0
  7 28  1  0  0  0
  8 13  1  0  0  0
  8  9  1  0  0  0
  9 10  2  0  0  0
  9 29  1  0  0  0
 10 11  1  0  0  0
 10 30  1  0  0  0
 11 12  2  0  0  0
 11 31  1  0  0  0
 12 13  1  0  0  0
 13 14  2  0  0  0
 14 32  1  0  0  0
 15 16  1  0  0  0
 15 33  1  0  0  0
 16 17  1  0  0  0
 16 34  1  0  0  0
 16 35  1  0  0  0
 17 18  1  0  0  0
 17 36  1  0  0  0
 17 37  1  0  0  0
 18 19  1  0  0  0
 18 38  1  0  0  0
 18 39  1  0  0  0
 19 20  1  0  0  0
 19 40  1  0  0  0
 19 41  1  0  0  0
 20 21  1  0  0  0
 20 42  1  0  0  0
 20 43  1  0  0  0
 21 22  2  0  0  0
 21 23  1  0  0  0
 23 24  1  0  0  0
 23 44  1  0  0  0
M  CHG  1  24  -1
M  END
> <s_m_source_file>
/home/user-home/yujie/0_PBCNetv2/data/0_0_high_sim/0_noncov/Sries18355/ligprep_input.csv

> <i_m_source_file_index>
3

> <i_lp_mmshare_version>
51139

> <i_f3d_flags>
0

> <s_epik_input>
W09IXVtOSF1DKD1PKVtDSDJdW0NIMl1bQ0gyXVtDSDJdW0NIMl1bTkhdQyg9TykvW0NIXT1bQ0hdL2MoW2NIXVtjSF0xKVtjSF1jKGMxMiluW2NIXVtjSF1bY0hdMg==

> <s_epik_cmdline>
J2VwaWtfcHl0aG9uJywgJy1waHQnLCAnMi4wJywgJy1waCcsICc3LjQnLCAnLXRuJywgJzgnLCAnLW1hJywgJzIwMCcsICctaW1hZScsICc8aW5maWxlLm1hZT4nLCAnLW9tYWUnLCAnPG91dGZpbGUubWFlPic=

> <r_lp_tautomer_probability>
0.996386

> <r_epik_Ionization_Penalty>
  2.5196

> <r_epik_Ionization_Penalty_Charging>
  2.5009

> <r_epik_Ionization_Penalty_Neutral>
  0.0186

> <r_epik_State_Penalty>
  2.6660

> <r_epik_Charging_Adjusted_Penalty>
5.16689

> <i_epik_Tot_Q>
-1

> <i_epik_Tot_abs_Q>
1

> <s_lp_Force_Field>
OPLS3e

> <r_lp_Energy>
29.0042

> <b_lp_Chiralities_Consistent>
1

> <s_lp_Variant>
lig2-2

> <s_i_glide_gridfile>
Sries63329-001-gridgen

> <i_i_glide_lignum>
6

> <i_i_glide_rotatable_bonds>
10

> <r_i_docking_score>
-4.74609267879284

> <r_i_glide_ligand_efficiency>
-0.197753861616368

> <r_i_glide_ligand_efficiency_sa>
-0.5704208432814

> <r_i_glide_ligand_efficiency_ln>
-1.13595776203716

> <r_i_glide_gscore>
-7.41205267879284

> <r_i_glide_lipo>
-0.964613264277716

> <r_i_glide_hbond>
-0.48

> <r_i_glide_metal>
-1.24252094029355

> <r_i_glide_rewards>
-1.51414278459359

> <r_i_glide_evdw>
-33.4007415771484

> <r_i_glide_ecoul>
-17.7926063537598

> <r_i_glide_erotb>
1.40850990417102

> <r_i_glide_esite>
-0.28035756187761

> <r_i_glide_emodel>
-93.6659033782458

> <r_i_glide_energy>
-51.1933479309082

> <r_i_glide_einternal>
4.66454029083252

> <i_i_glide_confnum>
115

> <i_i_glide_posenum>
223

> <r_i_glide_eff_state_penalty>
2.66596

$$$$
