Q92769_Sries19298_DeleteHit2Lead(CrossDock)_idx-in-all-generaetd-0
     RDKit          3D

 26 27  0  0  0  0  0  0  0  0999 V2000
   20.2887  -19.9483    0.3749 N   0  0  0  0  0  0  0  0  0  0  0  0
   27.6107  -16.5945    0.0018 C   0  0  0  0  0  0  0  0  0  0  0  0
   20.8876  -18.9155   -0.2401 C   0  0  0  0  0  0  0  0  0  0  0  0
   24.6345  -17.6741   -0.5580 C   0  0  0  0  0  0  0  0  0  0  0  0
   20.2875  -18.1419   -0.9978 O   0  0  0  0  0  0  0  0  0  0  0  0
   27.9398  -12.6116    2.2488 C   0  0  0  0  0  0  0  0  0  0  0  0
   29.4875  -12.9549    4.5392 C   0  0  0  0  0  0  0  0  0  0  0  0
   23.1096  -17.6584   -0.7826 C   0  0  0  0  0  0  0  0  0  0  0  0
   22.3870  -18.7409    0.0465 C   0  0  0  0  0  0  0  0  0  0  0  0
   28.2099  -11.5147    3.0704 C   0  0  0  0  0  0  0  0  0  0  0  0
   29.2380  -14.0387    3.6988 C   0  0  0  0  0  0  0  0  0  0  0  0
   27.5884  -15.1806    0.6024 C   0  0  0  0  0  0  0  0  0  0  0  0
   28.2877  -15.0290    1.7490 N   0  0  0  0  0  0  0  0  0  0  0  0
   18.9266  -20.1774    0.1320 O   0  0  0  0  0  0  0  0  0  0  0  0
   26.9589  -14.2850    0.0384 O   0  0  0  0  0  0  0  0  0  0  0  0
   25.3763  -16.6244   -1.4068 C   0  0  0  0  0  0  0  0  0  0  0  0
   28.9725  -11.6969    4.2277 C   0  0  0  0  0  0  0  0  0  0  0  0
   28.4644  -13.8808    2.5447 C   0  0  0  0  0  0  0  0  0  0  0  0
   26.9180  -16.7452   -1.3790 C   0  0  0  0  0  0  0  0  0  0  0  0
   27.6264  -10.2380    2.7268 C   0  0  0  0  0  0  0  0  0  0  0  0
   27.1940   -9.3997    3.6395 N   0  0  0  0  0  0  0  0  0  0  0  0
   27.5665   -9.7710    1.4460 C   0  0  0  0  0  0  0  0  0  0  0  0
   28.0684  -10.4686    0.2734 C   0  0  0  0  0  0  0  0  0  0  0  0
   27.6256   -9.9081   -1.0312 C   0  0  0  0  0  0  0  0  0  0  0  0
   27.0387   -8.4682    1.2814 C   0  0  0  0  0  0  0  0  0  0  0  0
   26.8013   -8.1942    3.1473 C   0  0  0  0  0  0  0  0  0  0  0  0
  3  5  2  0
  3  9  1  0
  8  9  1  0
  4  8  1  0
  4 16  1  0
 16 19  1  0
  2 19  1  0
  2 12  1  0
 12 15  2  0
 12 13  1  0
 13 18  1  0
 11 18  2  0
  7 11  1  0
  7 17  2  0
 10 17  1  0
  6 18  1  0
  6 10  2  0
  1  3  1  0
  1 14  1  0
 10 20  1  0
 20 21  1  0
 20 22  2  0
 22 23  1  0
 23 24  1  0
 22 25  1  0
 21 26  1  0
 25 26  1  0
M  END
$$$$
Q92769_Sries19298_DeleteHit2Lead(CrossDock)_idx-in-all-generaetd-1
     RDKit          3D

 26 27  0  0  0  0  0  0  0  0999 V2000
   20.2887  -19.9483    0.3749 N   0  0  0  0  0  0  0  0  0  0  0  0
   27.6107  -16.5945    0.0018 C   0  0  0  0  0  0  0  0  0  0  0  0
   20.8876  -18.9155   -0.2401 C   0  0  0  0  0  0  0  0  0  0  0  0
   24.6345  -17.6741   -0.5580 C   0  0  0  0  0  0  0  0  0  0  0  0
   20.2875  -18.1419   -0.9978 O   0  0  0  0  0  0  0  0  0  0  0  0
   27.9398  -12.6116    2.2488 C   0  0  0  0  0  0  0  0  0  0  0  0
   29.4875  -12.9549    4.5392 C   0  0  0  0  0  0  0  0  0  0  0  0
   23.1096  -17.6584   -0.7826 C   0  0  0  0  0  0  0  0  0  0  0  0
   22.3870  -18.7409    0.0465 C   0  0  0  0  0  0  0  0  0  0  0  0
   28.2099  -11.5147    3.0704 C   0  0  0  0  0  0  0  0  0  0  0  0
   29.2380  -14.0387    3.6988 C   0  0  0  0  0  0  0  0  0  0  0  0
   27.5884  -15.1806    0.6024 C   0  0  0  0  0  0  0  0  0  0  0  0
   28.2877  -15.0290    1.7490 N   0  0  0  0  0  0  0  0  0  0  0  0
   18.9266  -20.1774    0.1320 O   0  0  0  0  0  0  0  0  0  0  0  0
   26.9589  -14.2850    0.0384 O   0  0  0  0  0  0  0  0  0  0  0  0
   25.3763  -16.6244   -1.4068 C   0  0  0  0  0  0  0  0  0  0  0  0
   28.9725  -11.6969    4.2277 C   0  0  0  0  0  0  0  0  0  0  0  0
   28.4644  -13.8808    2.5447 C   0  0  0  0  0  0  0  0  0  0  0  0
   26.9180  -16.7452   -1.3790 C   0  0  0  0  0  0  0  0  0  0  0  0
   27.6264  -10.2380    2.7268 C   0  0  0  0  0  0  0  0  0  0  0  0
   27.1940   -9.3997    3.6395 O   0  0  0  0  0  0  0  0  0  0  0  0
   26.8627   -8.2028    3.0013 C   0  0  0  0  0  0  0  0  0  0  0  0
   27.5430   -9.8329    1.4303 C   0  0  0  0  0  0  0  0  0  0  0  0
   27.9519  -10.3225    0.2485 C   0  0  0  0  0  0  0  0  0  0  0  0
   27.5331   -9.9150   -1.0287 O   0  0  0  0  0  0  0  0  0  0  0  0
   26.8700   -8.4392    1.4287 C   0  0  0  0  0  0  0  0  0  0  0  0
  3  5  2  0
  3  9  1  0
  8  9  1  0
  4  8  1  0
  4 16  1  0
 16 19  1  0
  2 19  1  0
  2 12  1  0
 12 15  2  0
 12 13  1  0
 13 18  1  0
 11 18  2  0
  7 11  1  0
  7 17  2  0
 10 17  1  0
  6 18  1  0
  6 10  2  0
  1  3  1  0
  1 14  1  0
 10 20  1  0
 20 21  1  0
 21 22  1  0
 20 23  2  0
 23 24  1  0
 24 25  1  0
 22 26  2  0
 23 26  1  0
M  END
$$$$
Q92769_Sries19298_DeleteHit2Lead(CrossDock)_idx-in-all-generaetd-2
     RDKit          3D

 24 25  0  0  0  0  0  0  0  0999 V2000
   20.2887  -19.9483    0.3749 N   0  0  0  0  0  0  0  0  0  0  0  0
   27.6107  -16.5945    0.0018 C   0  0  0  0  0  0  0  0  0  0  0  0
   20.8876  -18.9155   -0.2401 C   0  0  0  0  0  0  0  0  0  0  0  0
   24.6345  -17.6741   -0.5580 C   0  0  0  0  0  0  0  0  0  0  0  0
   20.2875  -18.1419   -0.9978 O   0  0  0  0  0  0  0  0  0  0  0  0
   27.9398  -12.6116    2.2488 C   0  0  0  0  0  0  0  0  0  0  0  0
   29.4875  -12.9549    4.5392 C   0  0  0  0  0  0  0  0  0  0  0  0
   23.1096  -17.6584   -0.7826 C   0  0  0  0  0  0  0  0  0  0  0  0
   22.3870  -18.7409    0.0465 C   0  0  0  0  0  0  0  0  0  0  0  0
   28.2099  -11.5147    3.0704 C   0  0  0  0  0  0  0  0  0  0  0  0
   29.2380  -14.0387    3.6988 C   0  0  0  0  0  0  0  0  0  0  0  0
   27.5884  -15.1806    0.6024 C   0  0  0  0  0  0  0  0  0  0  0  0
   28.2877  -15.0290    1.7490 N   0  0  0  0  0  0  0  0  0  0  0  0
   18.9266  -20.1774    0.1320 O   0  0  0  0  0  0  0  0  0  0  0  0
   26.9589  -14.2850    0.0384 O   0  0  0  0  0  0  0  0  0  0  0  0
   25.3763  -16.6244   -1.4068 C   0  0  0  0  0  0  0  0  0  0  0  0
   28.9725  -11.6969    4.2277 C   0  0  0  0  0  0  0  0  0  0  0  0
   28.4644  -13.8808    2.5447 C   0  0  0  0  0  0  0  0  0  0  0  0
   26.9180  -16.7452   -1.3790 C   0  0  0  0  0  0  0  0  0  0  0  0
   27.6264  -10.2380    2.7268 C   0  0  0  0  0  0  0  0  0  0  0  0
   27.1940   -9.3997    3.6395 O   0  0  0  0  0  0  0  0  0  0  0  0
   26.8627   -8.2028    3.0013 C   0  0  0  0  0  0  0  0  0  0  0  0
   27.8537   -9.5725    1.5423 C   0  0  0  0  0  0  0  0  0  0  0  0
   27.2914   -8.3444    1.4953 C   0  0  0  0  0  0  0  0  0  0  0  0
  3  5  2  0
  3  9  1  0
  8  9  1  0
  4  8  1  0
  4 16  1  0
 16 19  1  0
  2 19  1  0
  2 12  1  0
 12 15  2  0
 12 13  1  0
 13 18  1  0
 11 18  2  0
  7 11  1  0
  7 17  2  0
 10 17  1  0
  6 18  1  0
  6 10  2  0
  1  3  1  0
  1 14  1  0
 10 20  1  0
 20 21  1  0
 21 22  1  0
 20 23  2  0
 22 24  1  0
 23 24  1  0
M  END
$$$$
Q92769_Sries19298_DeleteHit2Lead(CrossDock)_idx-in-all-generaetd-3
     RDKit          3D

 27 28  0  0  0  0  0  0  0  0999 V2000
   20.2887  -19.9483    0.3749 N   0  0  0  0  0  0  0  0  0  0  0  0
   27.6107  -16.5945    0.0018 C   0  0  0  0  0  0  0  0  0  0  0  0
   20.8876  -18.9155   -0.2401 C   0  0  0  0  0  0  0  0  0  0  0  0
   24.6345  -17.6741   -0.5580 C   0  0  0  0  0  0  0  0  0  0  0  0
   20.2875  -18.1419   -0.9978 O   0  0  0  0  0  0  0  0  0  0  0  0
   27.9398  -12.6116    2.2488 C   0  0  0  0  0  0  0  0  0  0  0  0
   29.4875  -12.9549    4.5392 C   0  0  0  0  0  0  0  0  0  0  0  0
   23.1096  -17.6584   -0.7826 C   0  0  0  0  0  0  0  0  0  0  0  0
   22.3870  -18.7409    0.0465 C   0  0  0  0  0  0  0  0  0  0  0  0
   28.2099  -11.5147    3.0704 C   0  0  0  0  0  0  0  0  0  0  0  0
   29.2380  -14.0387    3.6988 C   0  0  0  0  0  0  0  0  0  0  0  0
   27.5884  -15.1806    0.6024 C   0  0  0  0  0  0  0  0  0  0  0  0
   28.2877  -15.0290    1.7490 N   0  0  0  0  0  0  0  0  0  0  0  0
   18.9266  -20.1774    0.1320 O   0  0  0  0  0  0  0  0  0  0  0  0
   26.9589  -14.2850    0.0384 O   0  0  0  0  0  0  0  0  0  0  0  0
   25.3763  -16.6244   -1.4068 C   0  0  0  0  0  0  0  0  0  0  0  0
   28.9725  -11.6969    4.2277 C   0  0  0  0  0  0  0  0  0  0  0  0
   28.4644  -13.8808    2.5447 C   0  0  0  0  0  0  0  0  0  0  0  0
   26.9180  -16.7452   -1.3790 C   0  0  0  0  0  0  0  0  0  0  0  0
   27.6298  -10.1561    2.7394 C   0  0  0  0  0  0  0  0  0  0  0  0
   27.1911   -9.3818    3.6370 O   0  0  0  0  0  0  0  0  0  0  0  0
   27.5409   -9.7810    1.4233 C   0  0  0  0  0  0  0  0  0  0  0  0
   26.7365   -8.2731    2.9298 N   0  0  0  0  0  0  0  0  0  0  0  0
   27.9802  -10.2223    0.2171 C   0  0  0  0  0  0  0  0  0  0  0  0
   28.8059  -11.2343    0.0378 O   0  0  0  0  0  0  0  0  0  0  0  0
   27.5727   -9.7346   -1.0670 N   0  0  0  0  0  0  0  0  0  0  0  0
   26.8863   -8.4554    1.5167 C   0  0  0  0  0  0  0  0  0  0  0  0
  3  5  2  0
  3  9  1  0
  8  9  1  0
  4  8  1  0
  4 16  1  0
 16 19  1  0
  2 19  1  0
  2 12  1  0
 12 15  2  0
 12 13  1  0
 13 18  1  0
 11 18  2  0
  7 11  1  0
  7 17  2  0
 10 17  1  0
  6 18  1  0
  6 10  2  0
  1  3  1  0
  1 14  1  0
 10 20  1  0
 20 21  1  0
 20 22  2  0
 21 23  1  0
 22 24  1  0
 24 25  2  0
 24 26  1  0
 22 27  1  0
 23 27  2  0
M  END
$$$$
Q92769_Sries19298_DeleteHit2Lead(CrossDock)_idx-in-all-generaetd-4
     RDKit          3D

 24 25  0  0  0  0  0  0  0  0999 V2000
   20.2887  -19.9483    0.3749 N   0  0  0  0  0  0  0  0  0  0  0  0
   27.6107  -16.5945    0.0018 C   0  0  0  0  0  0  0  0  0  0  0  0
   20.8876  -18.9155   -0.2401 C   0  0  0  0  0  0  0  0  0  0  0  0
   24.6345  -17.6741   -0.5580 C   0  0  0  0  0  0  0  0  0  0  0  0
   20.2875  -18.1419   -0.9978 O   0  0  0  0  0  0  0  0  0  0  0  0
   27.9398  -12.6116    2.2488 C   0  0  0  0  0  0  0  0  0  0  0  0
   29.4875  -12.9549    4.5392 C   0  0  0  0  0  0  0  0  0  0  0  0
   23.1096  -17.6584   -0.7826 C   0  0  0  0  0  0  0  0  0  0  0  0
   22.3870  -18.7409    0.0465 C   0  0  0  0  0  0  0  0  0  0  0  0
   28.2099  -11.5147    3.0704 C   0  0  0  0  0  0  0  0  0  0  0  0
   29.2380  -14.0387    3.6988 C   0  0  0  0  0  0  0  0  0  0  0  0
   27.5884  -15.1806    0.6024 C   0  0  0  0  0  0  0  0  0  0  0  0
   28.2877  -15.0290    1.7490 N   0  0  0  0  0  0  0  0  0  0  0  0
   18.9266  -20.1774    0.1320 O   0  0  0  0  0  0  0  0  0  0  0  0
   26.9589  -14.2850    0.0384 O   0  0  0  0  0  0  0  0  0  0  0  0
   25.3763  -16.6244   -1.4068 C   0  0  0  0  0  0  0  0  0  0  0  0
   28.9725  -11.6969    4.2277 C   0  0  0  0  0  0  0  0  0  0  0  0
   28.4644  -13.8808    2.5447 C   0  0  0  0  0  0  0  0  0  0  0  0
   26.9180  -16.7452   -1.3790 C   0  0  0  0  0  0  0  0  0  0  0  0
   27.6264  -10.2380    2.7268 C   0  0  0  0  0  0  0  0  0  0  0  0
   27.1940   -9.3997    3.6395 N   0  0  0  0  0  0  0  0  0  0  0  0
   26.8048   -8.2503    2.9376 C   0  0  0  0  0  0  0  0  0  0  0  0
   27.0536   -8.4626    1.5411 N   0  0  0  0  0  0  0  0  0  0  0  0
   27.6471   -9.6686    1.3173 C   0  0  0  0  0  0  0  0  0  0  0  0
  3  5  2  0
  3  9  1  0
  8  9  1  0
  4  8  1  0
  4 16  1  0
 16 19  1  0
  2 19  1  0
  2 12  1  0
 12 15  2  0
 12 13  1  0
 13 18  1  0
 11 18  2  0
  7 11  1  0
  7 17  2  0
 10 17  1  0
  6 18  1  0
  6 10  2  0
  1  3  1  0
  1 14  1  0
 10 20  1  0
 20 21  1  0
 21 22  2  0
 22 23  1  0
 20 24  2  0
 23 24  2  0
M  END
$$$$
Q92769_Sries19298_DeleteHit2Lead(CrossDock)_idx-in-all-generaetd-5
     RDKit          3D

 24 25  0  0  0  0  0  0  0  0999 V2000
   20.2887  -19.9483    0.3749 N   0  0  0  0  0  0  0  0  0  0  0  0
   27.6107  -16.5945    0.0018 C   0  0  0  0  0  0  0  0  0  0  0  0
   20.8876  -18.9155   -0.2401 C   0  0  0  0  0  0  0  0  0  0  0  0
   24.6345  -17.6741   -0.5580 C   0  0  0  0  0  0  0  0  0  0  0  0
   20.2875  -18.1419   -0.9978 O   0  0  0  0  0  0  0  0  0  0  0  0
   27.9398  -12.6116    2.2488 C   0  0  0  0  0  0  0  0  0  0  0  0
   29.4875  -12.9549    4.5392 C   0  0  0  0  0  0  0  0  0  0  0  0
   23.1096  -17.6584   -0.7826 C   0  0  0  0  0  0  0  0  0  0  0  0
   22.3870  -18.7409    0.0465 C   0  0  0  0  0  0  0  0  0  0  0  0
   28.2099  -11.5147    3.0704 C   0  0  0  0  0  0  0  0  0  0  0  0
   29.2380  -14.0387    3.6988 C   0  0  0  0  0  0  0  0  0  0  0  0
   27.5884  -15.1806    0.6024 C   0  0  0  0  0  0  0  0  0  0  0  0
   28.2877  -15.0290    1.7490 N   0  0  0  0  0  0  0  0  0  0  0  0
   18.9266  -20.1774    0.1320 O   0  0  0  0  0  0  0  0  0  0  0  0
   26.9589  -14.2850    0.0384 O   0  0  0  0  0  0  0  0  0  0  0  0
   25.3763  -16.6244   -1.4068 C   0  0  0  0  0  0  0  0  0  0  0  0
   28.9725  -11.6969    4.2277 C   0  0  0  0  0  0  0  0  0  0  0  0
   28.4644  -13.8808    2.5447 C   0  0  0  0  0  0  0  0  0  0  0  0
   26.9180  -16.7452   -1.3790 C   0  0  0  0  0  0  0  0  0  0  0  0
   27.6264  -10.2380    2.7268 C   0  0  2  0  0  0  0  0  0  0  0  0
   27.4770   -9.8053    1.5073 N   0  0  0  0  0  0  0  0  0  0  0  0
   26.8947   -8.6076    1.3090 C   0  0  0  0  0  0  0  0  0  0  0  0
   26.7231   -7.9927    2.5499 N   0  0  0  0  0  0  0  0  0  0  0  0
   27.3630   -9.2113    3.7624 C   0  0  0  0  0  0  0  0  0  0  0  0
  3  5  2  0
  3  9  1  0
  8  9  1  0
  4  8  1  0
  4 16  1  0
 16 19  1  0
  2 19  1  0
  2 12  1  0
 12 15  2  0
 12 13  1  0
 13 18  1  0
 11 18  2  0
  7 11  1  0
  7 17  2  0
 10 17  1  0
  6 18  1  0
  6 10  2  0
  1  3  1  0
  1 14  1  0
 20 10  1  6
 20 21  1  0
 21 22  2  0
 22 23  1  0
 20 24  1  0
 23 24  1  0
M  END
$$$$
Q92769_Sries19298_DeleteHit2Lead(CrossDock)_idx-in-all-generaetd-6
     RDKit          3D

 24 25  0  0  0  0  0  0  0  0999 V2000
   20.2887  -19.9483    0.3749 N   0  0  0  0  0  0  0  0  0  0  0  0
   27.6107  -16.5945    0.0018 C   0  0  0  0  0  0  0  0  0  0  0  0
   20.8876  -18.9155   -0.2401 C   0  0  0  0  0  0  0  0  0  0  0  0
   24.6345  -17.6741   -0.5580 C   0  0  0  0  0  0  0  0  0  0  0  0
   20.2875  -18.1419   -0.9978 O   0  0  0  0  0  0  0  0  0  0  0  0
   27.9398  -12.6116    2.2488 C   0  0  0  0  0  0  0  0  0  0  0  0
   29.4875  -12.9549    4.5392 C   0  0  0  0  0  0  0  0  0  0  0  0
   23.1096  -17.6584   -0.7826 C   0  0  0  0  0  0  0  0  0  0  0  0
   22.3870  -18.7409    0.0465 C   0  0  0  0  0  0  0  0  0  0  0  0
   28.2099  -11.5147    3.0704 C   0  0  0  0  0  0  0  0  0  0  0  0
   29.2380  -14.0387    3.6988 C   0  0  0  0  0  0  0  0  0  0  0  0
   27.5884  -15.1806    0.6024 C   0  0  0  0  0  0  0  0  0  0  0  0
   28.2877  -15.0290    1.7490 N   0  0  0  0  0  0  0  0  0  0  0  0
   18.9266  -20.1774    0.1320 O   0  0  0  0  0  0  0  0  0  0  0  0
   26.9589  -14.2850    0.0384 O   0  0  0  0  0  0  0  0  0  0  0  0
   25.3763  -16.6244   -1.4068 C   0  0  0  0  0  0  0  0  0  0  0  0
   28.9725  -11.6969    4.2277 C   0  0  0  0  0  0  0  0  0  0  0  0
   28.4644  -13.8808    2.5447 C   0  0  0  0  0  0  0  0  0  0  0  0
   26.9180  -16.7452   -1.3790 C   0  0  0  0  0  0  0  0  0  0  0  0
   27.6437  -10.2271    2.6998 C   0  0  0  0  0  0  0  0  0  0  0  0
   27.1895   -9.3943    3.6220 N   0  0  0  0  0  0  0  0  0  0  0  0
   26.8054   -8.2426    2.9252 N   0  0  0  0  0  0  0  0  0  0  0  0
   27.1018   -8.5153    1.5680 N   0  0  0  0  0  0  0  0  0  0  0  0
   27.6113   -9.6859    1.4154 C   0  0  0  0  0  0  0  0  0  0  0  0
  3  5  2  0
  3  9  1  0
  8  9  1  0
  4  8  1  0
  4 16  1  0
 16 19  1  0
  2 19  1  0
  2 12  1  0
 12 15  2  0
 12 13  1  0
 13 18  1  0
 11 18  2  0
  7 11  1  0
  7 17  2  0
 10 17  1  0
  6 18  1  0
  6 10  2  0
  1  3  1  0
  1 14  1  0
 10 20  1  0
 20 21  1  0
 21 22  2  0
 22 23  1  0
 20 24  2  0
 23 24  2  0
M  END
$$$$