O14757_Sries27479_idx-in-all-actives-1278
     RDKit          3D

 32 35  0  0  0  0  0  0  0  0999 V2000
    4.5059    0.4789   42.6940 O   0  0  0  0  0  0  0  0  0  0  0  0
    3.5035   -0.1597   42.3694 C   0  0  0  0  0  0  0  0  0  0  0  0
    2.5081    0.2271   41.5662 N   0  0  0  0  0  0  0  0  0  0  0  0
    1.5458   -0.6673   41.3770 N   0  0  0  0  0  0  0  0  0  0  0  0
    1.8731   -1.5870   42.1628 C   0  0  0  0  0  0  0  0  0  0  0  0
    1.1177   -2.7435   42.5625 C   0  0  0  0  0  0  0  0  0  0  0  0
    1.5089   -3.5653   43.5662 C   0  0  0  0  0  0  0  0  0  0  0  0
    0.6260   -4.7237   44.0151 C   0  0  0  0  0  0  0  0  0  0  0  0
    0.1081   -4.4228   45.2892 O   0  0  0  0  0  0  0  0  0  0  0  0
    2.8415   -3.3490   44.2144 C   0  0  0  0  0  0  0  0  0  0  0  0
    3.3398   -4.1812   45.2249 C   0  0  0  0  0  0  0  0  0  0  0  0
    4.5936   -3.9454   45.7848 C   0  0  0  0  0  0  0  0  0  0  0  0
    5.3767   -2.8751   45.3478 C   0  0  0  0  0  0  0  0  0  0  0  0
    6.7181   -2.6225   45.9533 C   0  0  0  0  0  0  0  0  0  0  0  0
    7.5560   -3.3728   46.7701 C   0  0  0  0  0  0  0  0  0  0  0  0
    8.6828   -2.5927   47.0358 C   0  0  0  0  0  0  0  0  0  0  0  0
    8.4931   -1.3973   46.3662 C   0  0  0  0  0  0  0  0  0  0  0  0
    7.3081   -1.4190   45.7051 O   0  0  0  0  0  0  0  0  0  0  0  0
    4.8854   -2.0410   44.3409 C   0  0  0  0  0  0  0  0  0  0  0  0
    3.6201   -2.2532   43.7663 C   0  0  0  0  0  0  0  0  0  0  0  0
    3.0772   -1.3781   42.7663 N   0  0  0  0  0  0  0  0  0  0  0  0
    2.4546    1.1213   41.0914 H   0  0  0  0  0  0  0  0  0  0  0  0
    0.1556   -2.9183   42.1022 H   0  0  0  0  0  0  0  0  0  0  0  0
   -0.2097   -4.8774   43.3293 H   0  0  0  0  0  0  0  0  0  0  0  0
    1.1918   -5.6556   44.0378 H   0  0  0  0  0  0  0  0  0  0  0  0
   -0.8303   -4.1730   45.1662 H   0  0  0  0  0  0  0  0  0  0  0  0
    2.7570   -5.0094   45.6023 H   0  0  0  0  0  0  0  0  0  0  0  0
    4.9492   -4.6017   46.5667 H   0  0  0  0  0  0  0  0  0  0  0  0
    7.3661   -4.3725   47.1344 H   0  0  0  0  0  0  0  0  0  0  0  0
    9.5304   -2.8656   47.6474 H   0  0  0  0  0  0  0  0  0  0  0  0
    9.0732   -0.4907   46.2809 H   0  0  0  0  0  0  0  0  0  0  0  0
    5.5055   -1.2184   44.0200 H   0  0  0  0  0  0  0  0  0  0  0  0
  1  2  2  0
  2  3  1  0
  2 21  1  0
  3  4  1  0
  3 22  1  0
  4  5  2  0
  5  6  1  0
  5 21  1  0
  6  7  2  0
  6 23  1  0
  7  8  1  0
  7 10  1  0
  8  9  1  0
  8 24  1  0
  8 25  1  0
  9 26  1  0
 10 11  1  0
 10 20  2  0
 11 12  2  0
 11 27  1  0
 12 13  1  0
 12 28  1  0
 13 14  1  0
 13 19  2  0
 14 15  2  0
 14 18  1  0
 15 16  1  0
 15 29  1  0
 16 17  2  0
 16 30  1  0
 17 18  1  0
 17 31  1  0
 19 20  1  0
 19 32  1  0
 20 21  1  0
M  END
>  <s_epik_cmdline>  (1) 
J2VwaWtfcHl0aG9uJywgJy1waHQnLCAnMi4wJywgJy1waCcsICc3LjAnLCAnLXRuJywgJzgnLCAnLW1hJywgJzUwMCcsICctaW1hZScsICc8aW5maWxlLm1hZT4nLCAnLW9tYWUnLCAnPG91dGZpbGUubWFlPic=

>  <s_epik_input>  (1) 
bjFbbkhdYyg9TyluKGMxMiljM2MoYyhbY0hdMilbQ0gyXVtPSF0pW2NIXVtjSF1jKFtjSF0zKS1jNFtjSF1bY0hdW2NIXW80

>  <s_i_glide_gridfile>  (1) 
O14757_Sries28506_Sries28506_grid

>  <s_lp_Force_Field>  (1) 
S-OPLS

>  <s_lp_Variant>  (1) 
O14757_Sries27479_idx-in-all-actives-1278-1

>  <s_m_source_file>  (1) 
/home/fanzhehuan/myprojects/selfGenBench/Smiles_min_50_max_inf_Scaffold_50_Serise_20_pocket/O14757/O14757_all_active_molecules_new_20241120.sdf

>  <s_sd_Affinity_Type>  (1) 
IC50

>  <s_sd_Affinity_Unit>  (1) 
nM

>  <r_epik_Charging_Adjusted_Penalty>  (1) 
2.5633400000000001e-05

>  <r_epik_Ionization_Penalty>  (1) 
0.00020000000000000001

>  <r_epik_Ionization_Penalty_Charging>  (1) 
0

>  <r_epik_Ionization_Penalty_Neutral>  (1) 
0.00020000000000000001

>  <r_epik_State_Penalty>  (1) 
-0

>  <r_glide_res:A128_Eint>  (1) 
0.038893632116637399

>  <r_glide_res:A128_coul>  (1) 
0.065645202955874796

>  <r_glide_res:A128_dist>  (1) 
7.1270742855548699

>  <r_glide_res:A128_hbond>  (1) 
0

>  <r_glide_res:A128_vdw>  (1) 
-0.026751570839237501

>  <r_glide_res:A130_Eint>  (1) 
-0.35858038513382001

>  <r_glide_res:A130_coul>  (1) 
-0.33777384086503698

>  <r_glide_res:A130_dist>  (1) 
8.3651269852670893

>  <r_glide_res:A130_hbond>  (1) 
0

>  <r_glide_res:A130_vdw>  (1) 
-0.020806544268782999

>  <r_glide_res:A132_Eint>  (1) 
0.028182150003059899

>  <r_glide_res:A132_coul>  (1) 
0.066966686763114694

>  <r_glide_res:A132_dist>  (1) 
7.5243730321750801

>  <r_glide_res:A132_hbond>  (1) 
0

>  <r_glide_res:A132_vdw>  (1) 
-0.038784536760054701

>  <r_glide_res:A133_Eint>  (1) 
0.079050851448562207

>  <r_glide_res:A133_coul>  (1) 
0.13039522841138501

>  <r_glide_res:A133_dist>  (1) 
7.5300705381415796

>  <r_glide_res:A133_hbond>  (1) 
0

>  <r_glide_res:A133_vdw>  (1) 
-0.051344376962822999

>  <r_glide_res:A134_Eint>  (1) 
0.39000823521429001

>  <r_glide_res:A134_coul>  (1) 
0.86782986990330702

>  <r_glide_res:A134_dist>  (1) 
3.88402717662035

>  <r_glide_res:A134_hbond>  (1) 
0

>  <r_glide_res:A134_vdw>  (1) 
-0.47782163468901701

>  <r_glide_res:A135_Eint>  (1) 
-0.69031129721092199

>  <r_glide_res:A135_coul>  (1) 
-0.248571099515739

>  <r_glide_res:A135_dist>  (1) 
3.48954574622929

>  <r_glide_res:A135_hbond>  (1) 
0

>  <r_glide_res:A135_vdw>  (1) 
-0.44174019769518302

>  <r_glide_res:A136_Eint>  (1) 
-0.18952989569185

>  <r_glide_res:A136_coul>  (1) 
-0.0119808016099425

>  <r_glide_res:A136_dist>  (1) 
5.9899445560474103

>  <r_glide_res:A136_hbond>  (1) 
0

>  <r_glide_res:A136_vdw>  (1) 
-0.177549094081907

>  <r_glide_res:A137_Eint>  (1) 
-3.8437377976464902

>  <r_glide_res:A137_coul>  (1) 
-0.402986157681476

>  <r_glide_res:A137_dist>  (1) 
2.7326987398642899

>  <r_glide_res:A137_hbond>  (1) 
0

>  <r_glide_res:A137_vdw>  (1) 
-3.4407516399650202

>  <r_glide_res:A138_Eint>  (1) 
0.0573063769234552

>  <r_glide_res:A138_coul>  (1) 
0.31116282483535102

>  <r_glide_res:A138_dist>  (1) 
6.1119125111965404

>  <r_glide_res:A138_hbond>  (1) 
0

>  <r_glide_res:A138_vdw>  (1) 
-0.25385644791189599

>  <r_glide_res:A139_Eint>  (1) 
1.1302825899823301

>  <r_glide_res:A139_coul>  (1) 
1.23764386198542

>  <r_glide_res:A139_dist>  (1) 
6.6872376887106002

>  <r_glide_res:A139_hbond>  (1) 
0

>  <r_glide_res:A139_vdw>  (1) 
-0.10736127200309201

>  <r_glide_res:A13_Eint>  (1) 
-0.19834477534359399

>  <r_glide_res:A13_coul>  (1) 
-0.050215448245411798

>  <r_glide_res:A13_dist>  (1) 
5.5174607693631597

>  <r_glide_res:A13_hbond>  (1) 
0

>  <r_glide_res:A13_vdw>  (1) 
-0.148129327098182

>  <r_glide_res:A144_Eint>  (1) 
-0.079967804608372495

>  <r_glide_res:A144_coul>  (1) 
-0.046654993658069403

>  <r_glide_res:A144_dist>  (1) 
10.420897693093201

>  <r_glide_res:A144_hbond>  (1) 
0

>  <r_glide_res:A144_vdw>  (1) 
-0.033312810950303098

>  <r_glide_res:A145_Eint>  (1) 
-1.15599466550578

>  <r_glide_res:A145_coul>  (1) 
-1.00556049734901

>  <r_glide_res:A145_dist>  (1) 
6.70602874789361

>  <r_glide_res:A145_hbond>  (1) 
0

>  <r_glide_res:A145_vdw>  (1) 
-0.15043416815676999

>  <r_glide_res:A146_Eint>  (1) 
-0.0123402313362345

>  <r_glide_res:A146_coul>  (1) 
0.082811263389343498

>  <r_glide_res:A146_dist>  (1) 
7.4669028992572004

>  <r_glide_res:A146_hbond>  (1) 
0

>  <r_glide_res:A146_vdw>  (1) 
-0.095151494725578101

>  <r_glide_res:A147_Eint>  (1) 
-0.55053125770946598

>  <r_glide_res:A147_coul>  (1) 
0.96639826594523204

>  <r_glide_res:A147_dist>  (1) 
2.6525598865383802

>  <r_glide_res:A147_hbond>  (1) 
0

>  <r_glide_res:A147_vdw>  (1) 
-1.5169295236547

>  <r_glide_res:A148_Eint>  (1) 
-11.038588688132601

>  <r_glide_res:A148_coul>  (1) 
-10.6197456565016

>  <r_glide_res:A148_dist>  (1) 
1.7299907352516199

>  <r_glide_res:A148_hbond>  (1) 
-0.14426228160879701

>  <r_glide_res:A148_vdw>  (1) 
-0.27458075002223198

>  <r_glide_res:A149_Eint>  (1) 
-0.067307322410944795

>  <r_glide_res:A149_coul>  (1) 
0.00430819451743664

>  <r_glide_res:A149_dist>  (1) 
6.99796195825376

>  <r_glide_res:A149_hbond>  (1) 
0

>  <r_glide_res:A149_vdw>  (1) 
-0.071615516928381404

>  <r_glide_res:A14_Eint>  (1) 
-0.17613028408350201

>  <r_glide_res:A14_coul>  (1) 
0.0068879315326292002

>  <r_glide_res:A14_dist>  (1) 
6.2756897594786496

>  <r_glide_res:A14_hbond>  (1) 
0

>  <r_glide_res:A14_vdw>  (1) 
-0.18301821561613199

>  <r_glide_res:A150_Eint>  (1) 
0.069168343404251403

>  <r_glide_res:A150_coul>  (1) 
0.081615107303471796

>  <r_glide_res:A150_dist>  (1) 
8.0758303659405897

>  <r_glide_res:A150_hbond>  (1) 
0

>  <r_glide_res:A150_vdw>  (1) 
-0.012446763899220401

>  <r_glide_res:A15_Eint>  (1) 
-6.2049019564333499

>  <r_glide_res:A15_coul>  (1) 
-0.67818397481072201

>  <r_glide_res:A15_dist>  (1) 
2.6409635136290599

>  <r_glide_res:A15_hbond>  (1) 
0

>  <r_glide_res:A15_vdw>  (1) 
-5.5267179816226299

>  <r_glide_res:A16_Eint>  (1) 
-0.410283272099286

>  <r_glide_res:A16_coul>  (1) 
0.17835304236301699

>  <r_glide_res:A16_dist>  (1) 
4.0785868321178604

>  <r_glide_res:A16_hbond>  (1) 
0

>  <r_glide_res:A16_vdw>  (1) 
-0.58863631446230302

>  <r_glide_res:A17_Eint>  (1) 
-0.025462733618998801

>  <r_glide_res:A17_coul>  (1) 
0.084139996089493393

>  <r_glide_res:A17_dist>  (1) 
6.51715639288195

>  <r_glide_res:A17_hbond>  (1) 
0

>  <r_glide_res:A17_vdw>  (1) 
-0.109602729708492

>  <r_glide_res:A18_Eint>  (1) 
-0.0208724379109047

>  <r_glide_res:A18_coul>  (1) 
0.00192677106739064

>  <r_glide_res:A18_dist>  (1) 
7.99328170063544

>  <r_glide_res:A18_hbond>  (1) 
0

>  <r_glide_res:A18_vdw>  (1) 
-0.0227992089782953

>  <r_glide_res:A19_Eint>  (1) 
-0.00085975194415081402

>  <r_glide_res:A19_coul>  (1) 
0.0087118037388289604

>  <r_glide_res:A19_dist>  (1) 
10.0161614102787

>  <r_glide_res:A19_hbond>  (1) 
0

>  <r_glide_res:A19_vdw>  (1) 
-0.0095715556829797706

>  <r_glide_res:A20_Eint>  (1) 
-0.57837965517808398

>  <r_glide_res:A20_coul>  (1) 
-0.102330695917626

>  <r_glide_res:A20_dist>  (1) 
4.1133263443350199

>  <r_glide_res:A20_hbond>  (1) 
0

>  <r_glide_res:A20_vdw>  (1) 
-0.47604895926045798

>  <r_glide_res:A21_Eint>  (1) 
-0.038179133665419702

>  <r_glide_res:A21_coul>  (1) 
-0.0072218480546026899

>  <r_glide_res:A21_dist>  (1) 
8.0329209011624805

>  <r_glide_res:A21_hbond>  (1) 
0

>  <r_glide_res:A21_vdw>  (1) 
-0.030957285610816999

>  <r_glide_res:A22_Eint>  (1) 
-0.059320099439240499

>  <r_glide_res:A22_coul>  (1) 
0.102437669856852

>  <r_glide_res:A22_dist>  (1) 
6.3199367570099003

>  <r_glide_res:A22_hbond>  (1) 
0

>  <r_glide_res:A22_vdw>  (1) 
-0.16175776929609201

>  <r_glide_res:A23_Eint>  (1) 
-2.9982357083703501

>  <r_glide_res:A23_coul>  (1) 
0.048216990165316699

>  <r_glide_res:A23_dist>  (1) 
2.2991225003112401

>  <r_glide_res:A23_hbond>  (1) 
0

>  <r_glide_res:A23_vdw>  (1) 
-3.0464526985356599

>  <r_glide_res:A24_Eint>  (1) 
-0.176215471583682

>  <r_glide_res:A24_coul>  (1) 
0.10582182494317501

>  <r_glide_res:A24_dist>  (1) 
6.8145255605217896

>  <r_glide_res:A24_hbond>  (1) 
0

>  <r_glide_res:A24_vdw>  (1) 
-0.282037296526857

>  <r_glide_res:A25_Eint>  (1) 
-0.40960726711886197

>  <r_glide_res:A25_coul>  (1) 
-0.12999132917386899

>  <r_glide_res:A25_dist>  (1) 
6.09413787801914

>  <r_glide_res:A25_hbond>  (1) 
0

>  <r_glide_res:A25_vdw>  (1) 
-0.27961593794499301

>  <r_glide_res:A26_Eint>  (1) 
0.041208512166388898

>  <r_glide_res:A26_coul>  (1) 
0.084455823210982994

>  <r_glide_res:A26_dist>  (1) 
7.90236292365298

>  <r_glide_res:A26_hbond>  (1) 
0

>  <r_glide_res:A26_vdw>  (1) 
-0.0432473110445942

>  <r_glide_res:A35_Eint>  (1) 
-0.21933365914223901

>  <r_glide_res:A35_coul>  (1) 
-0.011375006249346301

>  <r_glide_res:A35_dist>  (1) 
6.0745371432579098

>  <r_glide_res:A35_hbond>  (1) 
0

>  <r_glide_res:A35_vdw>  (1) 
-0.207958652892893

>  <r_glide_res:A36_Eint>  (1) 
-1.20479136528966

>  <r_glide_res:A36_coul>  (1) 
-0.052269502420327199

>  <r_glide_res:A36_dist>  (1) 
2.5091628895384002

>  <r_glide_res:A36_hbond>  (1) 
0

>  <r_glide_res:A36_vdw>  (1) 
-1.1525218628693299

>  <r_glide_res:A37_Eint>  (1) 
-0.29961519120574098

>  <r_glide_res:A37_coul>  (1) 
0.022633744833270901

>  <r_glide_res:A37_dist>  (1) 
6.0404475890855096

>  <r_glide_res:A37_hbond>  (1) 
0

>  <r_glide_res:A37_vdw>  (1) 
-0.322248936039012

>  <r_glide_res:A38_Eint>  (1) 
1.3211398959193701

>  <r_glide_res:A38_coul>  (1) 
2.0892695536010901

>  <r_glide_res:A38_dist>  (1) 
3.7759143148133401

>  <r_glide_res:A38_hbond>  (1) 
0

>  <r_glide_res:A38_vdw>  (1) 
-0.76812965768171404

>  <r_glide_res:A39_Eint>  (1) 
-0.103218628792991

>  <r_glide_res:A39_coul>  (1) 
-0.0459332223451046

>  <r_glide_res:A39_dist>  (1) 
7.8467566748933599

>  <r_glide_res:A39_hbond>  (1) 
0

>  <r_glide_res:A39_vdw>  (1) 
-0.057285406447886801

>  <r_glide_res:A40_Eint>  (1) 
-0.0075811530235517397

>  <r_glide_res:A40_coul>  (1) 
0.0171193116846984

>  <r_glide_res:A40_dist>  (1) 
8.2623687928589007

>  <r_glide_res:A40_hbond>  (1) 
0

>  <r_glide_res:A40_vdw>  (1) 
-0.0247004647082502

>  <r_glide_res:A55_Eint>  (1) 
-0.90696015106118399

>  <r_glide_res:A55_coul>  (1) 
-0.84986256087828804

>  <r_glide_res:A55_dist>  (1) 
6.5596369667469299

>  <r_glide_res:A55_hbond>  (1) 
0

>  <r_glide_res:A55_vdw>  (1) 
-0.057097590182896098

>  <r_glide_res:A59_Eint>  (1) 
-0.099159796867706998

>  <r_glide_res:A59_coul>  (1) 
-0.0613737083478453

>  <r_glide_res:A59_dist>  (1) 
7.5245008003720901

>  <r_glide_res:A59_hbond>  (1) 
0

>  <r_glide_res:A59_vdw>  (1) 
-0.037786088519861698

>  <r_glide_res:A68_Eint>  (1) 
-1.5054255572778501

>  <r_glide_res:A68_coul>  (1) 
-0.064657770785476895

>  <r_glide_res:A68_dist>  (1) 
2.7308555374527699

>  <r_glide_res:A68_hbond>  (1) 
0

>  <r_glide_res:A68_vdw>  (1) 
-1.44076778649238

>  <r_glide_res:A69_Eint>  (1) 
-0.74005475079923799

>  <r_glide_res:A69_coul>  (1) 
-0.63246445311412003

>  <r_glide_res:A69_dist>  (1) 
5.7680387054163598

>  <r_glide_res:A69_hbond>  (1) 
0

>  <r_glide_res:A69_vdw>  (1) 
-0.10759029768511801

>  <r_glide_res:A82_Eint>  (1) 
-0.056732749327853403

>  <r_glide_res:A82_coul>  (1) 
0.052959746750945398

>  <r_glide_res:A82_dist>  (1) 
6.8034371608594704

>  <r_glide_res:A82_hbond>  (1) 
0

>  <r_glide_res:A82_vdw>  (1) 
-0.109692496078799

>  <r_glide_res:A83_Eint>  (1) 
-0.15427230228800201

>  <r_glide_res:A83_coul>  (1) 
-0.057345785387762901

>  <r_glide_res:A83_dist>  (1) 
6.7320057607880903

>  <r_glide_res:A83_hbond>  (1) 
0

>  <r_glide_res:A83_vdw>  (1) 
-0.096926516900239207

>  <r_glide_res:A84_Eint>  (1) 
-1.96619086832866

>  <r_glide_res:A84_coul>  (1) 
0.26176871233392401

>  <r_glide_res:A84_dist>  (1) 
2.83873923884427

>  <r_glide_res:A84_hbond>  (1) 
0

>  <r_glide_res:A84_vdw>  (1) 
-2.22795958066258

>  <r_glide_res:A85_Eint>  (1) 
-2.2489458052792499

>  <r_glide_res:A85_coul>  (1) 
-0.77240723749010998

>  <r_glide_res:A85_dist>  (1) 
2.0276040341503601

>  <r_glide_res:A85_hbond>  (1) 
-0.27906522739033901

>  <r_glide_res:A85_vdw>  (1) 
-1.1974733403988

>  <r_glide_res:A86_Eint>  (1) 
-5.70937173071614

>  <r_glide_res:A86_coul>  (1) 
-2.3403233232957801

>  <r_glide_res:A86_dist>  (1) 
2.5669468609713602

>  <r_glide_res:A86_hbond>  (1) 
0

>  <r_glide_res:A86_vdw>  (1) 
-3.3690484074203599

>  <r_glide_res:A87_Eint>  (1) 
-5.8680729851407598

>  <r_glide_res:A87_coul>  (1) 
-2.5359076763125099

>  <r_glide_res:A87_dist>  (1) 
1.8622085887409101

>  <r_glide_res:A87_hbond>  (1) 
-0.28852456321759301

>  <r_glide_res:A87_vdw>  (1) 
-3.04364074561065

>  <r_glide_res:A88_Eint>  (1) 
-1.27520519699473

>  <r_glide_res:A88_coul>  (1) 
0.042609479187897897

>  <r_glide_res:A88_dist>  (1) 
2.58913008921026

>  <r_glide_res:A88_hbond>  (1) 
0

>  <r_glide_res:A88_vdw>  (1) 
-1.3178146761826299

>  <r_glide_res:A89_Eint>  (1) 
-0.90230210960552304

>  <r_glide_res:A89_coul>  (1) 
-0.33859420115855898

>  <r_glide_res:A89_dist>  (1) 
4.2461712145376902

>  <r_glide_res:A89_hbond>  (1) 
0

>  <r_glide_res:A89_vdw>  (1) 
-0.56370790844696395

>  <r_glide_res:A90_Eint>  (1) 
-3.0240881009801899

>  <r_glide_res:A90_coul>  (1) 
-0.90374404959741295

>  <r_glide_res:A90_dist>  (1) 
2.75030128886254

>  <r_glide_res:A90_hbond>  (1) 
0

>  <r_glide_res:A90_vdw>  (1) 
-2.12034405138278

>  <r_glide_res:A91_Eint>  (1) 
-0.99129508692003798

>  <r_glide_res:A91_coul>  (1) 
1.0502700964724001

>  <r_glide_res:A91_dist>  (1) 
2.9881047843977599

>  <r_glide_res:A91_hbond>  (1) 
0

>  <r_glide_res:A91_vdw>  (1) 
-2.0415651833924402

>  <r_glide_res:A92_Eint>  (1) 
-0.089072940842378698

>  <r_glide_res:A92_coul>  (1) 
-0.0206097718759773

>  <r_glide_res:A92_dist>  (1) 
7.7867479238517703

>  <r_glide_res:A92_hbond>  (1) 
0

>  <r_glide_res:A92_vdw>  (1) 
-0.068463168966401394

>  <r_glide_res:A93_Eint>  (1) 
-0.144653542766987

>  <r_glide_res:A93_coul>  (1) 
-0.081761303327683804

>  <r_glide_res:A93_dist>  (1) 
7.6536253331411697

>  <r_glide_res:A93_hbond>  (1) 
0

>  <r_glide_res:A93_vdw>  (1) 
-0.062892239439303194

>  <r_glide_res:A94_Eint>  (1) 
0.172577347299713

>  <r_glide_res:A94_coul>  (1) 
0.31250270023030802

>  <r_glide_res:A94_dist>  (1) 
5.6555498878784602

>  <r_glide_res:A94_hbond>  (1) 
0

>  <r_glide_res:A94_vdw>  (1) 
-0.13992535293059499

>  <r_glide_res:A95_Eint>  (1) 
-1.15738873653469

>  <r_glide_res:A95_coul>  (1) 
-1.10570918333711

>  <r_glide_res:A95_dist>  (1) 
6.98841640728463

>  <r_glide_res:A95_hbond>  (1) 
0

>  <r_glide_res:A95_vdw>  (1) 
-0.0516795531975845

>  <r_i_docking_score>  (1) 
-8.8804654489598995

>  <r_i_glide_ecoul>  (1) 
-12.2607774734497

>  <r_i_glide_eff_state_penalty>  (1) 
-0

>  <r_i_glide_einternal>  (1) 
1.4601407051086399

>  <r_i_glide_emodel>  (1) 
-73.275626656308901

>  <r_i_glide_energy>  (1) 
-48.549283027648897

>  <r_i_glide_erotb>  (1) 
0.319851527687052

>  <r_i_glide_esite>  (1) 
0

>  <r_i_glide_evdw>  (1) 
-36.288505554199197

>  <r_i_glide_gscore>  (1) 
-8.8804654489598995

>  <r_i_glide_hbond>  (1) 
-0.71185207221672797

>  <r_i_glide_ligand_efficiency>  (1) 
-0.42287930709332899

>  <r_i_glide_ligand_efficiency_ln>  (1) 
-2.1956771375852502

>  <r_i_glide_ligand_efficiency_sa>  (1) 
-1.1666919428470699

>  <r_i_glide_lipo>  (1) 
-1.47162390506604

>  <r_i_glide_metal>  (1) 
-0

>  <r_i_glide_rewards>  (1) 
-3.3632991006367701

>  <r_lp_Energy>  (1) 
26.596800000000002

>  <r_lp_tautomer_probability>  (1) 
1

>  <i_epik_Tot_Q>  (1) 
0

>  <i_epik_Tot_abs_Q>  (1) 
0

>  <i_i_glide_confnum>  (1) 
3

>  <i_i_glide_lignum>  (1) 
2209

>  <i_i_glide_posenum>  (1) 
348

>  <i_i_glide_rotatable_bonds>  (1) 
3

>  <i_lp_mmshare_version>  (1) 
54117

>  <i_m_ct_enhanced_stereo_status>  (1) 
0

>  <i_m_ct_format>  (1) 
2

>  <i_m_source_file_index>  (1) 
1279

>  <i_sd_Affinity>  (1) 
20

>  <i_sd_i\_f3d\_flags>  (1) 
0

>  <i_sd_version>  (1) 
0

>  <b_lp_Chiralities_Consistent>  (1) 
1

>  <b_sd_chiral_flag>  (1) 
1

$$$$
