O14757_Sries14139_idx-in-all-actives-283
     RDKit          3D

 52 54  0  0  0  0  0  0  0  0999 V2000
    1.2578   -2.8266   40.7657 C   0  0  0  0  0  0  0  0  0  0  0  0
    1.2720   -1.9527   42.0129 C   0  0  0  0  0  0  0  0  0  0  0  0
    0.8163   -0.5729   41.6308 C   0  0  0  0  0  0  0  0  0  0  0  0
    2.6026   -1.7973   42.5166 O   0  0  0  0  0  0  0  0  0  0  0  0
    3.0728   -2.5730   43.5663 C   0  0  0  0  0  0  0  0  0  0  0  0
    2.3367   -3.6012   44.1704 C   0  0  0  0  0  0  0  0  0  0  0  0
    2.8572   -4.3439   45.2366 C   0  0  0  0  0  0  0  0  0  0  0  0
    4.1619   -4.0888   45.6861 C   0  0  0  0  0  0  0  0  0  0  0  0
    4.9046   -3.0595   45.0855 C   0  0  0  0  0  0  0  0  0  0  0  0
    4.3588   -2.2995   44.0497 C   0  0  0  0  0  0  0  0  0  0  0  0
    5.2926   -1.0024   43.3828 Cl  0  0  0  0  0  0  0  0  0  0  0  0
    4.6584   -4.9230   46.7148 N   0  0  0  0  0  0  0  0  0  0  0  0
    5.7080   -4.7378   47.5469 C   0  0  0  0  0  0  0  0  0  0  0  0
    6.4063   -3.7261   47.5587 O   0  0  0  0  0  0  0  0  0  0  0  0
    5.9415   -5.7062   48.4581 N   0  0  0  0  0  0  0  0  0  0  0  0
    5.3504   -6.9716   48.6266 C   0  0  0  0  0  0  0  0  0  0  0  0
    5.3121   -7.4683   49.9296 C   0  0  0  0  0  0  0  0  0  0  0  0
    4.7711   -8.6732   50.2254 N   0  0  0  0  0  0  0  0  0  0  0  0
    4.2782   -9.4064   49.1978 C   0  0  0  0  0  0  0  0  0  0  0  0
    3.8123  -10.7237   49.5978 C   0  0  0  0  0  0  0  0  0  0  0  0
    3.4418  -11.7732   49.9159 N   0  0  0  0  0  0  0  0  0  0  0  0
    4.3032   -8.9248   47.8717 C   0  0  0  0  0  0  0  0  0  0  0  0
    4.8638   -7.7138   47.5877 N   0  0  0  0  0  0  0  0  0  0  0  0
    3.8782   -9.6159   46.7525 O   0  0  0  0  0  0  0  0  0  0  0  0
    2.5621  -10.1835   46.7278 C   0  0  0  0  0  0  0  0  0  0  0  0
    1.4273   -9.1805   47.0093 C   0  0  0  0  0  0  0  0  0  0  0  0
    1.3649   -8.0912   45.9303 C   0  0  0  0  0  0  0  0  0  0  0  0
    0.4233   -6.9195   46.2676 C   0  0  0  0  0  0  0  0  0  0  0  0
    0.8021   -5.6461   45.5014 C   0  0  0  0  0  0  0  0  0  0  0  0
    2.1357   -5.3204   45.8908 O   0  0  0  0  0  0  0  0  0  0  0  0
    0.2421   -3.0116   40.4145 H   0  0  0  0  0  0  0  0  0  0  0  0
    1.8262   -2.3831   39.9472 H   0  0  0  0  0  0  0  0  0  0  0  0
    1.7081   -3.7729   40.9922 H   0  0  0  0  0  0  0  0  0  0  0  0
    0.5557   -2.3091   42.7520 H   0  0  0  0  0  0  0  0  0  0  0  0
   -0.2276   -0.5734   41.3155 H   0  0  0  0  0  0  0  0  0  0  0  0
    0.9073    0.1024   42.4815 H   0  0  0  0  0  0  0  0  0  0  0  0
    1.4164   -0.1526   40.8224 H   0  0  0  0  0  0  0  0  0  0  0  0
    1.3455   -3.8315   43.8264 H   0  0  0  0  0  0  0  0  0  0  0  0
    5.9104   -2.8358   45.4048 H   0  0  0  0  0  0  0  0  0  0  0  0
    4.0782   -5.7299   46.9121 H   0  0  0  0  0  0  0  0  0  0  0  0
    6.5461   -5.4299   49.2162 H   0  0  0  0  0  0  0  0  0  0  0  0
    5.6931   -6.9065   50.7662 H   0  0  0  0  0  0  0  0  0  0  0  0
    2.4225  -10.5729   45.7207 H   0  0  0  0  0  0  0  0  0  0  0  0
    2.4817  -11.0594   47.3672 H   0  0  0  0  0  0  0  0  0  0  0  0
    0.4720   -9.7039   47.0549 H   0  0  0  0  0  0  0  0  0  0  0  0
    1.5707   -8.7276   47.9922 H   0  0  0  0  0  0  0  0  0  0  0  0
    2.3787   -7.7159   45.7835 H   0  0  0  0  0  0  0  0  0  0  0  0
    1.0711   -8.5233   44.9733 H   0  0  0  0  0  0  0  0  0  0  0  0
   -0.6115   -7.1925   46.0601 H   0  0  0  0  0  0  0  0  0  0  0  0
    0.4693   -6.6967   47.3343 H   0  0  0  0  0  0  0  0  0  0  0  0
    0.7294   -5.8404   44.4298 H   0  0  0  0  0  0  0  0  0  0  0  0
    0.1221   -4.8291   45.7494 H   0  0  0  0  0  0  0  0  0  0  0  0
  1  2  1  0
  1 31  1  0
  1 32  1  0
  1 33  1  0
  2  3  1  0
  2  4  1  0
  2 34  1  0
  3 35  1  0
  3 36  1  0
  3 37  1  0
  4  5  1  0
  5  6  2  0
  5 10  1  0
  6  7  1  0
  6 38  1  0
  7  8  2  0
  7 30  1  0
  8  9  1  0
  8 12  1  0
  9 10  2  0
  9 39  1  0
 10 11  1  0
 12 13  1  0
 12 40  1  0
 13 14  2  0
 13 15  1  0
 15 16  1  0
 15 41  1  0
 16 17  1  0
 16 23  2  0
 17 18  2  0
 17 42  1  0
 18 19  1  0
 19 20  1  0
 19 22  2  0
 20 21  3  0
 22 23  1  0
 22 24  1  0
 24 25  1  0
 25 26  1  0
 25 43  1  0
 25 44  1  0
 26 27  1  0
 26 45  1  0
 26 46  1  0
 27 28  1  0
 27 47  1  0
 27 48  1  0
 28 29  1  0
 28 49  1  0
 28 50  1  0
 29 30  1  0
 29 51  1  0
 29 52  1  0
M  END
>  <s_epik_cmdline>  (1) 
J2VwaWtfcHl0aG9uJywgJy1waHQnLCAnMi4wJywgJy1waCcsICc3LjAnLCAnLXRuJywgJzgnLCAnLW1hJywgJzUwMCcsICctaW1hZScsICc8aW5maWxlLm1hZT4nLCAnLW9tYWUnLCAnPG91dGZpbGUubWFlPic=

>  <s_epik_input>  (1) 
W0NIM11bQ0hdKFtDSDNdKU9jKFtjSF0xKWMoQ2wpW2NIXWMoYzEyKVtOSF1DKD1PKVtOSF1jM1tjSF1uYyhDI04pYyhuMylPW0NIMl1bQ0gyXVtDSDJdW0NIMl1bQ0gyXU8y

>  <s_i_glide_gridfile>  (1) 
O14757_Sries28506_Sries28506_grid

>  <s_lp_Force_Field>  (1) 
S-OPLS

>  <s_lp_Variant>  (1) 
O14757_Sries14139_idx-in-all-actives-283-1

>  <s_m_source_file>  (1) 
/home/fanzhehuan/myprojects/selfGenBench/Smiles_min_50_max_inf_Scaffold_50_Serise_20_pocket/O14757/O14757_all_active_molecules_new_20241120.sdf

>  <s_sd_Affinity_Type>  (1) 
IC50

>  <s_sd_Affinity_Unit>  (1) 
nM

>  <r_epik_Charging_Adjusted_Penalty>  (1) 
0

>  <r_epik_Ionization_Penalty>  (1) 
0

>  <r_epik_Ionization_Penalty_Charging>  (1) 
0

>  <r_epik_Ionization_Penalty_Neutral>  (1) 
0

>  <r_epik_State_Penalty>  (1) 
-0

>  <r_glide_res:A128_Eint>  (1) 
0.037140759018165499

>  <r_glide_res:A128_coul>  (1) 
0.065418911137516897

>  <r_glide_res:A128_dist>  (1) 
8.2492504421401307

>  <r_glide_res:A128_hbond>  (1) 
0

>  <r_glide_res:A128_vdw>  (1) 
-0.028278152119351401

>  <r_glide_res:A130_Eint>  (1) 
-0.87504122023414999

>  <r_glide_res:A130_coul>  (1) 
-0.83838007859830199

>  <r_glide_res:A130_dist>  (1) 
7.7929887170566996

>  <r_glide_res:A130_hbond>  (1) 
0

>  <r_glide_res:A130_vdw>  (1) 
-0.036661141635847903

>  <r_glide_res:A132_Eint>  (1) 
0.61816160824825395

>  <r_glide_res:A132_coul>  (1) 
0.72854215592304505

>  <r_glide_res:A132_dist>  (1) 
6.0685778308933802

>  <r_glide_res:A132_hbond>  (1) 
0

>  <r_glide_res:A132_vdw>  (1) 
-0.110380547674791

>  <r_glide_res:A133_Eint>  (1) 
-0.0396015254806397

>  <r_glide_res:A133_coul>  (1) 
0.0860046079330372

>  <r_glide_res:A133_dist>  (1) 
6.7497799605231004

>  <r_glide_res:A133_hbond>  (1) 
0

>  <r_glide_res:A133_vdw>  (1) 
-0.12560613341367699

>  <r_glide_res:A134_Eint>  (1) 
-1.83680839807227

>  <r_glide_res:A134_coul>  (1) 
-0.39907175913964499

>  <r_glide_res:A134_dist>  (1) 
3.2589648981875201

>  <r_glide_res:A134_hbond>  (1) 
0

>  <r_glide_res:A134_vdw>  (1) 
-1.43773663893263

>  <r_glide_res:A135_Eint>  (1) 
-1.1299618763457

>  <r_glide_res:A135_coul>  (1) 
-0.55386564696418406

>  <r_glide_res:A135_dist>  (1) 
3.9746620796357801

>  <r_glide_res:A135_hbond>  (1) 
0

>  <r_glide_res:A135_vdw>  (1) 
-0.57609622938151595

>  <r_glide_res:A136_Eint>  (1) 
-0.23779614485076001

>  <r_glide_res:A136_coul>  (1) 
-0.043519191047747902

>  <r_glide_res:A136_dist>  (1) 
6.1018763527420301

>  <r_glide_res:A136_hbond>  (1) 
0

>  <r_glide_res:A136_vdw>  (1) 
-0.19427695380301299

>  <r_glide_res:A137_Eint>  (1) 
-4.2290689520668501

>  <r_glide_res:A137_coul>  (1) 
-0.38757828814489298

>  <r_glide_res:A137_dist>  (1) 
2.2797229498758198

>  <r_glide_res:A137_hbond>  (1) 
0

>  <r_glide_res:A137_vdw>  (1) 
-3.8414906639219599

>  <r_glide_res:A138_Eint>  (1) 
0.12975503933159999

>  <r_glide_res:A138_coul>  (1) 
0.28594774757150798

>  <r_glide_res:A138_dist>  (1) 
6.8745012420259499

>  <r_glide_res:A138_hbond>  (1) 
0

>  <r_glide_res:A138_vdw>  (1) 
-0.156192708239908

>  <r_glide_res:A139_Eint>  (1) 
1.52150309234492

>  <r_glide_res:A139_coul>  (1) 
1.57192695217984

>  <r_glide_res:A139_dist>  (1) 
7.4966865074289002

>  <r_glide_res:A139_hbond>  (1) 
0

>  <r_glide_res:A139_vdw>  (1) 
-0.050423859834922799

>  <r_glide_res:A13_Eint>  (1) 
-0.31822175077089498

>  <r_glide_res:A13_coul>  (1) 
-0.22813480828545801

>  <r_glide_res:A13_dist>  (1) 
7.3035789943784497

>  <r_glide_res:A13_hbond>  (1) 
0

>  <r_glide_res:A13_vdw>  (1) 
-0.090086942485436694

>  <r_glide_res:A144_Eint>  (1) 
-0.044819826785437902

>  <r_glide_res:A144_coul>  (1) 
-0.017048679550388701

>  <r_glide_res:A144_dist>  (1) 
9.9263819314716102

>  <r_glide_res:A144_hbond>  (1) 
0

>  <r_glide_res:A144_vdw>  (1) 
-0.027771147235049198

>  <r_glide_res:A145_Eint>  (1) 
-1.42027037825124

>  <r_glide_res:A145_coul>  (1) 
-1.32483538329106

>  <r_glide_res:A145_dist>  (1) 
6.1262398434005902

>  <r_glide_res:A145_hbond>  (1) 
0

>  <r_glide_res:A145_vdw>  (1) 
-0.095434994960182207

>  <r_glide_res:A146_Eint>  (1) 
0.021365303356813799

>  <r_glide_res:A146_coul>  (1) 
0.099218884278436503

>  <r_glide_res:A146_dist>  (1) 
6.4583902979038204

>  <r_glide_res:A146_hbond>  (1) 
0

>  <r_glide_res:A146_vdw>  (1) 
-0.0778535809216227

>  <r_glide_res:A147_Eint>  (1) 
-1.01685164990549

>  <r_glide_res:A147_coul>  (1) 
0.12925521305236301

>  <r_glide_res:A147_dist>  (1) 
2.9720536286655101

>  <r_glide_res:A147_hbond>  (1) 
0

>  <r_glide_res:A147_vdw>  (1) 
-1.1461068629578499

>  <r_glide_res:A148_Eint>  (1) 
-6.1696959722504499

>  <r_glide_res:A148_coul>  (1) 
-4.6123224253344297

>  <r_glide_res:A148_dist>  (1) 
2.9682474651235999

>  <r_glide_res:A148_hbond>  (1) 
0

>  <r_glide_res:A148_vdw>  (1) 
-1.5573735469160199

>  <r_glide_res:A149_Eint>  (1) 
-0.036166836321164603

>  <r_glide_res:A149_coul>  (1) 
0.029613136527665399

>  <r_glide_res:A149_dist>  (1) 
6.3641994975551102

>  <r_glide_res:A149_hbond>  (1) 
0

>  <r_glide_res:A149_vdw>  (1) 
-0.065779972848829998

>  <r_glide_res:A14_Eint>  (1) 
-0.28184084978907098

>  <r_glide_res:A14_coul>  (1) 
-0.028404715348155501

>  <r_glide_res:A14_dist>  (1) 
6.28304553062853

>  <r_glide_res:A14_hbond>  (1) 
0

>  <r_glide_res:A14_vdw>  (1) 
-0.25343613444091601

>  <r_glide_res:A150_Eint>  (1) 
0.082676146610899601

>  <r_glide_res:A150_coul>  (1) 
0.096676177202379199

>  <r_glide_res:A150_dist>  (1) 
8.6799104254506005

>  <r_glide_res:A150_hbond>  (1) 
0

>  <r_glide_res:A150_vdw>  (1) 
-0.014000030591479499

>  <r_glide_res:A15_Eint>  (1) 
-4.4574677396418396

>  <r_glide_res:A15_coul>  (1) 
0.42878808436105098

>  <r_glide_res:A15_dist>  (1) 
2.5064512312529299

>  <r_glide_res:A15_hbond>  (1) 
0

>  <r_glide_res:A15_vdw>  (1) 
-4.8862558240028902

>  <r_glide_res:A16_Eint>  (1) 
-3.0830161133964

>  <r_glide_res:A16_coul>  (1) 
-0.39236478079459303

>  <r_glide_res:A16_dist>  (1) 
2.8672403128266999

>  <r_glide_res:A16_hbond>  (1) 
0

>  <r_glide_res:A16_vdw>  (1) 
-2.69065133260181

>  <r_glide_res:A17_Eint>  (1) 
-1.1275713084866701

>  <r_glide_res:A17_coul>  (1) 
0.61851812706130305

>  <r_glide_res:A17_dist>  (1) 
2.35287619923306

>  <r_glide_res:A17_hbond>  (1) 
0

>  <r_glide_res:A17_vdw>  (1) 
-1.7460894355479699

>  <r_glide_res:A18_Eint>  (1) 
-0.29596151316422598

>  <r_glide_res:A18_coul>  (1) 
0.033347068443707599

>  <r_glide_res:A18_dist>  (1) 
3.9739711792943

>  <r_glide_res:A18_hbond>  (1) 
0

>  <r_glide_res:A18_vdw>  (1) 
-0.32930858160793303

>  <r_glide_res:A19_Eint>  (1) 
-0.0051207140086519899

>  <r_glide_res:A19_coul>  (1) 
0.049515476609959398

>  <r_glide_res:A19_dist>  (1) 
6.3263040729861899

>  <r_glide_res:A19_hbond>  (1) 
0

>  <r_glide_res:A19_vdw>  (1) 
-0.054636190618611399

>  <r_glide_res:A20_Eint>  (1) 
-2.0183825365950501

>  <r_glide_res:A20_coul>  (1) 
0.50645767169066702

>  <r_glide_res:A20_dist>  (1) 
2.2012242374862199

>  <r_glide_res:A20_hbond>  (1) 
0

>  <r_glide_res:A20_vdw>  (1) 
-2.52484020828572

>  <r_glide_res:A21_Eint>  (1) 
-0.151552718706882

>  <r_glide_res:A21_coul>  (1) 
-0.058639165660778703

>  <r_glide_res:A21_dist>  (1) 
5.9518889813869498

>  <r_glide_res:A21_hbond>  (1) 
0

>  <r_glide_res:A21_vdw>  (1) 
-0.092913553046103103

>  <r_glide_res:A22_Eint>  (1) 
0.508462983273128

>  <r_glide_res:A22_coul>  (1) 
0.783209417679405

>  <r_glide_res:A22_dist>  (1) 
5.4653881073410604

>  <r_glide_res:A22_hbond>  (1) 
0

>  <r_glide_res:A22_vdw>  (1) 
-0.274746434406276

>  <r_glide_res:A23_Eint>  (1) 
-2.3956405361386302

>  <r_glide_res:A23_coul>  (1) 
-0.105964989570888

>  <r_glide_res:A23_dist>  (1) 
1.99069151277446

>  <r_glide_res:A23_hbond>  (1) 
0

>  <r_glide_res:A23_vdw>  (1) 
-2.2896755465677399

>  <r_glide_res:A24_Eint>  (1) 
-0.015438039987467801

>  <r_glide_res:A24_coul>  (1) 
0.234631783672859

>  <r_glide_res:A24_dist>  (1) 
5.5115082154762103

>  <r_glide_res:A24_hbond>  (1) 
0

>  <r_glide_res:A24_vdw>  (1) 
-0.25006982366032698

>  <r_glide_res:A25_Eint>  (1) 
-0.27934833980961499

>  <r_glide_res:A25_coul>  (1) 
-0.12085451243569401

>  <r_glide_res:A25_dist>  (1) 
5.8605596634062804

>  <r_glide_res:A25_hbond>  (1) 
0

>  <r_glide_res:A25_vdw>  (1) 
-0.15849382737392201

>  <r_glide_res:A26_Eint>  (1) 
0.077576013629028204

>  <r_glide_res:A26_coul>  (1) 
0.104584978357272

>  <r_glide_res:A26_dist>  (1) 
7.92020807630918

>  <r_glide_res:A26_hbond>  (1) 
0

>  <r_glide_res:A26_vdw>  (1) 
-0.027008964728244

>  <r_glide_res:A35_Eint>  (1) 
-0.13695950206580801

>  <r_glide_res:A35_coul>  (1) 
-0.044275707283738801

>  <r_glide_res:A35_dist>  (1) 
6.8529113207878698

>  <r_glide_res:A35_hbond>  (1) 
0

>  <r_glide_res:A35_vdw>  (1) 
-0.092683794782069506

>  <r_glide_res:A36_Eint>  (1) 
-1.8343919127492601

>  <r_glide_res:A36_coul>  (1) 
-0.441859683699801

>  <r_glide_res:A36_dist>  (1) 
2.5512353744579199

>  <r_glide_res:A36_hbond>  (1) 
0

>  <r_glide_res:A36_vdw>  (1) 
-1.3925322290494599

>  <r_glide_res:A37_Eint>  (1) 
-0.17866813947246499

>  <r_glide_res:A37_coul>  (1) 
0.13581236400985899

>  <r_glide_res:A37_dist>  (1) 
4.4934760218249403

>  <r_glide_res:A37_hbond>  (1) 
0

>  <r_glide_res:A37_vdw>  (1) 
-0.31448050348232498

>  <r_glide_res:A38_Eint>  (1) 
0.93392726141704796

>  <r_glide_res:A38_coul>  (1) 
2.06410602576576

>  <r_glide_res:A38_dist>  (1) 
2.5421652834780102

>  <r_glide_res:A38_hbond>  (1) 
0

>  <r_glide_res:A38_vdw>  (1) 
-1.13017876434871

>  <r_glide_res:A39_Eint>  (1) 
-0.136560265535808

>  <r_glide_res:A39_coul>  (1) 
-0.065156578637036

>  <r_glide_res:A39_dist>  (1) 
6.2053257909088497

>  <r_glide_res:A39_hbond>  (1) 
0

>  <r_glide_res:A39_vdw>  (1) 
-0.071403686898771995

>  <r_glide_res:A40_Eint>  (1) 
0.00126320502316635

>  <r_glide_res:A40_coul>  (1) 
0.034407259291714301

>  <r_glide_res:A40_dist>  (1) 
7.4214108228076396

>  <r_glide_res:A40_hbond>  (1) 
0

>  <r_glide_res:A40_vdw>  (1) 
-0.033144054268548002

>  <r_glide_res:A55_Eint>  (1) 
-0.99262952891480505

>  <r_glide_res:A55_coul>  (1) 
-0.93348468726400502

>  <r_glide_res:A55_dist>  (1) 
5.9551257864864997

>  <r_glide_res:A55_hbond>  (1) 
0

>  <r_glide_res:A55_vdw>  (1) 
-0.059144841650799897

>  <r_glide_res:A59_Eint>  (1) 
-0.082366754645133405

>  <r_glide_res:A59_coul>  (1) 
-0.047157838555666999

>  <r_glide_res:A59_dist>  (1) 
5.8952664108255197

>  <r_glide_res:A59_hbond>  (1) 
0

>  <r_glide_res:A59_vdw>  (1) 
-0.035208916089466399

>  <r_glide_res:A68_Eint>  (1) 
0.19076199031736199

>  <r_glide_res:A68_coul>  (1) 
-0.140074552959712

>  <r_glide_res:A68_dist>  (1) 
2.07238256377389

>  <r_glide_res:A68_hbond>  (1) 
0

>  <r_glide_res:A68_vdw>  (1) 
0.33083654327707401

>  <r_glide_res:A69_Eint>  (1) 
-0.93585954293228202

>  <r_glide_res:A69_coul>  (1) 
-0.87018182070739902

>  <r_glide_res:A69_dist>  (1) 
6.0395578743357898

>  <r_glide_res:A69_hbond>  (1) 
0

>  <r_glide_res:A69_vdw>  (1) 
-0.065677722224883106

>  <r_glide_res:A82_Eint>  (1) 
-0.057790129012337599

>  <r_glide_res:A82_coul>  (1) 
0.061332124105650199

>  <r_glide_res:A82_dist>  (1) 
5.3012729105587697

>  <r_glide_res:A82_hbond>  (1) 
0

>  <r_glide_res:A82_vdw>  (1) 
-0.11912225311798801

>  <r_glide_res:A83_Eint>  (1) 
-0.207499576304743

>  <r_glide_res:A83_coul>  (1) 
-0.13507714382150099

>  <r_glide_res:A83_dist>  (1) 
6.4791120886499503

>  <r_glide_res:A83_hbond>  (1) 
0

>  <r_glide_res:A83_vdw>  (1) 
-0.072422432483242899

>  <r_glide_res:A84_Eint>  (1) 
-1.6526285987142599

>  <r_glide_res:A84_coul>  (1) 
0.148210468425547

>  <r_glide_res:A84_dist>  (1) 
2.2426566436644499

>  <r_glide_res:A84_hbond>  (1) 
0

>  <r_glide_res:A84_vdw>  (1) 
-1.80083906713981

>  <r_glide_res:A85_Eint>  (1) 
1.3821203131317901

>  <r_glide_res:A85_coul>  (1) 
1.9034323256241099

>  <r_glide_res:A85_dist>  (1) 
3.6070651890746901

>  <r_glide_res:A85_hbond>  (1) 
0

>  <r_glide_res:A85_vdw>  (1) 
-0.52131201249232095

>  <r_glide_res:A86_Eint>  (1) 
-2.1594392015391399

>  <r_glide_res:A86_coul>  (1) 
-1.0423597263528801

>  <r_glide_res:A86_dist>  (1) 
3.0543641932238601

>  <r_glide_res:A86_hbond>  (1) 
0

>  <r_glide_res:A86_vdw>  (1) 
-1.1170794751862601

>  <r_glide_res:A87_Eint>  (1) 
-1.4832242482435101

>  <r_glide_res:A87_coul>  (1) 
-0.15180443143865899

>  <r_glide_res:A87_dist>  (1) 
3.1463532895557198

>  <r_glide_res:A87_hbond>  (1) 
0

>  <r_glide_res:A87_vdw>  (1) 
-1.3314198168048501

>  <r_glide_res:A88_Eint>  (1) 
-0.15221881743013399

>  <r_glide_res:A88_coul>  (1) 
0.063862090697352894

>  <r_glide_res:A88_dist>  (1) 
5.3060188954781804

>  <r_glide_res:A88_hbond>  (1) 
0

>  <r_glide_res:A88_vdw>  (1) 
-0.21608090812748701

>  <r_glide_res:A89_Eint>  (1) 
-0.41127239077132399

>  <r_glide_res:A89_coul>  (1) 
-0.22749076506454599

>  <r_glide_res:A89_dist>  (1) 
5.8456374706207503

>  <r_glide_res:A89_hbond>  (1) 
0

>  <r_glide_res:A89_vdw>  (1) 
-0.183781625706777

>  <r_glide_res:A90_Eint>  (1) 
-2.9435448956805899

>  <r_glide_res:A90_coul>  (1) 
-1.41263942091043

>  <r_glide_res:A90_dist>  (1) 
2.8521096599454201

>  <r_glide_res:A90_hbond>  (1) 
0

>  <r_glide_res:A90_vdw>  (1) 
-1.53090547477016

>  <r_glide_res:A91_Eint>  (1) 
-9.2685447468422506

>  <r_glide_res:A91_coul>  (1) 
-1.7357820148358301

>  <r_glide_res:A91_dist>  (1) 
2.3202344197412401

>  <r_glide_res:A91_hbond>  (1) 
0

>  <r_glide_res:A91_vdw>  (1) 
-7.5327627320064199

>  <r_glide_res:A92_Eint>  (1) 
-0.073076941307016294

>  <r_glide_res:A92_coul>  (1) 
0.053527311175752101

>  <r_glide_res:A92_dist>  (1) 
7.4576610623534902

>  <r_glide_res:A92_hbond>  (1) 
0

>  <r_glide_res:A92_vdw>  (1) 
-0.12660425248276799

>  <r_glide_res:A93_Eint>  (1) 
-0.37571147923975801

>  <r_glide_res:A93_coul>  (1) 
0.198005846728667

>  <r_glide_res:A93_dist>  (1) 
4.39926531251953

>  <r_glide_res:A93_hbond>  (1) 
0

>  <r_glide_res:A93_vdw>  (1) 
-0.57371732596842495

>  <r_glide_res:A94_Eint>  (1) 
-5.6079936436362603

>  <r_glide_res:A94_coul>  (1) 
-4.5142324435195702

>  <r_glide_res:A94_dist>  (1) 
2.4928351384108098

>  <r_glide_res:A94_hbond>  (1) 
0

>  <r_glide_res:A94_vdw>  (1) 
-1.0937612001166901

>  <r_glide_res:A95_Eint>  (1) 
-1.6598167293553101

>  <r_glide_res:A95_coul>  (1) 
-1.59457901473763

>  <r_glide_res:A95_dist>  (1) 
7.8085822165209899

>  <r_glide_res:A95_hbond>  (1) 
0

>  <r_glide_res:A95_vdw>  (1) 
-0.0652377146176783

>  <r_i_docking_score>  (1) 
-4.8822662863475497

>  <r_i_glide_ecoul>  (1) 
-4.6331925392150897

>  <r_i_glide_eff_state_penalty>  (1) 
-0

>  <r_i_glide_einternal>  (1) 
1.9383317232132

>  <r_i_glide_emodel>  (1) 
-58.710007007439899

>  <r_i_glide_energy>  (1) 
-46.537451267242403

>  <r_i_glide_erotb>  (1) 
0.106660357258079

>  <r_i_glide_esite>  (1) 
-0.112086121767674

>  <r_i_glide_evdw>  (1) 
-41.904258728027301

>  <r_i_glide_gscore>  (1) 
-4.8822662863475497

>  <r_i_glide_hbond>  (1) 
0

>  <r_i_glide_ligand_efficiency>  (1) 
-0.162742209544918

>  <r_i_glide_ligand_efficiency_ln>  (1) 
-1.10930409681006

>  <r_i_glide_ligand_efficiency_sa>  (1) 
-0.50567788301542105

>  <r_i_glide_lipo>  (1) 
-1.62214288637251

>  <r_i_glide_metal>  (1) 
-0

>  <r_i_glide_rewards>  (1) 
-0.46450581818181702

>  <r_lp_Energy>  (1) 
58.221499999999999

>  <r_lp_tautomer_probability>  (1) 
1

>  <i_epik_Tot_Q>  (1) 
0

>  <i_epik_Tot_abs_Q>  (1) 
0

>  <i_i_glide_confnum>  (1) 
46

>  <i_i_glide_lignum>  (1) 
406

>  <i_i_glide_posenum>  (1) 
209

>  <i_i_glide_rotatable_bonds>  (1) 
2

>  <i_lp_mmshare_version>  (1) 
54117

>  <i_m_ct_enhanced_stereo_status>  (1) 
0

>  <i_m_ct_format>  (1) 
2

>  <i_m_source_file_index>  (1) 
284

>  <i_sd_Affinity>  (1) 
13

>  <i_sd_i\_f3d\_flags>  (1) 
0

>  <i_sd_version>  (1) 
0

>  <b_lp_Chiralities_Consistent>  (1) 
1

>  <b_sd_chiral_flag>  (1) 
1

$$$$
