O14757_Sries37726_idx-in-all-actives-372
     RDKit          2D

 16 18  0  0  0  0  0  0  0  0999 V2000
    4.5000    0.0000    0.0000 N   0  0  0  0  0  0  0  0  0  0  0  0
    3.0000    0.0000    0.0000 C   0  0  0  0  0  0  0  0  0  0  0  0
    1.5000    0.0000    0.0000 C   0  0  0  0  0  0  0  0  0  0  0  0
    0.7500   -1.2990    0.0000 C   0  0  0  0  0  0  0  0  0  0  0  0
   -0.7500   -1.2990    0.0000 C   0  0  0  0  0  0  0  0  0  0  0  0
   -1.5000    0.0000    0.0000 C   0  0  0  0  0  0  0  0  0  0  0  0
   -0.7500    1.2990    0.0000 C   0  0  0  0  0  0  0  0  0  0  0  0
    0.7500    1.2990    0.0000 N   0  0  0  0  0  0  0  0  0  0  0  0
   -2.9672   -0.3119    0.0000 N   0  0  0  0  0  0  0  0  0  0  0  0
   -3.1240   -1.8037    0.0000 C   0  0  0  0  0  0  0  0  0  0  0  0
   -4.3375   -2.6853    0.0000 N   0  0  0  0  0  0  0  0  0  0  0  0
   -4.1807   -4.1771    0.0000 C   0  0  0  0  0  0  0  0  0  0  0  0
   -2.8104   -4.7872    0.0000 C   0  0  0  0  0  0  0  0  0  0  0  0
   -2.6536   -6.2790    0.0000 O   0  0  0  0  0  0  0  0  0  0  0  0
   -1.5969   -3.9055    0.0000 C   0  0  0  0  0  0  0  0  0  0  0  0
   -1.7537   -2.4138    0.0000 C   0  0  0  0  0  0  0  0  0  0  0  0
  1  2  3  0
  2  3  1  0
  3  4  2  0
  4  5  1  0
  5  6  2  0
  6  7  1  0
  7  8  2  0
  6  9  1  0
  9 10  1  0
 10 11  2  0
 11 12  1  0
 12 13  2  0
 13 14  1  0
 13 15  1  0
 15 16  2  0
  8  3  1  0
 16 10  1  0
 16  5  1  0
M  END
>  <Affinity>  (1) 
38.1

>  <Affinity Type>  (1) 
IC50

>  <Affinity Unit>  (1) 
nM

>  <Scaffold>  (1) 
[#6&R]1:&@[#6&R]:&@[#6&R]2:&@[#6&R](:&@[#6&R]:&@[#7&R]:&@1):&@[#7&R]:&@[#6&R]1:&@[#6&R]:&@2:&@[#6&R]:&@[#6&R]:&@[#6&R]:&@[#7&R]:&@1

$$$$
O14757_Sries37726_idx-in-all-actives-385
     RDKit          2D

 31 36  0  0  0  0  0  0  0  0999 V2000
    2.0046   -4.9721    0.0000 C   0  0  0  0  0  0  0  0  0  0  0  0
    3.3037   -4.2221    0.0000 N   0  0  0  0  0  0  0  0  0  0  0  0
    2.9918   -2.7549    0.0000 C   0  0  0  0  0  0  0  0  0  0  0  0
    1.5000   -2.5981    0.0000 C   0  0  0  0  0  0  0  0  0  0  0  0
    0.7500   -1.2990    0.0000 C   0  0  0  0  0  0  0  0  0  0  0  0
    1.5000    0.0000    0.0000 C   0  0  0  0  0  0  0  0  0  0  0  0
    0.7500    1.2990    0.0000 C   0  0  0  0  0  0  0  0  0  0  0  0
   -0.7500    1.2990    0.0000 C   0  0  0  0  0  0  0  0  0  0  0  0
   -1.5000    0.0000    0.0000 C   0  0  0  0  0  0  0  0  0  0  0  0
   -0.7500   -1.2990    0.0000 N   0  0  0  0  0  0  0  0  0  0  0  0
   -1.2135    2.7256    0.0000 N   0  0  0  0  0  0  0  0  0  0  0  0
   -0.0000    3.6073    0.0000 C   0  0  0  0  0  0  0  0  0  0  0  0
    0.1568    5.0991    0.0000 N   0  0  0  0  0  0  0  0  0  0  0  0
    1.5271    5.7092    0.0000 C   0  0  0  0  0  0  0  0  0  0  0  0
    2.7406    4.8275    0.0000 C   0  0  0  0  0  0  0  0  0  0  0  0
    4.1110    5.4376    0.0000 C   0  0  0  0  0  0  0  0  0  0  0  0
    5.3245    4.5559    0.0000 C   0  0  0  0  0  0  0  0  0  0  0  0
    6.6948    5.1660    0.0000 C   0  0  0  0  0  0  0  0  0  0  0  0
    6.8516    6.6578    0.0000 C   0  0  0  0  0  0  0  0  0  0  0  0
    8.2219    7.2679    0.0000 C   0  0  0  0  0  0  0  0  0  0  0  0
    9.4354    6.3863    0.0000 N   0  0  0  0  0  0  0  0  0  0  0  0
    9.2786    4.8945    0.0000 C   0  0  0  0  0  0  0  0  0  0  0  0
   10.4922    4.0128    0.0000 C   0  0  0  0  0  0  0  0  0  0  0  0
   11.8625    4.6229    0.0000 C   0  0  0  0  0  0  0  0  0  0  0  0
   12.0193    6.1147    0.0000 C   0  0  0  0  0  0  0  0  0  0  0  0
   10.8058    6.9964    0.0000 C   0  0  0  0  0  0  0  0  0  0  0  0
    5.6381    7.5395    0.0000 C   0  0  0  0  0  0  0  0  0  0  0  0
    4.2677    6.9294    0.0000 C   0  0  0  0  0  0  0  0  0  0  0  0
    2.5838    3.3357    0.0000 C   0  0  0  0  0  0  0  0  0  0  0  0
    1.2135    2.7256    0.0000 C   0  0  0  0  0  0  0  0  0  0  0  0
    0.8899   -3.9684    0.0000 O   0  0  0  0  0  0  0  0  0  0  0  0
  1  2  2  0
  2  3  1  0
  3  4  2  0
  4  5  1  0
  5  6  2  0
  6  7  1  0
  7  8  2  0
  8  9  1  0
  9 10  2  0
  8 11  1  0
 11 12  1  0
 12 13  2  0
 13 14  1  0
 14 15  2  0
 15 16  1  0
 16 17  2  0
 17 18  1  0
 18 19  2  0
 19 20  1  0
 20 21  1  0
 21 22  1  0
 22 23  1  0
 23 24  1  0
 24 25  1  0
 25 26  1  0
 19 27  1  0
 27 28  2  0
 15 29  1  0
 29 30  2  0
  4 31  1  0
 31  1  1  0
 10  5  1  0
 30 12  1  0
 30  7  1  0
 28 16  1  0
 26 21  1  0
M  END
>  <Affinity>  (2) 
0.46

>  <Affinity Type>  (2) 
IC50

>  <Affinity Unit>  (2) 
nM

>  <Scaffold>  (2) 
[#6&R]1:&@[#6&R]:&@[#6&R]2:&@[#6&R](:&@[#6&R]:&@[#7&R]:&@1):&@[#7&R]:&@[#6&R]1:&@[#6&R]:&@2:&@[#6&R]:&@[#6&R]:&@[#6&R]:&@[#7&R]:&@1

$$$$
O14757_Sries37726_idx-in-all-actives-355
     RDKit          2D

 30 34  0  0  0  0  0  0  0  0999 V2000
    3.7500  -11.6913    0.0000 C   0  0  0  0  0  0  0  0  0  0  0  0
    3.0000  -10.3923    0.0000 C   0  0  0  0  0  0  0  0  0  0  0  0
    1.5000  -10.3923    0.0000 C   0  0  0  0  0  0  0  0  0  0  0  0
    0.7500   -9.0933    0.0000 C   0  0  0  0  0  0  0  0  0  0  0  0
   -0.7500   -9.0933    0.0000 C   0  0  0  0  0  0  0  0  0  0  0  0
    1.5000   -7.7942    0.0000 C   0  0  0  0  0  0  0  0  0  0  0  0
    3.0000   -7.7942    0.0000 N   0  0  0  0  0  0  0  0  0  0  0  0
    3.7500   -6.4952    0.0000 C   0  0  0  0  0  0  0  0  0  0  0  0
    3.0000   -5.1962    0.0000 C   0  0  0  0  0  0  0  0  0  0  0  0
    3.7500   -3.8971    0.0000 C   0  0  0  0  0  0  0  0  0  0  0  0
    3.0000   -2.5981    0.0000 C   0  0  0  0  0  0  0  0  0  0  0  0
    1.5000   -2.5981    0.0000 C   0  0  0  0  0  0  0  0  0  0  0  0
    0.7500   -1.2990    0.0000 C   0  0  0  0  0  0  0  0  0  0  0  0
    1.5000    0.0000    0.0000 C   0  0  0  0  0  0  0  0  0  0  0  0
    0.7500    1.2990    0.0000 N   0  0  0  0  0  0  0  0  0  0  0  0
   -0.7500    1.2990    0.0000 C   0  0  0  0  0  0  0  0  0  0  0  0
   -1.7537    2.4138    0.0000 N   0  0  0  0  0  0  0  0  0  0  0  0
   -3.1240    1.8037    0.0000 C   0  0  0  0  0  0  0  0  0  0  0  0
   -4.4943    2.4138    0.0000 C   0  0  0  0  0  0  0  0  0  0  0  0
   -5.7079    1.5321    0.0000 N   0  0  0  0  0  0  0  0  0  0  0  0
   -5.5511    0.0403    0.0000 C   0  0  0  0  0  0  0  0  0  0  0  0
   -6.7646   -0.8414    0.0000 C   0  0  0  0  0  0  0  0  0  0  0  0
   -7.9781   -1.7231    0.0000 N   0  0  0  0  0  0  0  0  0  0  0  0
   -4.1807   -0.5698    0.0000 C   0  0  0  0  0  0  0  0  0  0  0  0
   -2.9672    0.3119    0.0000 C   0  0  0  0  0  0  0  0  0  0  0  0
   -1.5000    0.0000    0.0000 C   0  0  0  0  0  0  0  0  0  0  0  0
   -0.7500   -1.2990    0.0000 C   0  0  0  0  0  0  0  0  0  0  0  0
    0.7500   -3.8971    0.0000 C   0  0  0  0  0  0  0  0  0  0  0  0
    1.5000   -5.1962    0.0000 C   0  0  0  0  0  0  0  0  0  0  0  0
    3.7500   -9.0933    0.0000 C   0  0  0  0  0  0  0  0  0  0  0  0
  2  1  1  6
  2  3  1  0
  3  4  1  0
  4  5  1  6
  4  6  1  0
  6  7  1  0
  7  8  1  0
  8  9  1  0
  9 10  2  0
 10 11  1  0
 11 12  2  0
 12 13  1  0
 13 14  2  0
 14 15  1  0
 15 16  2  0
 16 17  1  0
 17 18  1  0
 18 19  2  0
 19 20  1  0
 20 21  2  0
 21 22  1  0
 22 23  3  0
 21 24  1  0
 24 25  2  0
 25 26  1  0
 26 27  2  0
 12 28  1  0
 28 29  2  0
  7 30  1  0
 30  2  1  0
 29  9  1  0
 27 13  1  0
 26 16  1  0
 25 18  1  0
M  END
>  <Affinity>  (3) 
4.2

>  <Affinity Type>  (3) 
IC50

>  <Affinity Unit>  (3) 
nM

>  <Scaffold>  (3) 
[#6&R]1:&@[#6&R]:&@[#6&R]2:&@[#6&R](:&@[#6&R]:&@[#7&R]:&@1):&@[#7&R]:&@[#6&R]1:&@[#6&R]:&@2:&@[#6&R]:&@[#6&R]:&@[#6&R]:&@[#7&R]:&@1

$$$$
O14757_Sries37726_idx-in-all-actives-360
     RDKit          2D

 21 24  0  0  0  0  0  0  0  0999 V2000
    4.5000    0.0000    0.0000 N   0  0  0  0  0  0  0  0  0  0  0  0
    3.0000    0.0000    0.0000 C   0  0  0  0  0  0  0  0  0  0  0  0
    1.5000    0.0000    0.0000 C   0  0  0  0  0  0  0  0  0  0  0  0
    0.7500   -1.2990    0.0000 C   0  0  0  0  0  0  0  0  0  0  0  0
   -0.7500   -1.2990    0.0000 C   0  0  0  0  0  0  0  0  0  0  0  0
   -1.5000    0.0000    0.0000 C   0  0  0  0  0  0  0  0  0  0  0  0
   -0.7500    1.2990    0.0000 C   0  0  0  0  0  0  0  0  0  0  0  0
    0.7500    1.2990    0.0000 N   0  0  0  0  0  0  0  0  0  0  0  0
   -2.9672   -0.3119    0.0000 N   0  0  0  0  0  0  0  0  0  0  0  0
   -3.1240   -1.8037    0.0000 C   0  0  0  0  0  0  0  0  0  0  0  0
   -4.3375   -2.6853    0.0000 N   0  0  0  0  0  0  0  0  0  0  0  0
   -4.1807   -4.1771    0.0000 C   0  0  0  0  0  0  0  0  0  0  0  0
   -2.8104   -4.7872    0.0000 C   0  0  0  0  0  0  0  0  0  0  0  0
   -2.6536   -6.2790    0.0000 C   0  0  0  0  0  0  0  0  0  0  0  0
   -3.8672   -7.1607    0.0000 C   0  0  0  0  0  0  0  0  0  0  0  0
   -3.7104   -8.6525    0.0000 C   0  0  0  0  0  0  0  0  0  0  0  0
   -2.3401   -9.2626    0.0000 C   0  0  0  0  0  0  0  0  0  0  0  0
   -1.1265   -8.3809    0.0000 N   0  0  0  0  0  0  0  0  0  0  0  0
   -1.2833   -6.8891    0.0000 C   0  0  0  0  0  0  0  0  0  0  0  0
   -1.5969   -3.9055    0.0000 C   0  0  0  0  0  0  0  0  0  0  0  0
   -1.7537   -2.4138    0.0000 C   0  0  0  0  0  0  0  0  0  0  0  0
  1  2  3  0
  2  3  1  0
  3  4  2  0
  4  5  1  0
  5  6  2  0
  6  7  1  0
  7  8  2  0
  6  9  1  0
  9 10  1  0
 10 11  2  0
 11 12  1  0
 12 13  2  0
 13 14  1  0
 14 15  2  0
 15 16  1  0
 16 17  2  0
 17 18  1  0
 18 19  2  0
 13 20  1  0
 20 21  2  0
  8  3  1  0
 21 10  1  0
 21  5  1  0
 19 14  1  0
M  END
>  <Affinity>  (4) 
76.5

>  <Affinity Type>  (4) 
IC50

>  <Affinity Unit>  (4) 
nM

>  <Scaffold>  (4) 
[#6&R]1:&@[#6&R]:&@[#6&R]2:&@[#6&R](:&@[#6&R]:&@[#7&R]:&@1):&@[#7&R]:&@[#6&R]1:&@[#6&R]:&@2:&@[#6&R]:&@[#6&R]:&@[#6&R]:&@[#7&R]:&@1

$$$$
O14757_Sries37726_idx-in-all-actives-398
     RDKit          2D

 30 34  0  0  0  0  0  0  0  0999 V2000
    4.5000    0.0000    0.0000 N   0  0  0  0  0  0  0  0  0  0  0  0
    3.0000    0.0000    0.0000 C   0  0  0  0  0  0  0  0  0  0  0  0
    1.5000    0.0000    0.0000 C   0  0  0  0  0  0  0  0  0  0  0  0
    0.7500   -1.2990    0.0000 C   0  0  0  0  0  0  0  0  0  0  0  0
   -0.7500   -1.2990    0.0000 C   0  0  0  0  0  0  0  0  0  0  0  0
   -1.5000    0.0000    0.0000 C   0  0  0  0  0  0  0  0  0  0  0  0
   -0.7500    1.2990    0.0000 C   0  0  0  0  0  0  0  0  0  0  0  0
    0.7500    1.2990    0.0000 N   0  0  0  0  0  0  0  0  0  0  0  0
   -2.9672   -0.3119    0.0000 N   0  0  0  0  0  0  0  0  0  0  0  0
   -3.1240   -1.8037    0.0000 C   0  0  0  0  0  0  0  0  0  0  0  0
   -4.3375   -2.6853    0.0000 N   0  0  0  0  0  0  0  0  0  0  0  0
   -4.1807   -4.1771    0.0000 C   0  0  0  0  0  0  0  0  0  0  0  0
   -2.8104   -4.7872    0.0000 C   0  0  0  0  0  0  0  0  0  0  0  0
   -2.6536   -6.2790    0.0000 C   0  0  0  0  0  0  0  0  0  0  0  0
   -3.8672   -7.1607    0.0000 C   0  0  0  0  0  0  0  0  0  0  0  0
   -3.7104   -8.6525    0.0000 C   0  0  0  0  0  0  0  0  0  0  0  0
   -2.3401   -9.2626    0.0000 C   0  0  0  0  0  0  0  0  0  0  0  0
   -2.1833  -10.7543    0.0000 C   0  0  0  0  0  0  0  0  0  0  0  0
   -3.3968  -11.6360    0.0000 N   0  0  0  0  0  0  0  0  0  0  0  0
   -4.7671  -11.0259    0.0000 C   0  0  0  0  0  0  0  0  0  0  0  0
   -5.9806  -11.9076    0.0000 C   0  0  0  0  0  0  0  0  0  0  0  0
   -5.8238  -13.3994    0.0000 C   0  0  0  0  0  0  0  0  0  0  0  0
   -7.0374  -14.2811    0.0000 C   0  0  0  0  0  0  0  0  0  0  0  0
   -8.2509  -15.1627    0.0000 N   0  0  0  0  0  0  0  0  0  0  0  0
   -4.4535  -14.0095    0.0000 C   0  0  0  0  0  0  0  0  0  0  0  0
   -3.2400  -13.1278    0.0000 C   0  0  0  0  0  0  0  0  0  0  0  0
   -1.1265   -8.3809    0.0000 C   0  0  0  0  0  0  0  0  0  0  0  0
   -1.2833   -6.8891    0.0000 C   0  0  0  0  0  0  0  0  0  0  0  0
   -1.5969   -3.9055    0.0000 C   0  0  0  0  0  0  0  0  0  0  0  0
   -1.7537   -2.4138    0.0000 C   0  0  0  0  0  0  0  0  0  0  0  0
  1  2  3  0
  2  3  1  0
  3  4  2  0
  4  5  1  0
  5  6  2  0
  6  7  1  0
  7  8  2  0
  6  9  1  0
  9 10  1  0
 10 11  2  0
 11 12  1  0
 12 13  2  0
 13 14  1  0
 14 15  2  0
 15 16  1  0
 16 17  2  0
 17 18  1  0
 18 19  1  0
 19 20  1  0
 20 21  1  0
 21 22  1  0
 22 23  1  0
 23 24  3  0
 22 25  1  0
 25 26  1  0
 17 27  1  0
 27 28  2  0
 13 29  1  0
 29 30  2  0
  8  3  1  0
 30 10  1  0
 30  5  1  0
 28 14  1  0
 26 19  1  0
M  END
>  <Affinity>  (5) 
11.6

>  <Affinity Type>  (5) 
IC50

>  <Affinity Unit>  (5) 
nM

>  <Scaffold>  (5) 
[#6&R]1:&@[#6&R]:&@[#6&R]2:&@[#6&R](:&@[#6&R]:&@[#7&R]:&@1):&@[#7&R]:&@[#6&R]1:&@[#6&R]:&@2:&@[#6&R]:&@[#6&R]:&@[#6&R]:&@[#7&R]:&@1

$$$$
O14757_Sries37726_idx-in-all-actives-373
     RDKit          2D

 16 18  0  0  0  0  0  0  0  0999 V2000
    4.5000    0.0000    0.0000 N   0  0  0  0  0  0  0  0  0  0  0  0
    3.0000    0.0000    0.0000 C   0  0  0  0  0  0  0  0  0  0  0  0
    1.5000    0.0000    0.0000 C   0  0  0  0  0  0  0  0  0  0  0  0
    0.7500   -1.2990    0.0000 C   0  0  0  0  0  0  0  0  0  0  0  0
   -0.7500   -1.2990    0.0000 C   0  0  0  0  0  0  0  0  0  0  0  0
   -1.5000    0.0000    0.0000 C   0  0  0  0  0  0  0  0  0  0  0  0
   -0.7500    1.2990    0.0000 C   0  0  0  0  0  0  0  0  0  0  0  0
    0.7500    1.2990    0.0000 N   0  0  0  0  0  0  0  0  0  0  0  0
   -2.9672   -0.3119    0.0000 N   0  0  0  0  0  0  0  0  0  0  0  0
   -3.1240   -1.8037    0.0000 C   0  0  0  0  0  0  0  0  0  0  0  0
   -4.3375   -2.6853    0.0000 N   0  0  0  0  0  0  0  0  0  0  0  0
   -4.1807   -4.1771    0.0000 C   0  0  0  0  0  0  0  0  0  0  0  0
   -2.8104   -4.7872    0.0000 C   0  0  0  0  0  0  0  0  0  0  0  0
   -2.6536   -6.2790    0.0000 Br  0  0  0  0  0  0  0  0  0  0  0  0
   -1.5969   -3.9055    0.0000 C   0  0  0  0  0  0  0  0  0  0  0  0
   -1.7537   -2.4138    0.0000 C   0  0  0  0  0  0  0  0  0  0  0  0
  1  2  3  0
  2  3  1  0
  3  4  2  0
  4  5  1  0
  5  6  2  0
  6  7  1  0
  7  8  2  0
  6  9  1  0
  9 10  1  0
 10 11  2  0
 11 12  1  0
 12 13  2  0
 13 14  1  0
 13 15  1  0
 15 16  2  0
  8  3  1  0
 16 10  1  0
 16  5  1  0
M  END
>  <Affinity>  (6) 
140.0

>  <Affinity Type>  (6) 
IC50

>  <Affinity Unit>  (6) 
nM

>  <Scaffold>  (6) 
[#6&R]1:&@[#6&R]:&@[#6&R]2:&@[#6&R](:&@[#6&R]:&@[#7&R]:&@1):&@[#7&R]:&@[#6&R]1:&@[#6&R]:&@2:&@[#6&R]:&@[#6&R]:&@[#6&R]:&@[#7&R]:&@1

$$$$
O14757_Sries37726_idx-in-all-actives-386
     RDKit          2D

 27 31  0  0  0  0  0  0  0  0999 V2000
    3.0000    0.0000    0.0000 O   0  0  0  0  0  0  0  0  0  0  0  0
    1.5000    0.0000    0.0000 C   0  0  0  0  0  0  0  0  0  0  0  0
    0.7500   -1.2990    0.0000 C   0  0  0  0  0  0  0  0  0  0  0  0
   -0.7500   -1.2990    0.0000 C   0  0  0  0  0  0  0  0  0  0  0  0
   -1.5000    0.0000    0.0000 C   0  0  0  0  0  0  0  0  0  0  0  0
   -0.7500    1.2990    0.0000 C   0  0  0  0  0  0  0  0  0  0  0  0
    0.7500    1.2990    0.0000 N   0  0  0  0  0  0  0  0  0  0  0  0
   -2.9672   -0.3119    0.0000 N   0  0  0  0  0  0  0  0  0  0  0  0
   -3.1240   -1.8037    0.0000 C   0  0  0  0  0  0  0  0  0  0  0  0
   -4.3375   -2.6853    0.0000 N   0  0  0  0  0  0  0  0  0  0  0  0
   -4.1807   -4.1771    0.0000 C   0  0  0  0  0  0  0  0  0  0  0  0
   -2.8104   -4.7872    0.0000 C   0  0  0  0  0  0  0  0  0  0  0  0
   -2.6536   -6.2790    0.0000 C   0  0  0  0  0  0  0  0  0  0  0  0
   -3.8672   -7.1607    0.0000 C   0  0  0  0  0  0  0  0  0  0  0  0
   -3.7104   -8.6525    0.0000 C   0  0  0  0  0  0  0  0  0  0  0  0
   -2.3401   -9.2626    0.0000 C   0  0  0  0  0  0  0  0  0  0  0  0
   -2.1833  -10.7543    0.0000 C   0  0  0  0  0  0  0  0  0  0  0  0
   -3.3968  -11.6360    0.0000 N   0  0  0  0  0  0  0  0  0  0  0  0
   -4.7671  -11.0259    0.0000 C   0  0  0  0  0  0  0  0  0  0  0  0
   -5.9806  -11.9076    0.0000 C   0  0  0  0  0  0  0  0  0  0  0  0
   -5.8238  -13.3994    0.0000 C   0  0  0  0  0  0  0  0  0  0  0  0
   -4.4535  -14.0095    0.0000 C   0  0  0  0  0  0  0  0  0  0  0  0
   -3.2400  -13.1278    0.0000 C   0  0  0  0  0  0  0  0  0  0  0  0
   -1.1265   -8.3809    0.0000 C   0  0  0  0  0  0  0  0  0  0  0  0
   -1.2833   -6.8891    0.0000 C   0  0  0  0  0  0  0  0  0  0  0  0
   -1.5969   -3.9055    0.0000 C   0  0  0  0  0  0  0  0  0  0  0  0
   -1.7537   -2.4138    0.0000 C   0  0  0  0  0  0  0  0  0  0  0  0
  1  2  1  0
  2  3  2  0
  3  4  1  0
  4  5  2  0
  5  6  1  0
  6  7  2  0
  5  8  1  0
  8  9  1  0
  9 10  2  0
 10 11  1  0
 11 12  2  0
 12 13  1  0
 13 14  2  0
 14 15  1  0
 15 16  2  0
 16 17  1  0
 17 18  1  0
 18 19  1  0
 19 20  1  0
 20 21  1  0
 21 22  1  0
 22 23  1  0
 16 24  1  0
 24 25  2  0
 12 26  1  0
 26 27  2  0
  7  2  1  0
 27  9  1  0
 27  4  1  0
 25 13  1  0
 23 18  1  0
M  END
>  <Affinity>  (7) 
863.0

>  <Affinity Type>  (7) 
IC50

>  <Affinity Unit>  (7) 
nM

>  <Scaffold>  (7) 
[#6&R]1:&@[#6&R]:&@[#6&R]2:&@[#6&R](:&@[#6&R]:&@[#7&R]:&@1):&@[#7&R]:&@[#6&R]1:&@[#6&R]:&@2:&@[#6&R]:&@[#6&R]:&@[#6&R]:&@[#7&R]:&@1

$$$$
O14757_Sries37726_idx-in-all-actives-361
     RDKit          2D

 21 24  0  0  0  0  0  0  0  0999 V2000
    4.5000    0.0000    0.0000 N   0  0  0  0  0  0  0  0  0  0  0  0
    3.0000    0.0000    0.0000 C   0  0  0  0  0  0  0  0  0  0  0  0
    1.5000    0.0000    0.0000 C   0  0  0  0  0  0  0  0  0  0  0  0
    0.7500   -1.2990    0.0000 C   0  0  0  0  0  0  0  0  0  0  0  0
   -0.7500   -1.2990    0.0000 C   0  0  0  0  0  0  0  0  0  0  0  0
   -1.5000    0.0000    0.0000 C   0  0  0  0  0  0  0  0  0  0  0  0
   -0.7500    1.2990    0.0000 C   0  0  0  0  0  0  0  0  0  0  0  0
    0.7500    1.2990    0.0000 N   0  0  0  0  0  0  0  0  0  0  0  0
   -2.9672   -0.3119    0.0000 N   0  0  0  0  0  0  0  0  0  0  0  0
   -3.1240   -1.8037    0.0000 C   0  0  0  0  0  0  0  0  0  0  0  0
   -4.3375   -2.6853    0.0000 N   0  0  0  0  0  0  0  0  0  0  0  0
   -4.1807   -4.1771    0.0000 C   0  0  0  0  0  0  0  0  0  0  0  0
   -2.8104   -4.7872    0.0000 C   0  0  0  0  0  0  0  0  0  0  0  0
   -2.6536   -6.2790    0.0000 C   0  0  0  0  0  0  0  0  0  0  0  0
   -3.8672   -7.1607    0.0000 C   0  0  0  0  0  0  0  0  0  0  0  0
   -3.7104   -8.6525    0.0000 C   0  0  0  0  0  0  0  0  0  0  0  0
   -2.3401   -9.2626    0.0000 C   0  0  0  0  0  0  0  0  0  0  0  0
   -1.1265   -8.3809    0.0000 C   0  0  0  0  0  0  0  0  0  0  0  0
   -1.2833   -6.8891    0.0000 N   0  0  0  0  0  0  0  0  0  0  0  0
   -1.5969   -3.9055    0.0000 C   0  0  0  0  0  0  0  0  0  0  0  0
   -1.7537   -2.4138    0.0000 C   0  0  0  0  0  0  0  0  0  0  0  0
  1  2  3  0
  2  3  1  0
  3  4  2  0
  4  5  1  0
  5  6  2  0
  6  7  1  0
  7  8  2  0
  6  9  1  0
  9 10  1  0
 10 11  2  0
 11 12  1  0
 12 13  2  0
 13 14  1  0
 14 15  2  0
 15 16  1  0
 16 17  2  0
 17 18  1  0
 18 19  2  0
 13 20  1  0
 20 21  2  0
  8  3  1  0
 21 10  1  0
 21  5  1  0
 19 14  1  0
M  END
>  <Affinity>  (8) 
127.0

>  <Affinity Type>  (8) 
IC50

>  <Affinity Unit>  (8) 
nM

>  <Scaffold>  (8) 
[#6&R]1:&@[#6&R]:&@[#6&R]2:&@[#6&R](:&@[#6&R]:&@[#7&R]:&@1):&@[#7&R]:&@[#6&R]1:&@[#6&R]:&@2:&@[#6&R]:&@[#6&R]:&@[#6&R]:&@[#7&R]:&@1

$$$$
O14757_Sries37726_idx-in-all-actives-399
     RDKit          2D

 29 33  0  0  0  0  0  0  0  0999 V2000
    4.5000    0.0000    0.0000 N   0  0  0  0  0  0  0  0  0  0  0  0
    3.0000    0.0000    0.0000 C   0  0  0  0  0  0  0  0  0  0  0  0
    1.5000    0.0000    0.0000 C   0  0  0  0  0  0  0  0  0  0  0  0
    0.7500   -1.2990    0.0000 C   0  0  0  0  0  0  0  0  0  0  0  0
   -0.7500   -1.2990    0.0000 C   0  0  0  0  0  0  0  0  0  0  0  0
   -1.5000    0.0000    0.0000 C   0  0  0  0  0  0  0  0  0  0  0  0
   -0.7500    1.2990    0.0000 C   0  0  0  0  0  0  0  0  0  0  0  0
    0.7500    1.2990    0.0000 N   0  0  0  0  0  0  0  0  0  0  0  0
   -2.9672   -0.3119    0.0000 N   0  0  0  0  0  0  0  0  0  0  0  0
   -3.1240   -1.8037    0.0000 C   0  0  0  0  0  0  0  0  0  0  0  0
   -4.3375   -2.6853    0.0000 N   0  0  0  0  0  0  0  0  0  0  0  0
   -4.1807   -4.1771    0.0000 C   0  0  0  0  0  0  0  0  0  0  0  0
   -2.8104   -4.7872    0.0000 C   0  0  0  0  0  0  0  0  0  0  0  0
   -2.6536   -6.2790    0.0000 C   0  0  0  0  0  0  0  0  0  0  0  0
   -3.8672   -7.1607    0.0000 C   0  0  0  0  0  0  0  0  0  0  0  0
   -3.7104   -8.6525    0.0000 C   0  0  0  0  0  0  0  0  0  0  0  0
   -2.3401   -9.2626    0.0000 C   0  0  0  0  0  0  0  0  0  0  0  0
   -2.1833  -10.7543    0.0000 C   0  0  0  0  0  0  0  0  0  0  0  0
   -3.3968  -11.6360    0.0000 N   0  0  0  0  0  0  0  0  0  0  0  0
   -4.7671  -11.0259    0.0000 C   0  0  0  0  0  0  0  0  0  0  0  0
   -5.9806  -11.9076    0.0000 C   0  0  0  0  0  0  0  0  0  0  0  0
   -5.8238  -13.3994    0.0000 C   0  0  0  0  0  0  0  0  0  0  0  0
   -7.0374  -14.2811    0.0000 F   0  0  0  0  0  0  0  0  0  0  0  0
   -4.4535  -14.0095    0.0000 C   0  0  0  0  0  0  0  0  0  0  0  0
   -3.2400  -13.1278    0.0000 C   0  0  0  0  0  0  0  0  0  0  0  0
   -1.1265   -8.3809    0.0000 C   0  0  0  0  0  0  0  0  0  0  0  0
   -1.2833   -6.8891    0.0000 C   0  0  0  0  0  0  0  0  0  0  0  0
   -1.5969   -3.9055    0.0000 C   0  0  0  0  0  0  0  0  0  0  0  0
   -1.7537   -2.4138    0.0000 C   0  0  0  0  0  0  0  0  0  0  0  0
  1  2  3  0
  2  3  1  0
  3  4  2  0
  4  5  1  0
  5  6  2  0
  6  7  1  0
  7  8  2  0
  6  9  1  0
  9 10  1  0
 10 11  2  0
 11 12  1  0
 12 13  2  0
 13 14  1  0
 14 15  2  0
 15 16  1  0
 16 17  2  0
 17 18  1  0
 18 19  1  0
 19 20  1  0
 20 21  1  0
 21 22  1  0
 22 23  1  0
 22 24  1  0
 24 25  1  0
 17 26  1  0
 26 27  2  0
 13 28  1  0
 28 29  2  0
  8  3  1  0
 29 10  1  0
 29  5  1  0
 27 14  1  0
 25 19  1  0
M  END
>  <Affinity>  (9) 
5.0

>  <Affinity Type>  (9) 
IC50

>  <Affinity Unit>  (9) 
nM

>  <Scaffold>  (9) 
[#6&R]1:&@[#6&R]:&@[#6&R]2:&@[#6&R](:&@[#6&R]:&@[#7&R]:&@1):&@[#7&R]:&@[#6&R]1:&@[#6&R]:&@2:&@[#6&R]:&@[#6&R]:&@[#6&R]:&@[#7&R]:&@1

$$$$
O14757_Sries37726_idx-in-all-actives-374
     RDKit          2D

 15 17  0  0  0  0  0  0  0  0999 V2000
   -5.4813   -6.0477    0.0000 N   0  0  0  0  0  0  0  0  0  0  0  0
   -4.1110   -5.4376    0.0000 C   0  0  0  0  0  0  0  0  0  0  0  0
   -2.7406   -4.8275    0.0000 C   0  0  0  0  0  0  0  0  0  0  0  0
   -2.5838   -3.3357    0.0000 C   0  0  0  0  0  0  0  0  0  0  0  0
   -1.2135   -2.7256    0.0000 C   0  0  0  0  0  0  0  0  0  0  0  0
    0.0000   -3.6073    0.0000 C   0  0  0  0  0  0  0  0  0  0  0  0
   -0.1568   -5.0991    0.0000 C   0  0  0  0  0  0  0  0  0  0  0  0
   -1.5271   -5.7092    0.0000 N   0  0  0  0  0  0  0  0  0  0  0  0
    1.2135   -2.7256    0.0000 N   0  0  0  0  0  0  0  0  0  0  0  0
    0.7500   -1.2990    0.0000 C   0  0  0  0  0  0  0  0  0  0  0  0
    1.5000    0.0000    0.0000 N   0  0  0  0  0  0  0  0  0  0  0  0
    0.7500    1.2990    0.0000 C   0  0  0  0  0  0  0  0  0  0  0  0
   -0.7500    1.2990    0.0000 C   0  0  0  0  0  0  0  0  0  0  0  0
   -1.5000    0.0000    0.0000 C   0  0  0  0  0  0  0  0  0  0  0  0
   -0.7500   -1.2990    0.0000 C   0  0  0  0  0  0  0  0  0  0  0  0
  1  2  3  0
  2  3  1  0
  3  4  2  0
  4  5  1  0
  5  6  2  0
  6  7  1  0
  7  8  2  0
  6  9  1  0
  9 10  1  0
 10 11  2  0
 11 12  1  0
 12 13  2  0
 13 14  1  0
 14 15  2  0
  8  3  1  0
 15 10  1  0
 15  5  1  0
M  END
>  <Affinity>  (10) 
414.0

>  <Affinity Type>  (10) 
IC50

>  <Affinity Unit>  (10) 
nM

>  <Scaffold>  (10) 
[#6&R]1:&@[#6&R]:&@[#6&R]2:&@[#6&R](:&@[#6&R]:&@[#7&R]:&@1):&@[#7&R]:&@[#6&R]1:&@[#6&R]:&@2:&@[#6&R]:&@[#6&R]:&@[#6&R]:&@[#7&R]:&@1

$$$$
O14757_Sries37726_idx-in-all-actives-387
     RDKit          2D

 28 32  0  0  0  0  0  0  0  0999 V2000
    3.7500   -1.2990    0.0000 O   0  0  0  0  0  0  0  0  0  0  0  0
    3.0000    0.0000    0.0000 C   0  0  0  0  0  0  0  0  0  0  0  0
    1.5000    0.0000    0.0000 C   0  0  0  0  0  0  0  0  0  0  0  0
    0.7500   -1.2990    0.0000 C   0  0  0  0  0  0  0  0  0  0  0  0
   -0.7500   -1.2990    0.0000 C   0  0  0  0  0  0  0  0  0  0  0  0
   -1.5000    0.0000    0.0000 C   0  0  0  0  0  0  0  0  0  0  0  0
   -0.7500    1.2990    0.0000 C   0  0  0  0  0  0  0  0  0  0  0  0
    0.7500    1.2990    0.0000 N   0  0  0  0  0  0  0  0  0  0  0  0
   -2.9672   -0.3119    0.0000 N   0  0  0  0  0  0  0  0  0  0  0  0
   -3.1240   -1.8037    0.0000 C   0  0  0  0  0  0  0  0  0  0  0  0
   -4.3375   -2.6853    0.0000 N   0  0  0  0  0  0  0  0  0  0  0  0
   -4.1807   -4.1771    0.0000 C   0  0  0  0  0  0  0  0  0  0  0  0
   -2.8104   -4.7872    0.0000 C   0  0  0  0  0  0  0  0  0  0  0  0
   -2.6536   -6.2790    0.0000 C   0  0  0  0  0  0  0  0  0  0  0  0
   -3.8672   -7.1607    0.0000 C   0  0  0  0  0  0  0  0  0  0  0  0
   -3.7104   -8.6525    0.0000 C   0  0  0  0  0  0  0  0  0  0  0  0
   -2.3401   -9.2626    0.0000 C   0  0  0  0  0  0  0  0  0  0  0  0
   -2.1833  -10.7543    0.0000 C   0  0  0  0  0  0  0  0  0  0  0  0
   -3.3968  -11.6360    0.0000 N   0  0  0  0  0  0  0  0  0  0  0  0
   -4.7671  -11.0259    0.0000 C   0  0  0  0  0  0  0  0  0  0  0  0
   -5.9806  -11.9076    0.0000 C   0  0  0  0  0  0  0  0  0  0  0  0
   -5.8238  -13.3994    0.0000 C   0  0  0  0  0  0  0  0  0  0  0  0
   -4.4535  -14.0095    0.0000 C   0  0  0  0  0  0  0  0  0  0  0  0
   -3.2400  -13.1278    0.0000 C   0  0  0  0  0  0  0  0  0  0  0  0
   -1.1265   -8.3809    0.0000 C   0  0  0  0  0  0  0  0  0  0  0  0
   -1.2833   -6.8891    0.0000 C   0  0  0  0  0  0  0  0  0  0  0  0
   -1.5969   -3.9055    0.0000 C   0  0  0  0  0  0  0  0  0  0  0  0
   -1.7537   -2.4138    0.0000 C   0  0  0  0  0  0  0  0  0  0  0  0
  1  2  1  0
  2  3  1  0
  3  4  2  0
  4  5  1  0
  5  6  2  0
  6  7  1  0
  7  8  2  0
  6  9  1  0
  9 10  1  0
 10 11  2  0
 11 12  1  0
 12 13  2  0
 13 14  1  0
 14 15  2  0
 15 16  1  0
 16 17  2  0
 17 18  1  0
 18 19  1  0
 19 20  1  0
 20 21  1  0
 21 22  1  0
 22 23  1  0
 23 24  1  0
 17 25  1  0
 25 26  2  0
 13 27  1  0
 27 28  2  0
  8  3  1  0
 28 10  1  0
 28  5  1  0
 26 14  1  0
 24 19  1  0
M  END
>  <Affinity>  (11) 
18.3

>  <Affinity Type>  (11) 
IC50

>  <Affinity Unit>  (11) 
nM

>  <Scaffold>  (11) 
[#6&R]1:&@[#6&R]:&@[#6&R]2:&@[#6&R](:&@[#6&R]:&@[#7&R]:&@1):&@[#7&R]:&@[#6&R]1:&@[#6&R]:&@2:&@[#6&R]:&@[#6&R]:&@[#6&R]:&@[#7&R]:&@1

$$$$
O14757_Sries37726_idx-in-all-actives-356
     RDKit          2D

 30 34  0  0  0  0  0  0  0  0999 V2000
    5.2500   -9.0933    0.0000 C   0  0  0  0  0  0  0  0  0  0  0  0
    3.7500   -9.0933    0.0000 C   0  0  0  0  0  0  0  0  0  0  0  0
    3.0000  -10.3923    0.0000 C   0  0  0  0  0  0  0  0  0  0  0  0
    1.5000  -10.3923    0.0000 C   0  0  0  0  0  0  0  0  0  0  0  0
    0.7500   -9.0933    0.0000 C   0  0  0  0  0  0  0  0  0  0  0  0
    1.5000   -7.7942    0.0000 C   0  0  0  0  0  0  0  0  0  0  0  0
    0.7500   -6.4952    0.0000 C   0  0  0  0  0  0  0  0  0  0  0  0
    3.0000   -7.7942    0.0000 N   0  0  0  0  0  0  0  0  0  0  0  0
    3.7500   -6.4952    0.0000 C   0  0  0  0  0  0  0  0  0  0  0  0
    3.0000   -5.1962    0.0000 C   0  0  0  0  0  0  0  0  0  0  0  0
    3.7500   -3.8971    0.0000 C   0  0  0  0  0  0  0  0  0  0  0  0
    3.0000   -2.5981    0.0000 C   0  0  0  0  0  0  0  0  0  0  0  0
    1.5000   -2.5981    0.0000 C   0  0  0  0  0  0  0  0  0  0  0  0
    0.7500   -1.2990    0.0000 C   0  0  0  0  0  0  0  0  0  0  0  0
    1.5000    0.0000    0.0000 C   0  0  0  0  0  0  0  0  0  0  0  0
    0.7500    1.2990    0.0000 N   0  0  0  0  0  0  0  0  0  0  0  0
   -0.7500    1.2990    0.0000 C   0  0  0  0  0  0  0  0  0  0  0  0
   -1.7537    2.4138    0.0000 N   0  0  0  0  0  0  0  0  0  0  0  0
   -3.1240    1.8037    0.0000 C   0  0  0  0  0  0  0  0  0  0  0  0
   -4.4943    2.4138    0.0000 C   0  0  0  0  0  0  0  0  0  0  0  0
   -5.7079    1.5321    0.0000 N   0  0  0  0  0  0  0  0  0  0  0  0
   -5.5511    0.0403    0.0000 C   0  0  0  0  0  0  0  0  0  0  0  0
   -6.7646   -0.8414    0.0000 C   0  0  0  0  0  0  0  0  0  0  0  0
   -7.9781   -1.7231    0.0000 N   0  0  0  0  0  0  0  0  0  0  0  0
   -4.1807   -0.5698    0.0000 C   0  0  0  0  0  0  0  0  0  0  0  0
   -2.9672    0.3119    0.0000 C   0  0  0  0  0  0  0  0  0  0  0  0
   -1.5000    0.0000    0.0000 C   0  0  0  0  0  0  0  0  0  0  0  0
   -0.7500   -1.2990    0.0000 C   0  0  0  0  0  0  0  0  0  0  0  0
    0.7500   -3.8971    0.0000 C   0  0  0  0  0  0  0  0  0  0  0  0
    1.5000   -5.1962    0.0000 C   0  0  0  0  0  0  0  0  0  0  0  0
  2  1  1  6
  2  3  1  0
  3  4  1  0
  4  5  1  0
  5  6  1  0
  6  7  1  6
  6  8  1  0
  8  9  1  0
  9 10  1  0
 10 11  2  0
 11 12  1  0
 12 13  2  0
 13 14  1  0
 14 15  2  0
 15 16  1  0
 16 17  2  0
 17 18  1  0
 18 19  1  0
 19 20  2  0
 20 21  1  0
 21 22  2  0
 22 23  1  0
 23 24  3  0
 22 25  1  0
 25 26  2  0
 26 27  1  0
 27 28  2  0
 13 29  1  0
 29 30  2  0
  8  2  1  0
 30 10  1  0
 28 14  1  0
 27 17  1  0
 26 19  1  0
M  END
>  <Affinity>  (12) 
2.1

>  <Affinity Type>  (12) 
IC50

>  <Affinity Unit>  (12) 
nM

>  <Scaffold>  (12) 
[#6&R]1:&@[#6&R]:&@[#6&R]2:&@[#6&R](:&@[#6&R]:&@[#7&R]:&@1):&@[#7&R]:&@[#6&R]1:&@[#6&R]:&@2:&@[#6&R]:&@[#6&R]:&@[#6&R]:&@[#7&R]:&@1

$$$$
O14757_Sries37726_idx-in-all-actives-362
     RDKit          2D

 20 23  0  0  0  0  0  0  0  0999 V2000
    4.5000    0.0000    0.0000 N   0  0  0  0  0  0  0  0  0  0  0  0
    3.0000    0.0000    0.0000 C   0  0  0  0  0  0  0  0  0  0  0  0
    1.5000    0.0000    0.0000 C   0  0  0  0  0  0  0  0  0  0  0  0
    0.7500   -1.2990    0.0000 C   0  0  0  0  0  0  0  0  0  0  0  0
   -0.7500   -1.2990    0.0000 C   0  0  0  0  0  0  0  0  0  0  0  0
   -1.5000    0.0000    0.0000 C   0  0  0  0  0  0  0  0  0  0  0  0
   -0.7500    1.2990    0.0000 C   0  0  0  0  0  0  0  0  0  0  0  0
    0.7500    1.2990    0.0000 N   0  0  0  0  0  0  0  0  0  0  0  0
   -2.9672   -0.3119    0.0000 N   0  0  0  0  0  0  0  0  0  0  0  0
   -3.1240   -1.8037    0.0000 C   0  0  0  0  0  0  0  0  0  0  0  0
   -4.3375   -2.6853    0.0000 N   0  0  0  0  0  0  0  0  0  0  0  0
   -4.1807   -4.1771    0.0000 C   0  0  0  0  0  0  0  0  0  0  0  0
   -2.8104   -4.7872    0.0000 C   0  0  0  0  0  0  0  0  0  0  0  0
   -2.6536   -6.2790    0.0000 C   0  0  0  0  0  0  0  0  0  0  0  0
   -1.3546   -7.0290    0.0000 N   0  0  0  0  0  0  0  0  0  0  0  0
   -1.6665   -8.4962    0.0000 C   0  0  0  0  0  0  0  0  0  0  0  0
   -3.1582   -8.6530    0.0000 C   0  0  0  0  0  0  0  0  0  0  0  0
   -3.7684   -7.2827    0.0000 N   0  0  0  0  0  0  0  0  0  0  0  0
   -1.5969   -3.9055    0.0000 C   0  0  0  0  0  0  0  0  0  0  0  0
   -1.7537   -2.4138    0.0000 C   0  0  0  0  0  0  0  0  0  0  0  0
  1  2  3  0
  2  3  1  0
  3  4  2  0
  4  5  1  0
  5  6  2  0
  6  7  1  0
  7  8  2  0
  6  9  1  0
  9 10  1  0
 10 11  2  0
 11 12  1  0
 12 13  2  0
 13 14  1  0
 14 15  2  0
 15 16  1  0
 16 17  2  0
 17 18  1  0
 13 19  1  0
 19 20  2  0
  8  3  1  0
 20 10  1  0
 20  5  1  0
 18 14  1  0
M  END
>  <Affinity>  (13) 
14.7

>  <Affinity Type>  (13) 
IC50

>  <Affinity Unit>  (13) 
nM

>  <Scaffold>  (13) 
[#6&R]1:&@[#6&R]:&@[#6&R]2:&@[#6&R](:&@[#6&R]:&@[#7&R]:&@1):&@[#7&R]:&@[#6&R]1:&@[#6&R]:&@2:&@[#6&R]:&@[#6&R]:&@[#6&R]:&@[#7&R]:&@1

$$$$
O14757_Sries37726_idx-in-all-actives-400
     RDKit          2D

 29 33  0  0  0  0  0  0  0  0999 V2000
    4.5000    0.0000    0.0000 N   0  0  0  0  0  0  0  0  0  0  0  0
    3.0000    0.0000    0.0000 C   0  0  0  0  0  0  0  0  0  0  0  0
    1.5000    0.0000    0.0000 C   0  0  0  0  0  0  0  0  0  0  0  0
    0.7500   -1.2990    0.0000 C   0  0  0  0  0  0  0  0  0  0  0  0
   -0.7500   -1.2990    0.0000 C   0  0  0  0  0  0  0  0  0  0  0  0
   -1.5000    0.0000    0.0000 C   0  0  0  0  0  0  0  0  0  0  0  0
   -0.7500    1.2990    0.0000 C   0  0  0  0  0  0  0  0  0  0  0  0
    0.7500    1.2990    0.0000 N   0  0  0  0  0  0  0  0  0  0  0  0
   -2.9672   -0.3119    0.0000 N   0  0  0  0  0  0  0  0  0  0  0  0
   -3.1240   -1.8037    0.0000 C   0  0  0  0  0  0  0  0  0  0  0  0
   -4.3375   -2.6853    0.0000 N   0  0  0  0  0  0  0  0  0  0  0  0
   -4.1807   -4.1771    0.0000 C   0  0  0  0  0  0  0  0  0  0  0  0
   -2.8104   -4.7872    0.0000 C   0  0  0  0  0  0  0  0  0  0  0  0
   -2.6536   -6.2790    0.0000 C   0  0  0  0  0  0  0  0  0  0  0  0
   -3.8672   -7.1607    0.0000 C   0  0  0  0  0  0  0  0  0  0  0  0
   -3.7104   -8.6525    0.0000 C   0  0  0  0  0  0  0  0  0  0  0  0
   -2.3401   -9.2626    0.0000 C   0  0  0  0  0  0  0  0  0  0  0  0
   -2.1833  -10.7543    0.0000 C   0  0  0  0  0  0  0  0  0  0  0  0
   -3.3968  -11.6360    0.0000 N   0  0  0  0  0  0  0  0  0  0  0  0
   -4.7671  -11.0259    0.0000 C   0  0  0  0  0  0  0  0  0  0  0  0
   -5.9806  -11.9076    0.0000 C   0  0  0  0  0  0  0  0  0  0  0  0
   -5.8238  -13.3994    0.0000 C   0  0  0  0  0  0  0  0  0  0  0  0
   -4.4535  -14.0095    0.0000 C   0  0  0  0  0  0  0  0  0  0  0  0
   -4.2967  -15.5013    0.0000 O   0  0  0  0  0  0  0  0  0  0  0  0
   -3.2400  -13.1278    0.0000 C   0  0  0  0  0  0  0  0  0  0  0  0
   -1.1265   -8.3809    0.0000 C   0  0  0  0  0  0  0  0  0  0  0  0
   -1.2833   -6.8891    0.0000 C   0  0  0  0  0  0  0  0  0  0  0  0
   -1.5969   -3.9055    0.0000 C   0  0  0  0  0  0  0  0  0  0  0  0
   -1.7537   -2.4138    0.0000 C   0  0  0  0  0  0  0  0  0  0  0  0
  1  2  3  0
  2  3  1  0
  3  4  2  0
  4  5  1  0
  5  6  2  0
  6  7  1  0
  7  8  2  0
  6  9  1  0
  9 10  1  0
 10 11  2  0
 11 12  1  0
 12 13  2  0
 13 14  1  0
 14 15  2  0
 15 16  1  0
 16 17  2  0
 17 18  1  0
 18 19  1  0
 19 20  1  0
 20 21  1  0
 21 22  1  0
 22 23  1  0
 23 24  1  6
 23 25  1  0
 17 26  1  0
 26 27  2  0
 13 28  1  0
 28 29  2  0
  8  3  1  0
 29 10  1  0
 29  5  1  0
 27 14  1  0
 25 19  1  0
M  END
>  <Affinity>  (14) 
1.9

>  <Affinity Type>  (14) 
IC50

>  <Affinity Unit>  (14) 
nM

>  <Scaffold>  (14) 
[#6&R]1:&@[#6&R]:&@[#6&R]2:&@[#6&R](:&@[#6&R]:&@[#7&R]:&@1):&@[#7&R]:&@[#6&R]1:&@[#6&R]:&@2:&@[#6&R]:&@[#6&R]:&@[#6&R]:&@[#7&R]:&@1

$$$$
O14757_Sries37726_idx-in-all-actives-375
     RDKit          2D

 28 32  0  0  0  0  0  0  0  0999 V2000
    6.0000  -10.3923    0.0000 C   0  0  0  0  0  0  0  0  0  0  0  0
    5.2500   -9.0933    0.0000 N   0  0  0  0  0  0  0  0  0  0  0  0
    3.7500   -9.0933    0.0000 C   0  0  0  0  0  0  0  0  0  0  0  0
    3.0000   -7.7942    0.0000 C   0  0  0  0  0  0  0  0  0  0  0  0
    3.7500   -6.4952    0.0000 N   0  0  0  0  0  0  0  0  0  0  0  0
    3.0000   -5.1962    0.0000 C   0  0  0  0  0  0  0  0  0  0  0  0
    3.7500   -3.8971    0.0000 C   0  0  0  0  0  0  0  0  0  0  0  0
    3.0000   -2.5981    0.0000 C   0  0  0  0  0  0  0  0  0  0  0  0
    1.5000   -2.5981    0.0000 C   0  0  0  0  0  0  0  0  0  0  0  0
    0.7500   -1.2990    0.0000 C   0  0  0  0  0  0  0  0  0  0  0  0
    1.5000    0.0000    0.0000 C   0  0  0  0  0  0  0  0  0  0  0  0
    0.7500    1.2990    0.0000 N   0  0  0  0  0  0  0  0  0  0  0  0
   -0.7500    1.2990    0.0000 C   0  0  0  0  0  0  0  0  0  0  0  0
   -1.7537    2.4138    0.0000 N   0  0  0  0  0  0  0  0  0  0  0  0
   -3.1240    1.8037    0.0000 C   0  0  0  0  0  0  0  0  0  0  0  0
   -4.4943    2.4138    0.0000 C   0  0  0  0  0  0  0  0  0  0  0  0
   -5.7079    1.5321    0.0000 N   0  0  0  0  0  0  0  0  0  0  0  0
   -5.5511    0.0403    0.0000 C   0  0  0  0  0  0  0  0  0  0  0  0
   -6.7646   -0.8414    0.0000 C   0  0  0  0  0  0  0  0  0  0  0  0
   -7.9781   -1.7231    0.0000 N   0  0  0  0  0  0  0  0  0  0  0  0
   -4.1807   -0.5698    0.0000 C   0  0  0  0  0  0  0  0  0  0  0  0
   -2.9672    0.3119    0.0000 C   0  0  0  0  0  0  0  0  0  0  0  0
   -1.5000    0.0000    0.0000 C   0  0  0  0  0  0  0  0  0  0  0  0
   -0.7500   -1.2990    0.0000 C   0  0  0  0  0  0  0  0  0  0  0  0
    0.7500   -3.8971    0.0000 C   0  0  0  0  0  0  0  0  0  0  0  0
    1.5000   -5.1962    0.0000 C   0  0  0  0  0  0  0  0  0  0  0  0
    5.2500   -6.4952    0.0000 C   0  0  0  0  0  0  0  0  0  0  0  0
    6.0000   -7.7942    0.0000 C   0  0  0  0  0  0  0  0  0  0  0  0
  1  2  1  0
  2  3  1  0
  3  4  1  0
  4  5  1  0
  5  6  1  0
  6  7  2  0
  7  8  1  0
  8  9  2  0
  9 10  1  0
 10 11  2  0
 11 12  1  0
 12 13  2  0
 13 14  1  0
 14 15  1  0
 15 16  2  0
 16 17  1  0
 17 18  2  0
 18 19  1  0
 19 20  3  0
 18 21  1  0
 21 22  2  0
 22 23  1  0
 23 24  2  0
  9 25  1  0
 25 26  2  0
  5 27  1  0
 27 28  1  0
 28  2  1  0
 26  6  1  0
 24 10  1  0
 23 13  1  0
 22 15  1  0
M  END
>  <Affinity>  (15) 
1.3

>  <Affinity Type>  (15) 
IC50

>  <Affinity Unit>  (15) 
nM

>  <Scaffold>  (15) 
[#6&R]1:&@[#6&R]:&@[#6&R]2:&@[#6&R](:&@[#6&R]:&@[#7&R]:&@1):&@[#7&R]:&@[#6&R]1:&@[#6&R]:&@2:&@[#6&R]:&@[#6&R]:&@[#6&R]:&@[#7&R]:&@1

$$$$
O14757_Sries37726_idx-in-all-actives-388
     RDKit          2D

 28 32  0  0  0  0  0  0  0  0999 V2000
    3.7500   -1.2990    0.0000 C   0  0  0  0  0  0  0  0  0  0  0  0
    3.0000    0.0000    0.0000 O   0  0  0  0  0  0  0  0  0  0  0  0
    1.5000    0.0000    0.0000 C   0  0  0  0  0  0  0  0  0  0  0  0
    0.7500   -1.2990    0.0000 C   0  0  0  0  0  0  0  0  0  0  0  0
   -0.7500   -1.2990    0.0000 C   0  0  0  0  0  0  0  0  0  0  0  0
   -1.5000    0.0000    0.0000 C   0  0  0  0  0  0  0  0  0  0  0  0
   -0.7500    1.2990    0.0000 C   0  0  0  0  0  0  0  0  0  0  0  0
    0.7500    1.2990    0.0000 N   0  0  0  0  0  0  0  0  0  0  0  0
   -2.9672   -0.3119    0.0000 N   0  0  0  0  0  0  0  0  0  0  0  0
   -3.1240   -1.8037    0.0000 C   0  0  0  0  0  0  0  0  0  0  0  0
   -4.3375   -2.6853    0.0000 N   0  0  0  0  0  0  0  0  0  0  0  0
   -4.1807   -4.1771    0.0000 C   0  0  0  0  0  0  0  0  0  0  0  0
   -2.8104   -4.7872    0.0000 C   0  0  0  0  0  0  0  0  0  0  0  0
   -2.6536   -6.2790    0.0000 C   0  0  0  0  0  0  0  0  0  0  0  0
   -3.8672   -7.1607    0.0000 C   0  0  0  0  0  0  0  0  0  0  0  0
   -3.7104   -8.6525    0.0000 C   0  0  0  0  0  0  0  0  0  0  0  0
   -2.3401   -9.2626    0.0000 C   0  0  0  0  0  0  0  0  0  0  0  0
   -2.1833  -10.7543    0.0000 C   0  0  0  0  0  0  0  0  0  0  0  0
   -3.3968  -11.6360    0.0000 N   0  0  0  0  0  0  0  0  0  0  0  0
   -4.7671  -11.0259    0.0000 C   0  0  0  0  0  0  0  0  0  0  0  0
   -5.9806  -11.9076    0.0000 C   0  0  0  0  0  0  0  0  0  0  0  0
   -5.8238  -13.3994    0.0000 C   0  0  0  0  0  0  0  0  0  0  0  0
   -4.4535  -14.0095    0.0000 C   0  0  0  0  0  0  0  0  0  0  0  0
   -3.2400  -13.1278    0.0000 C   0  0  0  0  0  0  0  0  0  0  0  0
   -1.1265   -8.3809    0.0000 C   0  0  0  0  0  0  0  0  0  0  0  0
   -1.2833   -6.8891    0.0000 C   0  0  0  0  0  0  0  0  0  0  0  0
   -1.5969   -3.9055    0.0000 C   0  0  0  0  0  0  0  0  0  0  0  0
   -1.7537   -2.4138    0.0000 C   0  0  0  0  0  0  0  0  0  0  0  0
  1  2  1  0
  2  3  1  0
  3  4  2  0
  4  5  1  0
  5  6  2  0
  6  7  1  0
  7  8  2  0
  6  9  1  0
  9 10  1  0
 10 11  2  0
 11 12  1  0
 12 13  2  0
 13 14  1  0
 14 15  2  0
 15 16  1  0
 16 17  2  0
 17 18  1  0
 18 19  1  0
 19 20  1  0
 20 21  1  0
 21 22  1  0
 22 23  1  0
 23 24  1  0
 17 25  1  0
 25 26  2  0
 13 27  1  0
 27 28  2  0
  8  3  1  0
 28 10  1  0
 28  5  1  0
 26 14  1  0
 24 19  1  0
M  END
>  <Affinity>  (16) 
19.8

>  <Affinity Type>  (16) 
IC50

>  <Affinity Unit>  (16) 
nM

>  <Scaffold>  (16) 
[#6&R]1:&@[#6&R]:&@[#6&R]2:&@[#6&R](:&@[#6&R]:&@[#7&R]:&@1):&@[#7&R]:&@[#6&R]1:&@[#6&R]:&@2:&@[#6&R]:&@[#6&R]:&@[#6&R]:&@[#7&R]:&@1

$$$$
O14757_Sries37726_idx-in-all-actives-363
     RDKit          2D

 21 24  0  0  0  0  0  0  0  0999 V2000
    1.8478   -6.4639    0.0000 C   0  0  0  0  0  0  0  0  0  0  0  0
    2.0046   -4.9721    0.0000 N   0  0  0  0  0  0  0  0  0  0  0  0
    3.3037   -4.2221    0.0000 C   0  0  0  0  0  0  0  0  0  0  0  0
    2.9918   -2.7549    0.0000 C   0  0  0  0  0  0  0  0  0  0  0  0
    1.5000   -2.5981    0.0000 C   0  0  0  0  0  0  0  0  0  0  0  0
    0.7500   -1.2990    0.0000 C   0  0  0  0  0  0  0  0  0  0  0  0
    1.5000    0.0000    0.0000 C   0  0  0  0  0  0  0  0  0  0  0  0
    0.7500    1.2990    0.0000 N   0  0  0  0  0  0  0  0  0  0  0  0
   -0.7500    1.2990    0.0000 C   0  0  0  0  0  0  0  0  0  0  0  0
   -1.7537    2.4138    0.0000 N   0  0  0  0  0  0  0  0  0  0  0  0
   -3.1240    1.8037    0.0000 C   0  0  0  0  0  0  0  0  0  0  0  0
   -4.4943    2.4138    0.0000 C   0  0  0  0  0  0  0  0  0  0  0  0
   -5.7079    1.5321    0.0000 N   0  0  0  0  0  0  0  0  0  0  0  0
   -5.5511    0.0403    0.0000 C   0  0  0  0  0  0  0  0  0  0  0  0
   -6.7646   -0.8414    0.0000 C   0  0  0  0  0  0  0  0  0  0  0  0
   -7.9781   -1.7231    0.0000 N   0  0  0  0  0  0  0  0  0  0  0  0
   -4.1807   -0.5698    0.0000 C   0  0  0  0  0  0  0  0  0  0  0  0
   -2.9672    0.3119    0.0000 C   0  0  0  0  0  0  0  0  0  0  0  0
   -1.5000    0.0000    0.0000 C   0  0  0  0  0  0  0  0  0  0  0  0
   -0.7500   -1.2990    0.0000 C   0  0  0  0  0  0  0  0  0  0  0  0
    0.8899   -3.9684    0.0000 N   0  0  0  0  0  0  0  0  0  0  0  0
  1  2  1  0
  2  3  1  0
  3  4  2  0
  4  5  1  0
  5  6  1  0
  6  7  2  0
  7  8  1  0
  8  9  2  0
  9 10  1  0
 10 11  1  0
 11 12  2  0
 12 13  1  0
 13 14  2  0
 14 15  1  0
 15 16  3  0
 14 17  1  0
 17 18  2  0
 18 19  1  0
 19 20  2  0
  5 21  2  0
 21  2  1  0
 20  6  1  0
 19  9  1  0
 18 11  1  0
M  END
>  <Affinity>  (17) 
33.8

>  <Affinity Type>  (17) 
IC50

>  <Affinity Unit>  (17) 
nM

>  <Scaffold>  (17) 
[#6&R]1:&@[#6&R]:&@[#6&R]2:&@[#6&R](:&@[#6&R]:&@[#7&R]:&@1):&@[#7&R]:&@[#6&R]1:&@[#6&R]:&@2:&@[#6&R]:&@[#6&R]:&@[#6&R]:&@[#7&R]:&@1

$$$$
O14757_Sries37726_idx-in-all-actives-401
     RDKit          2D

 29 33  0  0  0  0  0  0  0  0999 V2000
    4.5000    0.0000    0.0000 N   0  0  0  0  0  0  0  0  0  0  0  0
    3.0000    0.0000    0.0000 C   0  0  0  0  0  0  0  0  0  0  0  0
    1.5000    0.0000    0.0000 C   0  0  0  0  0  0  0  0  0  0  0  0
    0.7500   -1.2990    0.0000 C   0  0  0  0  0  0  0  0  0  0  0  0
   -0.7500   -1.2990    0.0000 C   0  0  0  0  0  0  0  0  0  0  0  0
   -1.5000    0.0000    0.0000 C   0  0  0  0  0  0  0  0  0  0  0  0
   -0.7500    1.2990    0.0000 C   0  0  0  0  0  0  0  0  0  0  0  0
    0.7500    1.2990    0.0000 N   0  0  0  0  0  0  0  0  0  0  0  0
   -2.9672   -0.3119    0.0000 N   0  0  0  0  0  0  0  0  0  0  0  0
   -3.1240   -1.8037    0.0000 C   0  0  0  0  0  0  0  0  0  0  0  0
   -4.3375   -2.6853    0.0000 N   0  0  0  0  0  0  0  0  0  0  0  0
   -4.1807   -4.1771    0.0000 C   0  0  0  0  0  0  0  0  0  0  0  0
   -2.8104   -4.7872    0.0000 C   0  0  0  0  0  0  0  0  0  0  0  0
   -2.6536   -6.2790    0.0000 C   0  0  0  0  0  0  0  0  0  0  0  0
   -3.8672   -7.1607    0.0000 C   0  0  0  0  0  0  0  0  0  0  0  0
   -3.7104   -8.6525    0.0000 C   0  0  0  0  0  0  0  0  0  0  0  0
   -2.3401   -9.2626    0.0000 C   0  0  0  0  0  0  0  0  0  0  0  0
   -2.1833  -10.7543    0.0000 C   0  0  0  0  0  0  0  0  0  0  0  0
   -3.3968  -11.6360    0.0000 N   0  0  0  0  0  0  0  0  0  0  0  0
   -4.7671  -11.0259    0.0000 C   0  0  0  0  0  0  0  0  0  0  0  0
   -5.9806  -11.9076    0.0000 C   0  0  0  0  0  0  0  0  0  0  0  0
   -5.8238  -13.3994    0.0000 C   0  0  0  0  0  0  0  0  0  0  0  0
   -7.0374  -14.2811    0.0000 O   0  0  0  0  0  0  0  0  0  0  0  0
   -4.4535  -14.0095    0.0000 C   0  0  0  0  0  0  0  0  0  0  0  0
   -3.2400  -13.1278    0.0000 C   0  0  0  0  0  0  0  0  0  0  0  0
   -1.1265   -8.3809    0.0000 C   0  0  0  0  0  0  0  0  0  0  0  0
   -1.2833   -6.8891    0.0000 C   0  0  0  0  0  0  0  0  0  0  0  0
   -1.5969   -3.9055    0.0000 C   0  0  0  0  0  0  0  0  0  0  0  0
   -1.7537   -2.4138    0.0000 C   0  0  0  0  0  0  0  0  0  0  0  0
  1  2  3  0
  2  3  1  0
  3  4  2  0
  4  5  1  0
  5  6  2  0
  6  7  1  0
  7  8  2  0
  6  9  1  0
  9 10  1  0
 10 11  2  0
 11 12  1  0
 12 13  2  0
 13 14  1  0
 14 15  2  0
 15 16  1  0
 16 17  2  0
 17 18  1  0
 18 19  1  0
 19 20  1  0
 20 21  1  0
 21 22  1  0
 22 23  1  0
 22 24  1  0
 24 25  1  0
 17 26  1  0
 26 27  2  0
 13 28  1  0
 28 29  2  0
  8  3  1  0
 29 10  1  0
 29  5  1  0
 27 14  1  0
 25 19  1  0
M  END
>  <Affinity>  (18) 
1.8

>  <Affinity Type>  (18) 
IC50

>  <Affinity Unit>  (18) 
nM

>  <Scaffold>  (18) 
[#6&R]1:&@[#6&R]:&@[#6&R]2:&@[#6&R](:&@[#6&R]:&@[#7&R]:&@1):&@[#7&R]:&@[#6&R]1:&@[#6&R]:&@2:&@[#6&R]:&@[#6&R]:&@[#6&R]:&@[#7&R]:&@1

$$$$
O14757_Sries37726_idx-in-all-actives-376
     RDKit          2D

 32 37  0  0  0  0  0  0  0  0999 V2000
    3.0000   -5.1962    0.0000 C   0  0  0  0  0  0  0  0  0  0  0  0
    1.5000   -5.1962    0.0000 N   0  0  0  0  0  0  0  0  0  0  0  0
    0.7500   -3.8971    0.0000 C   0  0  0  0  0  0  0  0  0  0  0  0
    1.5000   -2.5981    0.0000 C   0  0  0  0  0  0  0  0  0  0  0  0
    0.7500   -1.2990    0.0000 C   0  0  0  0  0  0  0  0  0  0  0  0
    1.5000    0.0000    0.0000 C   0  0  0  0  0  0  0  0  0  0  0  0
    0.7500    1.2990    0.0000 C   0  0  0  0  0  0  0  0  0  0  0  0
   -0.7500    1.2990    0.0000 C   0  0  0  0  0  0  0  0  0  0  0  0
   -1.5000    0.0000    0.0000 C   0  0  0  0  0  0  0  0  0  0  0  0
   -0.7500   -1.2990    0.0000 N   0  0  0  0  0  0  0  0  0  0  0  0
   -1.2135    2.7256    0.0000 N   0  0  0  0  0  0  0  0  0  0  0  0
   -0.0000    3.6073    0.0000 C   0  0  0  0  0  0  0  0  0  0  0  0
    0.1568    5.0991    0.0000 N   0  0  0  0  0  0  0  0  0  0  0  0
    1.5271    5.7092    0.0000 C   0  0  0  0  0  0  0  0  0  0  0  0
    2.7406    4.8275    0.0000 C   0  0  0  0  0  0  0  0  0  0  0  0
    4.1110    5.4376    0.0000 C   0  0  0  0  0  0  0  0  0  0  0  0
    5.3245    4.5559    0.0000 C   0  0  0  0  0  0  0  0  0  0  0  0
    6.6948    5.1660    0.0000 C   0  0  0  0  0  0  0  0  0  0  0  0
    6.8516    6.6578    0.0000 C   0  0  0  0  0  0  0  0  0  0  0  0
    8.2219    7.2679    0.0000 C   0  0  0  0  0  0  0  0  0  0  0  0
    9.4354    6.3863    0.0000 N   0  0  0  0  0  0  0  0  0  0  0  0
    9.2786    4.8945    0.0000 C   0  0  0  0  0  0  0  0  0  0  0  0
   10.4922    4.0128    0.0000 C   0  0  0  0  0  0  0  0  0  0  0  0
   11.8625    4.6229    0.0000 C   0  0  0  0  0  0  0  0  0  0  0  0
   12.0193    6.1147    0.0000 C   0  0  0  0  0  0  0  0  0  0  0  0
   10.8058    6.9964    0.0000 C   0  0  0  0  0  0  0  0  0  0  0  0
    5.6381    7.5395    0.0000 C   0  0  0  0  0  0  0  0  0  0  0  0
    4.2677    6.9294    0.0000 C   0  0  0  0  0  0  0  0  0  0  0  0
    2.5838    3.3357    0.0000 C   0  0  0  0  0  0  0  0  0  0  0  0
    1.2135    2.7256    0.0000 C   0  0  0  0  0  0  0  0  0  0  0  0
    3.0000   -2.5981    0.0000 C   0  0  0  0  0  0  0  0  0  0  0  0
    3.7500   -3.8971    0.0000 N   0  0  0  0  0  0  0  0  0  0  0  0
  1  2  2  0
  2  3  1  0
  3  4  2  0
  4  5  1  0
  5  6  2  0
  6  7  1  0
  7  8  2  0
  8  9  1  0
  9 10  2  0
  8 11  1  0
 11 12  1  0
 12 13  2  0
 13 14  1  0
 14 15  2  0
 15 16  1  0
 16 17  2  0
 17 18  1  0
 18 19  2  0
 19 20  1  0
 20 21  1  0
 21 22  1  0
 22 23  1  0
 23 24  1  0
 24 25  1  0
 25 26  1  0
 19 27  1  0
 27 28  2  0
 15 29  1  0
 29 30  2  0
  4 31  1  0
 31 32  2  0
 32  1  1  0
 10  5  1  0
 30 12  1  0
 30  7  1  0
 28 16  1  0
 26 21  1  0
M  END
>  <Affinity>  (19) 
5.1

>  <Affinity Type>  (19) 
IC50

>  <Affinity Unit>  (19) 
nM

>  <Scaffold>  (19) 
[#6&R]1:&@[#6&R]:&@[#6&R]2:&@[#6&R](:&@[#6&R]:&@[#7&R]:&@1):&@[#7&R]:&@[#6&R]1:&@[#6&R]:&@2:&@[#6&R]:&@[#6&R]:&@[#6&R]:&@[#7&R]:&@1

$$$$
O14757_Sries37726_idx-in-all-actives-389
     RDKit          2D

 31 35  0  0  0  0  0  0  0  0999 V2000
    6.0000   -2.5981    0.0000 C   0  0  0  0  0  0  0  0  0  0  0  0
    5.2500   -1.2990    0.0000 C   0  0  0  0  0  0  0  0  0  0  0  0
    3.7500   -1.2990    0.0000 N   0  0  0  0  0  0  0  0  0  0  0  0
    3.0000    0.0000    0.0000 C   0  0  0  0  0  0  0  0  0  0  0  0
    3.7500    1.2990    0.0000 O   0  0  0  0  0  0  0  0  0  0  0  0
    1.5000    0.0000    0.0000 C   0  0  0  0  0  0  0  0  0  0  0  0
    0.7500   -1.2990    0.0000 C   0  0  0  0  0  0  0  0  0  0  0  0
   -0.7500   -1.2990    0.0000 C   0  0  0  0  0  0  0  0  0  0  0  0
   -1.5000    0.0000    0.0000 C   0  0  0  0  0  0  0  0  0  0  0  0
   -0.7500    1.2990    0.0000 C   0  0  0  0  0  0  0  0  0  0  0  0
    0.7500    1.2990    0.0000 N   0  0  0  0  0  0  0  0  0  0  0  0
   -2.9672   -0.3119    0.0000 N   0  0  0  0  0  0  0  0  0  0  0  0
   -3.1240   -1.8037    0.0000 C   0  0  0  0  0  0  0  0  0  0  0  0
   -4.3375   -2.6853    0.0000 N   0  0  0  0  0  0  0  0  0  0  0  0
   -4.1807   -4.1771    0.0000 C   0  0  0  0  0  0  0  0  0  0  0  0
   -2.8104   -4.7872    0.0000 C   0  0  0  0  0  0  0  0  0  0  0  0
   -2.6536   -6.2790    0.0000 C   0  0  0  0  0  0  0  0  0  0  0  0
   -3.8672   -7.1607    0.0000 C   0  0  0  0  0  0  0  0  0  0  0  0
   -3.7104   -8.6525    0.0000 C   0  0  0  0  0  0  0  0  0  0  0  0
   -2.3401   -9.2626    0.0000 C   0  0  0  0  0  0  0  0  0  0  0  0
   -2.1833  -10.7543    0.0000 C   0  0  0  0  0  0  0  0  0  0  0  0
   -3.3968  -11.6360    0.0000 N   0  0  0  0  0  0  0  0  0  0  0  0
   -4.7671  -11.0259    0.0000 C   0  0  0  0  0  0  0  0  0  0  0  0
   -5.9806  -11.9076    0.0000 C   0  0  0  0  0  0  0  0  0  0  0  0
   -5.8238  -13.3994    0.0000 C   0  0  0  0  0  0  0  0  0  0  0  0
   -4.4535  -14.0095    0.0000 C   0  0  0  0  0  0  0  0  0  0  0  0
   -3.2400  -13.1278    0.0000 C   0  0  0  0  0  0  0  0  0  0  0  0
   -1.1265   -8.3809    0.0000 C   0  0  0  0  0  0  0  0  0  0  0  0
   -1.2833   -6.8891    0.0000 C   0  0  0  0  0  0  0  0  0  0  0  0
   -1.5969   -3.9055    0.0000 C   0  0  0  0  0  0  0  0  0  0  0  0
   -1.7537   -2.4138    0.0000 C   0  0  0  0  0  0  0  0  0  0  0  0
  1  2  1  0
  2  3  1  0
  3  4  1  0
  4  5  2  0
  4  6  1  0
  6  7  2  0
  7  8  1  0
  8  9  2  0
  9 10  1  0
 10 11  2  0
  9 12  1  0
 12 13  1  0
 13 14  2  0
 14 15  1  0
 15 16  2  0
 16 17  1  0
 17 18  2  0
 18 19  1  0
 19 20  2  0
 20 21  1  0
 21 22  1  0
 22 23  1  0
 23 24  1  0
 24 25  1  0
 25 26  1  0
 26 27  1  0
 20 28  1  0
 28 29  2  0
 16 30  1  0
 30 31  2  0
 11  6  1  0
 31 13  1  0
 31  8  1  0
 29 17  1  0
 27 22  1  0
M  END
>  <Affinity>  (20) 
102.0

>  <Affinity Type>  (20) 
IC50

>  <Affinity Unit>  (20) 
nM

>  <Scaffold>  (20) 
[#6&R]1:&@[#6&R]:&@[#6&R]2:&@[#6&R](:&@[#6&R]:&@[#7&R]:&@1):&@[#7&R]:&@[#6&R]1:&@[#6&R]:&@2:&@[#6&R]:&@[#6&R]:&@[#6&R]:&@[#7&R]:&@1

$$$$
O14757_Sries37726_idx-in-all-actives-357
     RDKit          2D

 28 32  0  0  0  0  0  0  0  0999 V2000
    4.5000    0.0000    0.0000 N   0  0  0  0  0  0  0  0  0  0  0  0
    3.0000    0.0000    0.0000 C   0  0  0  0  0  0  0  0  0  0  0  0
    1.5000    0.0000    0.0000 C   0  0  0  0  0  0  0  0  0  0  0  0
    0.7500   -1.2990    0.0000 C   0  0  0  0  0  0  0  0  0  0  0  0
   -0.7500   -1.2990    0.0000 C   0  0  0  0  0  0  0  0  0  0  0  0
   -1.5000    0.0000    0.0000 C   0  0  0  0  0  0  0  0  0  0  0  0
   -0.7500    1.2990    0.0000 C   0  0  0  0  0  0  0  0  0  0  0  0
    0.7500    1.2990    0.0000 N   0  0  0  0  0  0  0  0  0  0  0  0
   -2.9672   -0.3119    0.0000 N   0  0  0  0  0  0  0  0  0  0  0  0
   -3.1240   -1.8037    0.0000 C   0  0  0  0  0  0  0  0  0  0  0  0
   -4.3375   -2.6853    0.0000 N   0  0  0  0  0  0  0  0  0  0  0  0
   -4.1807   -4.1771    0.0000 C   0  0  0  0  0  0  0  0  0  0  0  0
   -2.8104   -4.7872    0.0000 C   0  0  0  0  0  0  0  0  0  0  0  0
   -2.6536   -6.2790    0.0000 C   0  0  0  0  0  0  0  0  0  0  0  0
   -3.8672   -7.1607    0.0000 C   0  0  0  0  0  0  0  0  0  0  0  0
   -3.7104   -8.6525    0.0000 C   0  0  0  0  0  0  0  0  0  0  0  0
   -2.3401   -9.2626    0.0000 C   0  0  0  0  0  0  0  0  0  0  0  0
   -2.1833  -10.7543    0.0000 C   0  0  0  0  0  0  0  0  0  0  0  0
   -3.3968  -11.6360    0.0000 N   0  0  0  0  0  0  0  0  0  0  0  0
   -4.7671  -11.0259    0.0000 C   0  0  0  0  0  0  0  0  0  0  0  0
   -5.9806  -11.9076    0.0000 C   0  0  0  0  0  0  0  0  0  0  0  0
   -5.8238  -13.3994    0.0000 C   0  0  0  0  0  0  0  0  0  0  0  0
   -4.4535  -14.0095    0.0000 C   0  0  0  0  0  0  0  0  0  0  0  0
   -3.2400  -13.1278    0.0000 C   0  0  0  0  0  0  0  0  0  0  0  0
   -1.1265   -8.3809    0.0000 C   0  0  0  0  0  0  0  0  0  0  0  0
   -1.2833   -6.8891    0.0000 C   0  0  0  0  0  0  0  0  0  0  0  0
   -1.5969   -3.9055    0.0000 C   0  0  0  0  0  0  0  0  0  0  0  0
   -1.7537   -2.4138    0.0000 C   0  0  0  0  0  0  0  0  0  0  0  0
  1  2  3  0
  2  3  1  0
  3  4  2  0
  4  5  1  0
  5  6  2  0
  6  7  1  0
  7  8  2  0
  6  9  1  0
  9 10  1  0
 10 11  2  0
 11 12  1  0
 12 13  2  0
 13 14  1  0
 14 15  2  0
 15 16  1  0
 16 17  2  0
 17 18  1  0
 18 19  1  0
 19 20  1  0
 20 21  1  0
 21 22  1  0
 22 23  1  0
 23 24  1  0
 17 25  1  0
 25 26  2  0
 13 27  1  0
 27 28  2  0
  8  3  1  0
 28 10  1  0
 28  5  1  0
 26 14  1  0
 24 19  1  0
M  END
>  <Affinity>  (21) 
1.0

>  <Affinity Type>  (21) 
IC50

>  <Affinity Unit>  (21) 
nM

>  <Scaffold>  (21) 
[#6&R]1:&@[#6&R]:&@[#6&R]2:&@[#6&R](:&@[#6&R]:&@[#7&R]:&@1):&@[#7&R]:&@[#6&R]1:&@[#6&R]:&@2:&@[#6&R]:&@[#6&R]:&@[#6&R]:&@[#7&R]:&@1

$$$$
O14757_Sries37726_idx-in-all-actives-364
     RDKit          2D

 20 23  0  0  0  0  0  0  0  0999 V2000
    4.5000    0.0000    0.0000 N   0  0  0  0  0  0  0  0  0  0  0  0
    3.0000    0.0000    0.0000 C   0  0  0  0  0  0  0  0  0  0  0  0
    1.5000    0.0000    0.0000 C   0  0  0  0  0  0  0  0  0  0  0  0
    0.7500   -1.2990    0.0000 C   0  0  0  0  0  0  0  0  0  0  0  0
   -0.7500   -1.2990    0.0000 C   0  0  0  0  0  0  0  0  0  0  0  0
   -1.5000    0.0000    0.0000 C   0  0  0  0  0  0  0  0  0  0  0  0
   -0.7500    1.2990    0.0000 C   0  0  0  0  0  0  0  0  0  0  0  0
    0.7500    1.2990    0.0000 N   0  0  0  0  0  0  0  0  0  0  0  0
   -2.9672   -0.3119    0.0000 N   0  0  0  0  0  0  0  0  0  0  0  0
   -3.1240   -1.8037    0.0000 C   0  0  0  0  0  0  0  0  0  0  0  0
   -4.3375   -2.6853    0.0000 N   0  0  0  0  0  0  0  0  0  0  0  0
   -4.1807   -4.1771    0.0000 C   0  0  0  0  0  0  0  0  0  0  0  0
   -2.8104   -4.7872    0.0000 C   0  0  0  0  0  0  0  0  0  0  0  0
   -2.6536   -6.2790    0.0000 C   0  0  0  0  0  0  0  0  0  0  0  0
   -1.3546   -7.0290    0.0000 C   0  0  0  0  0  0  0  0  0  0  0  0
   -1.6665   -8.4962    0.0000 C   0  0  0  0  0  0  0  0  0  0  0  0
   -3.1582   -8.6530    0.0000 C   0  0  0  0  0  0  0  0  0  0  0  0
   -3.7684   -7.2827    0.0000 S   0  0  0  0  0  0  0  0  0  0  0  0
   -1.5969   -3.9055    0.0000 C   0  0  0  0  0  0  0  0  0  0  0  0
   -1.7537   -2.4138    0.0000 C   0  0  0  0  0  0  0  0  0  0  0  0
  1  2  3  0
  2  3  1  0
  3  4  2  0
  4  5  1  0
  5  6  2  0
  6  7  1  0
  7  8  2  0
  6  9  1  0
  9 10  1  0
 10 11  2  0
 11 12  1  0
 12 13  2  0
 13 14  1  0
 14 15  2  0
 15 16  1  0
 16 17  2  0
 17 18  1  0
 13 19  1  0
 19 20  2  0
  8  3  1  0
 20 10  1  0
 20  5  1  0
 18 14  1  0
M  END
>  <Affinity>  (22) 
20.2

>  <Affinity Type>  (22) 
IC50

>  <Affinity Unit>  (22) 
nM

>  <Scaffold>  (22) 
[#6&R]1:&@[#6&R]:&@[#6&R]2:&@[#6&R](:&@[#6&R]:&@[#7&R]:&@1):&@[#7&R]:&@[#6&R]1:&@[#6&R]:&@2:&@[#6&R]:&@[#6&R]:&@[#6&R]:&@[#7&R]:&@1

$$$$
O14757_Sries37726_idx-in-all-actives-402
     RDKit          2D

 30 34  0  0  0  0  0  0  0  0999 V2000
    5.0490   -5.7452    0.0000 C   0  0  0  0  0  0  0  0  0  0  0  0
    3.7500   -6.4952    0.0000 C   0  0  0  0  0  0  0  0  0  0  0  0
    2.4510   -7.2452    0.0000 C   0  0  0  0  0  0  0  0  0  0  0  0
    3.0000   -5.1962    0.0000 C   0  0  0  0  0  0  0  0  0  0  0  0
    3.7500   -3.8971    0.0000 C   0  0  0  0  0  0  0  0  0  0  0  0
    3.0000   -2.5981    0.0000 C   0  0  0  0  0  0  0  0  0  0  0  0
    1.5000   -2.5981    0.0000 C   0  0  0  0  0  0  0  0  0  0  0  0
    0.7500   -1.2990    0.0000 C   0  0  0  0  0  0  0  0  0  0  0  0
    1.5000    0.0000    0.0000 C   0  0  0  0  0  0  0  0  0  0  0  0
    0.7500    1.2990    0.0000 N   0  0  0  0  0  0  0  0  0  0  0  0
   -0.7500    1.2990    0.0000 C   0  0  0  0  0  0  0  0  0  0  0  0
   -1.7537    2.4138    0.0000 N   0  0  0  0  0  0  0  0  0  0  0  0
   -3.1240    1.8037    0.0000 C   0  0  0  0  0  0  0  0  0  0  0  0
   -4.4943    2.4138    0.0000 C   0  0  0  0  0  0  0  0  0  0  0  0
   -5.7079    1.5321    0.0000 N   0  0  0  0  0  0  0  0  0  0  0  0
   -5.5511    0.0403    0.0000 C   0  0  0  0  0  0  0  0  0  0  0  0
   -6.7646   -0.8414    0.0000 C   0  0  0  0  0  0  0  0  0  0  0  0
   -7.9781   -1.7231    0.0000 N   0  0  0  0  0  0  0  0  0  0  0  0
   -4.1807   -0.5698    0.0000 C   0  0  0  0  0  0  0  0  0  0  0  0
   -2.9672    0.3119    0.0000 C   0  0  0  0  0  0  0  0  0  0  0  0
   -1.5000    0.0000    0.0000 C   0  0  0  0  0  0  0  0  0  0  0  0
   -0.7500   -1.2990    0.0000 C   0  0  0  0  0  0  0  0  0  0  0  0
    0.7500   -3.8971    0.0000 C   0  0  0  0  0  0  0  0  0  0  0  0
    1.5000   -5.1962    0.0000 C   0  0  0  0  0  0  0  0  0  0  0  0
    4.5000   -7.7942    0.0000 N   0  0  0  0  0  0  0  0  0  0  0  0
    3.7500   -9.0933    0.0000 C   0  0  0  0  0  0  0  0  0  0  0  0
    4.5000  -10.3923    0.0000 C   0  0  0  0  0  0  0  0  0  0  0  0
    6.0000  -10.3923    0.0000 C   0  0  0  0  0  0  0  0  0  0  0  0
    6.7500   -9.0933    0.0000 C   0  0  0  0  0  0  0  0  0  0  0  0
    6.0000   -7.7942    0.0000 C   0  0  0  0  0  0  0  0  0  0  0  0
  1  2  1  0
  2  3  1  0
  2  4  1  0
  4  5  2  0
  5  6  1  0
  6  7  2  0
  7  8  1  0
  8  9  2  0
  9 10  1  0
 10 11  2  0
 11 12  1  0
 12 13  1  0
 13 14  2  0
 14 15  1  0
 15 16  2  0
 16 17  1  0
 17 18  3  0
 16 19  1  0
 19 20  2  0
 20 21  1  0
 21 22  2  0
  7 23  1  0
 23 24  2  0
  2 25  1  0
 25 26  1  0
 26 27  1  0
 27 28  1  0
 28 29  1  0
 29 30  1  0
 24  4  1  0
 30 25  1  0
 22  8  1  0
 21 11  1  0
 20 13  1  0
M  END
>  <Affinity>  (23) 
10.2

>  <Affinity Type>  (23) 
IC50

>  <Affinity Unit>  (23) 
nM

>  <Scaffold>  (23) 
[#6&R]1:&@[#6&R]:&@[#6&R]2:&@[#6&R](:&@[#6&R]:&@[#7&R]:&@1):&@[#7&R]:&@[#6&R]1:&@[#6&R]:&@2:&@[#6&R]:&@[#6&R]:&@[#6&R]:&@[#7&R]:&@1

$$$$
O14757_Sries37726_idx-in-all-actives-377
     RDKit          2D

 32 37  0  0  0  0  0  0  0  0999 V2000
    1.5000   -5.1962    0.0000 C   0  0  0  0  0  0  0  0  0  0  0  0
    0.7500   -3.8971    0.0000 C   0  0  0  0  0  0  0  0  0  0  0  0
    1.5000   -2.5981    0.0000 C   0  0  0  0  0  0  0  0  0  0  0  0
    0.7500   -1.2990    0.0000 C   0  0  0  0  0  0  0  0  0  0  0  0
    1.5000    0.0000    0.0000 C   0  0  0  0  0  0  0  0  0  0  0  0
    0.7500    1.2990    0.0000 C   0  0  0  0  0  0  0  0  0  0  0  0
   -0.7500    1.2990    0.0000 C   0  0  0  0  0  0  0  0  0  0  0  0
   -1.5000    0.0000    0.0000 C   0  0  0  0  0  0  0  0  0  0  0  0
   -0.7500   -1.2990    0.0000 N   0  0  0  0  0  0  0  0  0  0  0  0
   -1.2135    2.7256    0.0000 N   0  0  0  0  0  0  0  0  0  0  0  0
   -0.0000    3.6073    0.0000 C   0  0  0  0  0  0  0  0  0  0  0  0
    0.1568    5.0991    0.0000 N   0  0  0  0  0  0  0  0  0  0  0  0
    1.5271    5.7092    0.0000 C   0  0  0  0  0  0  0  0  0  0  0  0
    2.7406    4.8275    0.0000 C   0  0  0  0  0  0  0  0  0  0  0  0
    4.1110    5.4376    0.0000 C   0  0  0  0  0  0  0  0  0  0  0  0
    5.3245    4.5559    0.0000 C   0  0  0  0  0  0  0  0  0  0  0  0
    6.6948    5.1660    0.0000 C   0  0  0  0  0  0  0  0  0  0  0  0
    6.8516    6.6578    0.0000 C   0  0  0  0  0  0  0  0  0  0  0  0
    8.2219    7.2679    0.0000 C   0  0  0  0  0  0  0  0  0  0  0  0
    9.4354    6.3863    0.0000 N   0  0  0  0  0  0  0  0  0  0  0  0
    9.2786    4.8945    0.0000 C   0  0  0  0  0  0  0  0  0  0  0  0
   10.4922    4.0128    0.0000 C   0  0  0  0  0  0  0  0  0  0  0  0
   11.8625    4.6229    0.0000 C   0  0  0  0  0  0  0  0  0  0  0  0
   12.0193    6.1147    0.0000 C   0  0  0  0  0  0  0  0  0  0  0  0
   10.8058    6.9964    0.0000 C   0  0  0  0  0  0  0  0  0  0  0  0
    5.6381    7.5395    0.0000 C   0  0  0  0  0  0  0  0  0  0  0  0
    4.2677    6.9294    0.0000 C   0  0  0  0  0  0  0  0  0  0  0  0
    2.5838    3.3357    0.0000 C   0  0  0  0  0  0  0  0  0  0  0  0
    1.2135    2.7256    0.0000 C   0  0  0  0  0  0  0  0  0  0  0  0
    3.0000   -2.5981    0.0000 C   0  0  0  0  0  0  0  0  0  0  0  0
    3.7500   -3.8971    0.0000 N   0  0  0  0  0  0  0  0  0  0  0  0
    3.0000   -5.1962    0.0000 N   0  0  0  0  0  0  0  0  0  0  0  0
  1  2  2  0
  2  3  1  0
  3  4  1  0
  4  5  2  0
  5  6  1  0
  6  7  2  0
  7  8  1  0
  8  9  2  0
  7 10  1  0
 10 11  1  0
 11 12  2  0
 12 13  1  0
 13 14  2  0
 14 15  1  0
 15 16  2  0
 16 17  1  0
 17 18  2  0
 18 19  1  0
 19 20  1  0
 20 21  1  0
 21 22  1  0
 22 23  1  0
 23 24  1  0
 24 25  1  0
 18 26  1  0
 26 27  2  0
 14 28  1  0
 28 29  2  0
  3 30  2  0
 30 31  1  0
 31 32  2  0
 32  1  1  0
  9  4  1  0
 29 11  1  0
 29  6  1  0
 27 15  1  0
 25 20  1  0
M  END
>  <Affinity>  (24) 
2.9

>  <Affinity Type>  (24) 
IC50

>  <Affinity Unit>  (24) 
nM

>  <Scaffold>  (24) 
[#6&R]1:&@[#6&R]:&@[#6&R]2:&@[#6&R](:&@[#6&R]:&@[#7&R]:&@1):&@[#7&R]:&@[#6&R]1:&@[#6&R]:&@2:&@[#6&R]:&@[#6&R]:&@[#6&R]:&@[#7&R]:&@1

$$$$
O14757_Sries37726_idx-in-all-actives-390
     RDKit          2D

 29 33  0  0  0  0  0  0  0  0999 V2000
    3.7500   -1.2990    0.0000 N   0  0  0  0  0  0  0  0  0  0  0  0
    3.0000    0.0000    0.0000 C   0  0  0  0  0  0  0  0  0  0  0  0
    3.7500    1.2990    0.0000 O   0  0  0  0  0  0  0  0  0  0  0  0
    1.5000    0.0000    0.0000 C   0  0  0  0  0  0  0  0  0  0  0  0
    0.7500   -1.2990    0.0000 C   0  0  0  0  0  0  0  0  0  0  0  0
   -0.7500   -1.2990    0.0000 C   0  0  0  0  0  0  0  0  0  0  0  0
   -1.5000    0.0000    0.0000 C   0  0  0  0  0  0  0  0  0  0  0  0
   -0.7500    1.2990    0.0000 C   0  0  0  0  0  0  0  0  0  0  0  0
    0.7500    1.2990    0.0000 N   0  0  0  0  0  0  0  0  0  0  0  0
   -2.9672   -0.3119    0.0000 N   0  0  0  0  0  0  0  0  0  0  0  0
   -3.1240   -1.8037    0.0000 C   0  0  0  0  0  0  0  0  0  0  0  0
   -4.3375   -2.6853    0.0000 N   0  0  0  0  0  0  0  0  0  0  0  0
   -4.1807   -4.1771    0.0000 C   0  0  0  0  0  0  0  0  0  0  0  0
   -2.8104   -4.7872    0.0000 C   0  0  0  0  0  0  0  0  0  0  0  0
   -2.6536   -6.2790    0.0000 C   0  0  0  0  0  0  0  0  0  0  0  0
   -3.8672   -7.1607    0.0000 C   0  0  0  0  0  0  0  0  0  0  0  0
   -3.7104   -8.6525    0.0000 C   0  0  0  0  0  0  0  0  0  0  0  0
   -2.3401   -9.2626    0.0000 C   0  0  0  0  0  0  0  0  0  0  0  0
   -2.1833  -10.7543    0.0000 C   0  0  0  0  0  0  0  0  0  0  0  0
   -3.3968  -11.6360    0.0000 N   0  0  0  0  0  0  0  0  0  0  0  0
   -4.7671  -11.0259    0.0000 C   0  0  0  0  0  0  0  0  0  0  0  0
   -5.9806  -11.9076    0.0000 C   0  0  0  0  0  0  0  0  0  0  0  0
   -5.8238  -13.3994    0.0000 C   0  0  0  0  0  0  0  0  0  0  0  0
   -4.4535  -14.0095    0.0000 C   0  0  0  0  0  0  0  0  0  0  0  0
   -3.2400  -13.1278    0.0000 C   0  0  0  0  0  0  0  0  0  0  0  0
   -1.1265   -8.3809    0.0000 C   0  0  0  0  0  0  0  0  0  0  0  0
   -1.2833   -6.8891    0.0000 C   0  0  0  0  0  0  0  0  0  0  0  0
   -1.5969   -3.9055    0.0000 C   0  0  0  0  0  0  0  0  0  0  0  0
   -1.7537   -2.4138    0.0000 C   0  0  0  0  0  0  0  0  0  0  0  0
  1  2  1  0
  2  3  2  0
  2  4  1  0
  4  5  2  0
  5  6  1  0
  6  7  2  0
  7  8  1  0
  8  9  2  0
  7 10  1  0
 10 11  1  0
 11 12  2  0
 12 13  1  0
 13 14  2  0
 14 15  1  0
 15 16  2  0
 16 17  1  0
 17 18  2  0
 18 19  1  0
 19 20  1  0
 20 21  1  0
 21 22  1  0
 22 23  1  0
 23 24  1  0
 24 25  1  0
 18 26  1  0
 26 27  2  0
 14 28  1  0
 28 29  2  0
  9  4  1  0
 29 11  1  0
 29  6  1  0
 27 15  1  0
 25 20  1  0
M  END
>  <Affinity>  (25) 
4.3

>  <Affinity Type>  (25) 
IC50

>  <Affinity Unit>  (25) 
nM

>  <Scaffold>  (25) 
[#6&R]1:&@[#6&R]:&@[#6&R]2:&@[#6&R](:&@[#6&R]:&@[#7&R]:&@1):&@[#7&R]:&@[#6&R]1:&@[#6&R]:&@2:&@[#6&R]:&@[#6&R]:&@[#6&R]:&@[#7&R]:&@1

$$$$
O14757_Sries37726_idx-in-all-actives-365
     RDKit          2D

 20 23  0  0  0  0  0  0  0  0999 V2000
    4.5000    0.0000    0.0000 N   0  0  0  0  0  0  0  0  0  0  0  0
    3.0000    0.0000    0.0000 C   0  0  0  0  0  0  0  0  0  0  0  0
    1.5000    0.0000    0.0000 C   0  0  0  0  0  0  0  0  0  0  0  0
    0.7500   -1.2990    0.0000 C   0  0  0  0  0  0  0  0  0  0  0  0
   -0.7500   -1.2990    0.0000 C   0  0  0  0  0  0  0  0  0  0  0  0
   -1.5000    0.0000    0.0000 C   0  0  0  0  0  0  0  0  0  0  0  0
   -0.7500    1.2990    0.0000 C   0  0  0  0  0  0  0  0  0  0  0  0
    0.7500    1.2990    0.0000 N   0  0  0  0  0  0  0  0  0  0  0  0
   -2.9672   -0.3119    0.0000 N   0  0  0  0  0  0  0  0  0  0  0  0
   -3.1240   -1.8037    0.0000 C   0  0  0  0  0  0  0  0  0  0  0  0
   -4.3375   -2.6853    0.0000 N   0  0  0  0  0  0  0  0  0  0  0  0
   -4.1807   -4.1771    0.0000 C   0  0  0  0  0  0  0  0  0  0  0  0
   -2.8104   -4.7872    0.0000 C   0  0  0  0  0  0  0  0  0  0  0  0
   -2.6536   -6.2790    0.0000 C   0  0  0  0  0  0  0  0  0  0  0  0
   -1.3546   -7.0290    0.0000 C   0  0  0  0  0  0  0  0  0  0  0  0
   -1.6665   -8.4962    0.0000 C   0  0  0  0  0  0  0  0  0  0  0  0
   -3.1582   -8.6530    0.0000 O   0  0  0  0  0  0  0  0  0  0  0  0
   -3.7684   -7.2827    0.0000 C   0  0  0  0  0  0  0  0  0  0  0  0
   -1.5969   -3.9055    0.0000 C   0  0  0  0  0  0  0  0  0  0  0  0
   -1.7537   -2.4138    0.0000 C   0  0  0  0  0  0  0  0  0  0  0  0
  1  2  3  0
  2  3  1  0
  3  4  2  0
  4  5  1  0
  5  6  2  0
  6  7  1  0
  7  8  2  0
  6  9  1  0
  9 10  1  0
 10 11  2  0
 11 12  1  0
 12 13  2  0
 13 14  1  0
 14 15  1  0
 15 16  2  0
 16 17  1  0
 17 18  1  0
 13 19  1  0
 19 20  2  0
  8  3  1  0
 20 10  1  0
 20  5  1  0
 18 14  2  0
M  END
>  <Affinity>  (26) 
16.6

>  <Affinity Type>  (26) 
IC50

>  <Affinity Unit>  (26) 
nM

>  <Scaffold>  (26) 
[#6&R]1:&@[#6&R]:&@[#6&R]2:&@[#6&R](:&@[#6&R]:&@[#7&R]:&@1):&@[#7&R]:&@[#6&R]1:&@[#6&R]:&@2:&@[#6&R]:&@[#6&R]:&@[#6&R]:&@[#7&R]:&@1

$$$$
O14757_Sries37726_idx-in-all-actives-403
     RDKit          2D

 30 34  0  0  0  0  0  0  0  0999 V2000
    1.7605  -11.8695    0.0000 C   0  0  0  0  0  0  0  0  0  0  0  0
    1.5000  -10.3923    0.0000 C   0  0  0  0  0  0  0  0  0  0  0  0
    0.0905  -10.9053    0.0000 C   0  0  0  0  0  0  0  0  0  0  0  0
    0.7500   -9.0933    0.0000 C   0  0  0  0  0  0  0  0  0  0  0  0
    1.5000   -7.7942    0.0000 C   0  0  0  0  0  0  0  0  0  0  0  0
    3.0000   -7.7942    0.0000 N   0  0  0  0  0  0  0  0  0  0  0  0
    3.7500   -6.4952    0.0000 C   0  0  0  0  0  0  0  0  0  0  0  0
    3.0000   -5.1962    0.0000 C   0  0  0  0  0  0  0  0  0  0  0  0
    3.7500   -3.8971    0.0000 C   0  0  0  0  0  0  0  0  0  0  0  0
    3.0000   -2.5981    0.0000 C   0  0  0  0  0  0  0  0  0  0  0  0
    1.5000   -2.5981    0.0000 C   0  0  0  0  0  0  0  0  0  0  0  0
    0.7500   -1.2990    0.0000 C   0  0  0  0  0  0  0  0  0  0  0  0
    1.5000    0.0000    0.0000 C   0  0  0  0  0  0  0  0  0  0  0  0
    0.7500    1.2990    0.0000 N   0  0  0  0  0  0  0  0  0  0  0  0
   -0.7500    1.2990    0.0000 C   0  0  0  0  0  0  0  0  0  0  0  0
   -1.7537    2.4138    0.0000 N   0  0  0  0  0  0  0  0  0  0  0  0
   -3.1240    1.8037    0.0000 C   0  0  0  0  0  0  0  0  0  0  0  0
   -4.4943    2.4138    0.0000 C   0  0  0  0  0  0  0  0  0  0  0  0
   -5.7079    1.5321    0.0000 N   0  0  0  0  0  0  0  0  0  0  0  0
   -5.5511    0.0403    0.0000 C   0  0  0  0  0  0  0  0  0  0  0  0
   -6.7646   -0.8414    0.0000 C   0  0  0  0  0  0  0  0  0  0  0  0
   -7.9781   -1.7231    0.0000 N   0  0  0  0  0  0  0  0  0  0  0  0
   -4.1807   -0.5698    0.0000 C   0  0  0  0  0  0  0  0  0  0  0  0
   -2.9672    0.3119    0.0000 C   0  0  0  0  0  0  0  0  0  0  0  0
   -1.5000    0.0000    0.0000 C   0  0  0  0  0  0  0  0  0  0  0  0
   -0.7500   -1.2990    0.0000 C   0  0  0  0  0  0  0  0  0  0  0  0
    0.7500   -3.8971    0.0000 C   0  0  0  0  0  0  0  0  0  0  0  0
    1.5000   -5.1962    0.0000 C   0  0  0  0  0  0  0  0  0  0  0  0
    3.7500   -9.0933    0.0000 C   0  0  0  0  0  0  0  0  0  0  0  0
    3.0000  -10.3923    0.0000 C   0  0  0  0  0  0  0  0  0  0  0  0
  1  2  1  0
  2  3  1  0
  2  4  1  0
  4  5  1  0
  5  6  1  0
  6  7  1  0
  7  8  1  0
  8  9  2  0
  9 10  1  0
 10 11  2  0
 11 12  1  0
 12 13  2  0
 13 14  1  0
 14 15  2  0
 15 16  1  0
 16 17  1  0
 17 18  2  0
 18 19  1  0
 19 20  2  0
 20 21  1  0
 21 22  3  0
 20 23  1  0
 23 24  2  0
 24 25  1  0
 25 26  2  0
 11 27  1  0
 27 28  2  0
  6 29  1  0
 29 30  1  0
 30  2  1  0
 28  8  1  0
 26 12  1  0
 25 15  1  0
 24 17  1  0
M  END
>  <Affinity>  (27) 
4.4

>  <Affinity Type>  (27) 
IC50

>  <Affinity Unit>  (27) 
nM

>  <Scaffold>  (27) 
[#6&R]1:&@[#6&R]:&@[#6&R]2:&@[#6&R](:&@[#6&R]:&@[#7&R]:&@1):&@[#7&R]:&@[#6&R]1:&@[#6&R]:&@2:&@[#6&R]:&@[#6&R]:&@[#6&R]:&@[#7&R]:&@1

$$$$
O14757_Sries37726_idx-in-all-actives-378
     RDKit          2D

 32 37  0  0  0  0  0  0  0  0999 V2000
    3.0000   -5.1962    0.0000 C   0  0  0  0  0  0  0  0  0  0  0  0
    1.5000   -5.1962    0.0000 C   0  0  0  0  0  0  0  0  0  0  0  0
    0.7500   -3.8971    0.0000 N   0  0  0  0  0  0  0  0  0  0  0  0
    1.5000   -2.5981    0.0000 C   0  0  0  0  0  0  0  0  0  0  0  0
    0.7500   -1.2990    0.0000 C   0  0  0  0  0  0  0  0  0  0  0  0
    1.5000    0.0000    0.0000 C   0  0  0  0  0  0  0  0  0  0  0  0
    0.7500    1.2990    0.0000 C   0  0  0  0  0  0  0  0  0  0  0  0
   -0.7500    1.2990    0.0000 C   0  0  0  0  0  0  0  0  0  0  0  0
   -1.5000    0.0000    0.0000 C   0  0  0  0  0  0  0  0  0  0  0  0
   -0.7500   -1.2990    0.0000 N   0  0  0  0  0  0  0  0  0  0  0  0
   -1.2135    2.7256    0.0000 N   0  0  0  0  0  0  0  0  0  0  0  0
   -0.0000    3.6073    0.0000 C   0  0  0  0  0  0  0  0  0  0  0  0
    0.1568    5.0991    0.0000 N   0  0  0  0  0  0  0  0  0  0  0  0
    1.5271    5.7092    0.0000 C   0  0  0  0  0  0  0  0  0  0  0  0
    2.7406    4.8275    0.0000 C   0  0  0  0  0  0  0  0  0  0  0  0
    4.1110    5.4376    0.0000 C   0  0  0  0  0  0  0  0  0  0  0  0
    5.3245    4.5559    0.0000 C   0  0  0  0  0  0  0  0  0  0  0  0
    6.6948    5.1660    0.0000 C   0  0  0  0  0  0  0  0  0  0  0  0
    6.8516    6.6578    0.0000 C   0  0  0  0  0  0  0  0  0  0  0  0
    8.2219    7.2679    0.0000 C   0  0  0  0  0  0  0  0  0  0  0  0
    9.4354    6.3863    0.0000 N   0  0  0  0  0  0  0  0  0  0  0  0
    9.2786    4.8945    0.0000 C   0  0  0  0  0  0  0  0  0  0  0  0
   10.4922    4.0128    0.0000 C   0  0  0  0  0  0  0  0  0  0  0  0
   11.8625    4.6229    0.0000 C   0  0  0  0  0  0  0  0  0  0  0  0
   12.0193    6.1147    0.0000 C   0  0  0  0  0  0  0  0  0  0  0  0
   10.8058    6.9964    0.0000 C   0  0  0  0  0  0  0  0  0  0  0  0
    5.6381    7.5395    0.0000 C   0  0  0  0  0  0  0  0  0  0  0  0
    4.2677    6.9294    0.0000 C   0  0  0  0  0  0  0  0  0  0  0  0
    2.5838    3.3357    0.0000 C   0  0  0  0  0  0  0  0  0  0  0  0
    1.2135    2.7256    0.0000 C   0  0  0  0  0  0  0  0  0  0  0  0
    3.0000   -2.5981    0.0000 C   0  0  0  0  0  0  0  0  0  0  0  0
    3.7500   -3.8971    0.0000 N   0  0  0  0  0  0  0  0  0  0  0  0
  1  2  2  0
  2  3  1  0
  3  4  2  0
  4  5  1  0
  5  6  2  0
  6  7  1  0
  7  8  2  0
  8  9  1  0
  9 10  2  0
  8 11  1  0
 11 12  1  0
 12 13  2  0
 13 14  1  0
 14 15  2  0
 15 16  1  0
 16 17  2  0
 17 18  1  0
 18 19  2  0
 19 20  1  0
 20 21  1  0
 21 22  1  0
 22 23  1  0
 23 24  1  0
 24 25  1  0
 25 26  1  0
 19 27  1  0
 27 28  2  0
 15 29  1  0
 29 30  2  0
  4 31  1  0
 31 32  2  0
 32  1  1  0
 10  5  1  0
 30 12  1  0
 30  7  1  0
 28 16  1  0
 26 21  1  0
M  END
>  <Affinity>  (28) 
2.3

>  <Affinity Type>  (28) 
IC50

>  <Affinity Unit>  (28) 
nM

>  <Scaffold>  (28) 
[#6&R]1:&@[#6&R]:&@[#6&R]2:&@[#6&R](:&@[#6&R]:&@[#7&R]:&@1):&@[#7&R]:&@[#6&R]1:&@[#6&R]:&@2:&@[#6&R]:&@[#6&R]:&@[#6&R]:&@[#7&R]:&@1

$$$$
O14757_Sries37726_idx-in-all-actives-391
     RDKit          2D

 26 30  0  0  0  0  0  0  0  0999 V2000
    1.5000    0.0000    0.0000 C   0  0  0  0  0  0  0  0  0  0  0  0
    0.7500   -1.2990    0.0000 C   0  0  0  0  0  0  0  0  0  0  0  0
   -0.7500   -1.2990    0.0000 C   0  0  0  0  0  0  0  0  0  0  0  0
   -1.5000    0.0000    0.0000 C   0  0  0  0  0  0  0  0  0  0  0  0
   -0.7500    1.2990    0.0000 C   0  0  0  0  0  0  0  0  0  0  0  0
    0.7500    1.2990    0.0000 N   0  0  0  0  0  0  0  0  0  0  0  0
   -2.9672   -0.3119    0.0000 N   0  0  0  0  0  0  0  0  0  0  0  0
   -3.1240   -1.8037    0.0000 C   0  0  0  0  0  0  0  0  0  0  0  0
   -4.3375   -2.6853    0.0000 N   0  0  0  0  0  0  0  0  0  0  0  0
   -4.1807   -4.1771    0.0000 C   0  0  0  0  0  0  0  0  0  0  0  0
   -2.8104   -4.7872    0.0000 C   0  0  0  0  0  0  0  0  0  0  0  0
   -2.6536   -6.2790    0.0000 C   0  0  0  0  0  0  0  0  0  0  0  0
   -3.8672   -7.1607    0.0000 C   0  0  0  0  0  0  0  0  0  0  0  0
   -3.7104   -8.6525    0.0000 C   0  0  0  0  0  0  0  0  0  0  0  0
   -2.3401   -9.2626    0.0000 C   0  0  0  0  0  0  0  0  0  0  0  0
   -2.1833  -10.7543    0.0000 C   0  0  0  0  0  0  0  0  0  0  0  0
   -3.3968  -11.6360    0.0000 N   0  0  0  0  0  0  0  0  0  0  0  0
   -4.7671  -11.0259    0.0000 C   0  0  0  0  0  0  0  0  0  0  0  0
   -5.9806  -11.9076    0.0000 C   0  0  0  0  0  0  0  0  0  0  0  0
   -5.8238  -13.3994    0.0000 C   0  0  0  0  0  0  0  0  0  0  0  0
   -4.4535  -14.0095    0.0000 C   0  0  0  0  0  0  0  0  0  0  0  0
   -3.2400  -13.1278    0.0000 C   0  0  0  0  0  0  0  0  0  0  0  0
   -1.1265   -8.3809    0.0000 C   0  0  0  0  0  0  0  0  0  0  0  0
   -1.2833   -6.8891    0.0000 C   0  0  0  0  0  0  0  0  0  0  0  0
   -1.5969   -3.9055    0.0000 C   0  0  0  0  0  0  0  0  0  0  0  0
   -1.7537   -2.4138    0.0000 C   0  0  0  0  0  0  0  0  0  0  0  0
  1  2  2  0
  2  3  1  0
  3  4  2  0
  4  5  1  0
  5  6  2  0
  4  7  1  0
  7  8  1  0
  8  9  2  0
  9 10  1  0
 10 11  2  0
 11 12  1  0
 12 13  2  0
 13 14  1  0
 14 15  2  0
 15 16  1  0
 16 17  1  0
 17 18  1  0
 18 19  1  0
 19 20  1  0
 20 21  1  0
 21 22  1  0
 15 23  1  0
 23 24  2  0
 11 25  1  0
 25 26  2  0
  6  1  1  0
 26  8  1  0
 26  3  1  0
 24 12  1  0
 22 17  1  0
M  END
>  <Affinity>  (29) 
18.6

>  <Affinity Type>  (29) 
IC50

>  <Affinity Unit>  (29) 
nM

>  <Scaffold>  (29) 
[#6&R]1:&@[#6&R]:&@[#6&R]2:&@[#6&R](:&@[#6&R]:&@[#7&R]:&@1):&@[#7&R]:&@[#6&R]1:&@[#6&R]:&@2:&@[#6&R]:&@[#6&R]:&@[#6&R]:&@[#7&R]:&@1

$$$$
O14757_Sries37726_idx-in-all-actives-358
     RDKit          2D

 28 32  0  0  0  0  0  0  0  0999 V2000
   -1.5000  -10.3923    0.0000 C   0  0  0  0  0  0  0  0  0  0  0  0
   -0.7500   -9.0933    0.0000 N   0  0  0  0  0  0  0  0  0  0  0  0
   -1.5000   -7.7942    0.0000 C   0  0  0  0  0  0  0  0  0  0  0  0
   -0.7500   -6.4952    0.0000 C   0  0  0  0  0  0  0  0  0  0  0  0
    0.7500   -6.4952    0.0000 N   0  0  0  0  0  0  0  0  0  0  0  0
    1.5000   -5.1962    0.0000 C   0  0  0  0  0  0  0  0  0  0  0  0
    3.0000   -5.1962    0.0000 C   0  0  0  0  0  0  0  0  0  0  0  0
    3.7500   -3.8971    0.0000 C   0  0  0  0  0  0  0  0  0  0  0  0
    3.0000   -2.5981    0.0000 C   0  0  0  0  0  0  0  0  0  0  0  0
    1.5000   -2.5981    0.0000 C   0  0  0  0  0  0  0  0  0  0  0  0
    0.7500   -1.2990    0.0000 C   0  0  0  0  0  0  0  0  0  0  0  0
    1.5000    0.0000    0.0000 C   0  0  0  0  0  0  0  0  0  0  0  0
    0.7500    1.2990    0.0000 N   0  0  0  0  0  0  0  0  0  0  0  0
   -0.7500    1.2990    0.0000 C   0  0  0  0  0  0  0  0  0  0  0  0
   -1.7537    2.4138    0.0000 N   0  0  0  0  0  0  0  0  0  0  0  0
   -3.1240    1.8037    0.0000 C   0  0  0  0  0  0  0  0  0  0  0  0
   -4.4943    2.4138    0.0000 C   0  0  0  0  0  0  0  0  0  0  0  0
   -5.7079    1.5321    0.0000 N   0  0  0  0  0  0  0  0  0  0  0  0
   -5.5511    0.0403    0.0000 C   0  0  0  0  0  0  0  0  0  0  0  0
   -6.7646   -0.8414    0.0000 C   0  0  0  0  0  0  0  0  0  0  0  0
   -7.9781   -1.7231    0.0000 N   0  0  0  0  0  0  0  0  0  0  0  0
   -4.1807   -0.5698    0.0000 C   0  0  0  0  0  0  0  0  0  0  0  0
   -2.9672    0.3119    0.0000 C   0  0  0  0  0  0  0  0  0  0  0  0
   -1.5000    0.0000    0.0000 C   0  0  0  0  0  0  0  0  0  0  0  0
   -0.7500   -1.2990    0.0000 C   0  0  0  0  0  0  0  0  0  0  0  0
    0.7500   -3.8971    0.0000 C   0  0  0  0  0  0  0  0  0  0  0  0
    1.5000   -7.7942    0.0000 C   0  0  0  0  0  0  0  0  0  0  0  0
    0.7500   -9.0933    0.0000 C   0  0  0  0  0  0  0  0  0  0  0  0
  1  2  1  0
  2  3  1  0
  3  4  1  0
  4  5  1  0
  5  6  1  0
  6  7  2  0
  7  8  1  0
  8  9  2  0
  9 10  1  0
 10 11  1  0
 11 12  2  0
 12 13  1  0
 13 14  2  0
 14 15  1  0
 15 16  1  0
 16 17  2  0
 17 18  1  0
 18 19  2  0
 19 20  1  0
 20 21  3  0
 19 22  1  0
 22 23  2  0
 23 24  1  0
 24 25  2  0
 10 26  2  0
  5 27  1  0
 27 28  1  0
 28  2  1  0
 26  6  1  0
 25 11  1  0
 24 14  1  0
 23 16  1  0
M  END
>  <Affinity>  (30) 
1.9

>  <Affinity Type>  (30) 
IC50

>  <Affinity Unit>  (30) 
nM

>  <Scaffold>  (30) 
[#6&R]1:&@[#6&R]:&@[#6&R]2:&@[#6&R](:&@[#6&R]:&@[#7&R]:&@1):&@[#7&R]:&@[#6&R]1:&@[#6&R]:&@2:&@[#6&R]:&@[#6&R]:&@[#6&R]:&@[#7&R]:&@1

$$$$
O14757_Sries37726_idx-in-all-actives-366
     RDKit          2D

 23 26  0  0  0  0  0  0  0  0999 V2000
    4.5000    0.0000    0.0000 N   0  0  0  0  0  0  0  0  0  0  0  0
    3.0000    0.0000    0.0000 C   0  0  0  0  0  0  0  0  0  0  0  0
    1.5000    0.0000    0.0000 C   0  0  0  0  0  0  0  0  0  0  0  0
    0.7500   -1.2990    0.0000 C   0  0  0  0  0  0  0  0  0  0  0  0
   -0.7500   -1.2990    0.0000 C   0  0  0  0  0  0  0  0  0  0  0  0
   -1.5000    0.0000    0.0000 C   0  0  0  0  0  0  0  0  0  0  0  0
   -0.7500    1.2990    0.0000 C   0  0  0  0  0  0  0  0  0  0  0  0
    0.7500    1.2990    0.0000 N   0  0  0  0  0  0  0  0  0  0  0  0
   -2.9672   -0.3119    0.0000 N   0  0  0  0  0  0  0  0  0  0  0  0
   -3.1240   -1.8037    0.0000 C   0  0  0  0  0  0  0  0  0  0  0  0
   -4.3375   -2.6853    0.0000 N   0  0  0  0  0  0  0  0  0  0  0  0
   -4.1807   -4.1771    0.0000 C   0  0  0  0  0  0  0  0  0  0  0  0
   -2.8104   -4.7872    0.0000 C   0  0  0  0  0  0  0  0  0  0  0  0
   -2.6536   -6.2790    0.0000 C   0  0  0  0  0  0  0  0  0  0  0  0
   -3.8672   -7.1607    0.0000 C   0  0  0  0  0  0  0  0  0  0  0  0
   -3.7104   -8.6525    0.0000 C   0  0  0  0  0  0  0  0  0  0  0  0
   -2.3401   -9.2626    0.0000 C   0  0  0  0  0  0  0  0  0  0  0  0
   -1.1265   -8.3809    0.0000 C   0  0  0  0  0  0  0  0  0  0  0  0
    0.2438   -8.9910    0.0000 C   0  0  0  0  0  0  0  0  0  0  0  0
    0.4006  -10.4828    0.0000 O   0  0  0  0  0  0  0  0  0  0  0  0
   -1.2833   -6.8891    0.0000 C   0  0  0  0  0  0  0  0  0  0  0  0
   -1.5969   -3.9055    0.0000 C   0  0  0  0  0  0  0  0  0  0  0  0
   -1.7537   -2.4138    0.0000 C   0  0  0  0  0  0  0  0  0  0  0  0
  1  2  3  0
  2  3  1  0
  3  4  2  0
  4  5  1  0
  5  6  2  0
  6  7  1  0
  7  8  2  0
  6  9  1  0
  9 10  1  0
 10 11  2  0
 11 12  1  0
 12 13  2  0
 13 14  1  0
 14 15  2  0
 15 16  1  0
 16 17  2  0
 17 18  1  0
 18 19  1  0
 19 20  1  0
 18 21  2  0
 13 22  1  0
 22 23  2  0
  8  3  1  0
 23 10  1  0
 23  5  1  0
 21 14  1  0
M  END
>  <Affinity>  (31) 
27.1

>  <Affinity Type>  (31) 
IC50

>  <Affinity Unit>  (31) 
nM

>  <Scaffold>  (31) 
[#6&R]1:&@[#6&R]:&@[#6&R]2:&@[#6&R](:&@[#6&R]:&@[#7&R]:&@1):&@[#7&R]:&@[#6&R]1:&@[#6&R]:&@2:&@[#6&R]:&@[#6&R]:&@[#6&R]:&@[#7&R]:&@1

$$$$
O14757_Sries37726_idx-in-all-actives-379
     RDKit          2D

 32 37  0  0  0  0  0  0  0  0999 V2000
    1.5000   -5.1962    0.0000 C   0  0  0  0  0  0  0  0  0  0  0  0
    0.7500   -3.8971    0.0000 C   0  0  0  0  0  0  0  0  0  0  0  0
    1.5000   -2.5981    0.0000 C   0  0  0  0  0  0  0  0  0  0  0  0
    0.7500   -1.2990    0.0000 C   0  0  0  0  0  0  0  0  0  0  0  0
    1.5000    0.0000    0.0000 C   0  0  0  0  0  0  0  0  0  0  0  0
    0.7500    1.2990    0.0000 C   0  0  0  0  0  0  0  0  0  0  0  0
   -0.7500    1.2990    0.0000 C   0  0  0  0  0  0  0  0  0  0  0  0
   -1.5000    0.0000    0.0000 C   0  0  0  0  0  0  0  0  0  0  0  0
   -0.7500   -1.2990    0.0000 N   0  0  0  0  0  0  0  0  0  0  0  0
   -1.2135    2.7256    0.0000 N   0  0  0  0  0  0  0  0  0  0  0  0
   -0.0000    3.6073    0.0000 C   0  0  0  0  0  0  0  0  0  0  0  0
    0.1568    5.0991    0.0000 N   0  0  0  0  0  0  0  0  0  0  0  0
    1.5271    5.7092    0.0000 C   0  0  0  0  0  0  0  0  0  0  0  0
    2.7406    4.8275    0.0000 C   0  0  0  0  0  0  0  0  0  0  0  0
    4.1110    5.4376    0.0000 C   0  0  0  0  0  0  0  0  0  0  0  0
    5.3245    4.5559    0.0000 C   0  0  0  0  0  0  0  0  0  0  0  0
    6.6948    5.1660    0.0000 C   0  0  0  0  0  0  0  0  0  0  0  0
    6.8516    6.6578    0.0000 C   0  0  0  0  0  0  0  0  0  0  0  0
    8.2219    7.2679    0.0000 C   0  0  0  0  0  0  0  0  0  0  0  0
    9.4354    6.3863    0.0000 N   0  0  0  0  0  0  0  0  0  0  0  0
    9.2786    4.8945    0.0000 C   0  0  0  0  0  0  0  0  0  0  0  0
   10.4922    4.0128    0.0000 C   0  0  0  0  0  0  0  0  0  0  0  0
   11.8625    4.6229    0.0000 C   0  0  0  0  0  0  0  0  0  0  0  0
   12.0193    6.1147    0.0000 C   0  0  0  0  0  0  0  0  0  0  0  0
   10.8058    6.9964    0.0000 C   0  0  0  0  0  0  0  0  0  0  0  0
    5.6381    7.5395    0.0000 C   0  0  0  0  0  0  0  0  0  0  0  0
    4.2677    6.9294    0.0000 C   0  0  0  0  0  0  0  0  0  0  0  0
    2.5838    3.3357    0.0000 C   0  0  0  0  0  0  0  0  0  0  0  0
    1.2135    2.7256    0.0000 C   0  0  0  0  0  0  0  0  0  0  0  0
    3.0000   -2.5981    0.0000 C   0  0  0  0  0  0  0  0  0  0  0  0
    3.7500   -3.8971    0.0000 C   0  0  0  0  0  0  0  0  0  0  0  0
    3.0000   -5.1962    0.0000 N   0  0  0  0  0  0  0  0  0  0  0  0
  1  2  2  0
  2  3  1  0
  3  4  1  0
  4  5  2  0
  5  6  1  0
  6  7  2  0
  7  8  1  0
  8  9  2  0
  7 10  1  0
 10 11  1  0
 11 12  2  0
 12 13  1  0
 13 14  2  0
 14 15  1  0
 15 16  2  0
 16 17  1  0
 17 18  2  0
 18 19  1  0
 19 20  1  0
 20 21  1  0
 21 22  1  0
 22 23  1  0
 23 24  1  0
 24 25  1  0
 18 26  1  0
 26 27  2  0
 14 28  1  0
 28 29  2  0
  3 30  2  0
 30 31  1  0
 31 32  2  0
 32  1  1  0
  9  4  1  0
 29 11  1  0
 29  6  1  0
 27 15  1  0
 25 20  1  0
M  END
>  <Affinity>  (32) 
9.1

>  <Affinity Type>  (32) 
IC50

>  <Affinity Unit>  (32) 
nM

>  <Scaffold>  (32) 
[#6&R]1:&@[#6&R]:&@[#6&R]2:&@[#6&R](:&@[#6&R]:&@[#7&R]:&@1):&@[#7&R]:&@[#6&R]1:&@[#6&R]:&@2:&@[#6&R]:&@[#6&R]:&@[#6&R]:&@[#7&R]:&@1

$$$$
O14757_Sries37726_idx-in-all-actives-392
     RDKit          2D

 26 30  0  0  0  0  0  0  0  0999 V2000
    5.9017   -8.7221    0.0000 C   0  0  0  0  0  0  0  0  0  0  0  0
    5.9017   -7.2221    0.0000 C   0  0  0  0  0  0  0  0  0  0  0  0
    4.6027   -6.4721    0.0000 N   0  0  0  0  0  0  0  0  0  0  0  0
    3.3037   -7.2221    0.0000 C   0  0  0  0  0  0  0  0  0  0  0  0
    2.0046   -6.4721    0.0000 C   0  0  0  0  0  0  0  0  0  0  0  0
    2.0046   -4.9721    0.0000 C   0  0  0  0  0  0  0  0  0  0  0  0
    0.8899   -3.9684    0.0000 S   0  0  0  0  0  0  0  0  0  0  0  0
    1.5000   -2.5981    0.0000 C   0  0  0  0  0  0  0  0  0  0  0  0
    0.7500   -1.2990    0.0000 C   0  0  0  0  0  0  0  0  0  0  0  0
    1.5000    0.0000    0.0000 C   0  0  0  0  0  0  0  0  0  0  0  0
    0.7500    1.2990    0.0000 N   0  0  0  0  0  0  0  0  0  0  0  0
   -0.7500    1.2990    0.0000 C   0  0  0  0  0  0  0  0  0  0  0  0
   -1.7537    2.4138    0.0000 N   0  0  0  0  0  0  0  0  0  0  0  0
   -3.1240    1.8037    0.0000 C   0  0  0  0  0  0  0  0  0  0  0  0
   -4.4943    2.4138    0.0000 C   0  0  0  0  0  0  0  0  0  0  0  0
   -5.7079    1.5321    0.0000 N   0  0  0  0  0  0  0  0  0  0  0  0
   -5.5511    0.0403    0.0000 C   0  0  0  0  0  0  0  0  0  0  0  0
   -6.7646   -0.8414    0.0000 C   0  0  0  0  0  0  0  0  0  0  0  0
   -7.9781   -1.7231    0.0000 N   0  0  0  0  0  0  0  0  0  0  0  0
   -4.1807   -0.5698    0.0000 C   0  0  0  0  0  0  0  0  0  0  0  0
   -2.9672    0.3119    0.0000 C   0  0  0  0  0  0  0  0  0  0  0  0
   -1.5000    0.0000    0.0000 C   0  0  0  0  0  0  0  0  0  0  0  0
   -0.7500   -1.2990    0.0000 C   0  0  0  0  0  0  0  0  0  0  0  0
    2.9918   -2.7549    0.0000 C   0  0  0  0  0  0  0  0  0  0  0  0
    3.3037   -4.2221    0.0000 C   0  0  0  0  0  0  0  0  0  0  0  0
    4.6027   -4.9721    0.0000 C   0  0  0  0  0  0  0  0  0  0  0  0
  1  2  1  0
  2  3  1  0
  3  4  1  0
  4  5  1  0
  5  6  1  0
  6  7  1  0
  7  8  1  0
  8  9  1  0
  9 10  2  0
 10 11  1  0
 11 12  2  0
 12 13  1  0
 13 14  1  0
 14 15  2  0
 15 16  1  0
 16 17  2  0
 17 18  1  0
 18 19  3  0
 17 20  1  0
 20 21  2  0
 21 22  1  0
 22 23  2  0
  8 24  2  0
 24 25  1  0
 25 26  1  0
 26  3  1  0
 25  6  2  0
 23  9  1  0
 22 12  1  0
 21 14  1  0
M  END
>  <Affinity>  (33) 
0.78

>  <Affinity Type>  (33) 
IC50

>  <Affinity Unit>  (33) 
nM

>  <Scaffold>  (33) 
[#6&R]1:&@[#6&R]:&@[#6&R]2:&@[#6&R](:&@[#6&R]:&@[#7&R]:&@1):&@[#7&R]:&@[#6&R]1:&@[#6&R]:&@2:&@[#6&R]:&@[#6&R]:&@[#6&R]:&@[#7&R]:&@1

$$$$
O14757_Sries37726_idx-in-all-actives-367
     RDKit          2D

 23 26  0  0  0  0  0  0  0  0999 V2000
    4.5000    0.0000    0.0000 N   0  0  0  0  0  0  0  0  0  0  0  0
    3.0000    0.0000    0.0000 C   0  0  0  0  0  0  0  0  0  0  0  0
    1.5000    0.0000    0.0000 C   0  0  0  0  0  0  0  0  0  0  0  0
    0.7500   -1.2990    0.0000 C   0  0  0  0  0  0  0  0  0  0  0  0
   -0.7500   -1.2990    0.0000 C   0  0  0  0  0  0  0  0  0  0  0  0
   -1.5000    0.0000    0.0000 C   0  0  0  0  0  0  0  0  0  0  0  0
   -0.7500    1.2990    0.0000 C   0  0  0  0  0  0  0  0  0  0  0  0
    0.7500    1.2990    0.0000 N   0  0  0  0  0  0  0  0  0  0  0  0
   -2.9672   -0.3119    0.0000 N   0  0  0  0  0  0  0  0  0  0  0  0
   -3.1240   -1.8037    0.0000 C   0  0  0  0  0  0  0  0  0  0  0  0
   -4.3375   -2.6853    0.0000 N   0  0  0  0  0  0  0  0  0  0  0  0
   -4.1807   -4.1771    0.0000 C   0  0  0  0  0  0  0  0  0  0  0  0
   -2.8104   -4.7872    0.0000 C   0  0  0  0  0  0  0  0  0  0  0  0
   -2.6536   -6.2790    0.0000 C   0  0  0  0  0  0  0  0  0  0  0  0
   -3.8672   -7.1607    0.0000 C   0  0  0  0  0  0  0  0  0  0  0  0
   -3.7104   -8.6525    0.0000 C   0  0  0  0  0  0  0  0  0  0  0  0
   -2.3401   -9.2626    0.0000 C   0  0  0  0  0  0  0  0  0  0  0  0
   -2.1833  -10.7543    0.0000 C   0  0  0  0  0  0  0  0  0  0  0  0
   -3.3968  -11.6360    0.0000 O   0  0  0  0  0  0  0  0  0  0  0  0
   -1.1265   -8.3809    0.0000 C   0  0  0  0  0  0  0  0  0  0  0  0
   -1.2833   -6.8891    0.0000 C   0  0  0  0  0  0  0  0  0  0  0  0
   -1.5969   -3.9055    0.0000 C   0  0  0  0  0  0  0  0  0  0  0  0
   -1.7537   -2.4138    0.0000 C   0  0  0  0  0  0  0  0  0  0  0  0
  1  2  3  0
  2  3  1  0
  3  4  2  0
  4  5  1  0
  5  6  2  0
  6  7  1  0
  7  8  2  0
  6  9  1  0
  9 10  1  0
 10 11  2  0
 11 12  1  0
 12 13  2  0
 13 14  1  0
 14 15  2  0
 15 16  1  0
 16 17  2  0
 17 18  1  0
 18 19  1  0
 17 20  1  0
 20 21  2  0
 13 22  1  0
 22 23  2  0
  8  3  1  0
 23 10  1  0
 23  5  1  0
 21 14  1  0
M  END
>  <Affinity>  (34) 
11.4

>  <Affinity Type>  (34) 
IC50

>  <Affinity Unit>  (34) 
nM

>  <Scaffold>  (34) 
[#6&R]1:&@[#6&R]:&@[#6&R]2:&@[#6&R](:&@[#6&R]:&@[#7&R]:&@1):&@[#7&R]:&@[#6&R]1:&@[#6&R]:&@2:&@[#6&R]:&@[#6&R]:&@[#6&R]:&@[#7&R]:&@1

$$$$
O14757_Sries37726_idx-in-all-actives-380
     RDKit          2D

 32 37  0  0  0  0  0  0  0  0999 V2000
    3.7500   -3.8971    0.0000 C   0  0  0  0  0  0  0  0  0  0  0  0
    3.0000   -5.1962    0.0000 C   0  0  0  0  0  0  0  0  0  0  0  0
    1.5000   -5.1962    0.0000 N   0  0  0  0  0  0  0  0  0  0  0  0
    0.7500   -3.8971    0.0000 C   0  0  0  0  0  0  0  0  0  0  0  0
    1.5000   -2.5981    0.0000 C   0  0  0  0  0  0  0  0  0  0  0  0
    0.7500   -1.2990    0.0000 C   0  0  0  0  0  0  0  0  0  0  0  0
    1.5000    0.0000    0.0000 C   0  0  0  0  0  0  0  0  0  0  0  0
    0.7500    1.2990    0.0000 C   0  0  0  0  0  0  0  0  0  0  0  0
   -0.7500    1.2990    0.0000 C   0  0  0  0  0  0  0  0  0  0  0  0
   -1.5000    0.0000    0.0000 C   0  0  0  0  0  0  0  0  0  0  0  0
   -0.7500   -1.2990    0.0000 N   0  0  0  0  0  0  0  0  0  0  0  0
   -1.2135    2.7256    0.0000 N   0  0  0  0  0  0  0  0  0  0  0  0
   -0.0000    3.6073    0.0000 C   0  0  0  0  0  0  0  0  0  0  0  0
    0.1568    5.0991    0.0000 N   0  0  0  0  0  0  0  0  0  0  0  0
    1.5271    5.7092    0.0000 C   0  0  0  0  0  0  0  0  0  0  0  0
    2.7406    4.8275    0.0000 C   0  0  0  0  0  0  0  0  0  0  0  0
    4.1110    5.4376    0.0000 C   0  0  0  0  0  0  0  0  0  0  0  0
    5.3245    4.5559    0.0000 C   0  0  0  0  0  0  0  0  0  0  0  0
    6.6948    5.1660    0.0000 C   0  0  0  0  0  0  0  0  0  0  0  0
    6.8516    6.6578    0.0000 C   0  0  0  0  0  0  0  0  0  0  0  0
    8.2219    7.2679    0.0000 C   0  0  0  0  0  0  0  0  0  0  0  0
    9.4354    6.3863    0.0000 N   0  0  0  0  0  0  0  0  0  0  0  0
    9.2786    4.8945    0.0000 C   0  0  0  0  0  0  0  0  0  0  0  0
   10.4922    4.0128    0.0000 C   0  0  0  0  0  0  0  0  0  0  0  0
   11.8625    4.6229    0.0000 C   0  0  0  0  0  0  0  0  0  0  0  0
   12.0193    6.1147    0.0000 C   0  0  0  0  0  0  0  0  0  0  0  0
   10.8058    6.9964    0.0000 C   0  0  0  0  0  0  0  0  0  0  0  0
    5.6381    7.5395    0.0000 C   0  0  0  0  0  0  0  0  0  0  0  0
    4.2677    6.9294    0.0000 C   0  0  0  0  0  0  0  0  0  0  0  0
    2.5838    3.3357    0.0000 C   0  0  0  0  0  0  0  0  0  0  0  0
    1.2135    2.7256    0.0000 C   0  0  0  0  0  0  0  0  0  0  0  0
    3.0000   -2.5981    0.0000 C   0  0  0  0  0  0  0  0  0  0  0  0
  1  2  2  0
  2  3  1  0
  3  4  2  0
  4  5  1  0
  5  6  1  0
  6  7  2  0
  7  8  1  0
  8  9  2  0
  9 10  1  0
 10 11  2  0
  9 12  1  0
 12 13  1  0
 13 14  2  0
 14 15  1  0
 15 16  2  0
 16 17  1  0
 17 18  2  0
 18 19  1  0
 19 20  2  0
 20 21  1  0
 21 22  1  0
 22 23  1  0
 23 24  1  0
 24 25  1  0
 25 26  1  0
 26 27  1  0
 20 28  1  0
 28 29  2  0
 16 30  1  0
 30 31  2  0
  5 32  2  0
 32  1  1  0
 11  6  1  0
 31 13  1  0
 31  8  1  0
 29 17  1  0
 27 22  1  0
M  END
>  <Affinity>  (35) 
0.95

>  <Affinity Type>  (35) 
IC50

>  <Affinity Unit>  (35) 
nM

>  <Scaffold>  (35) 
[#6&R]1:&@[#6&R]:&@[#6&R]2:&@[#6&R](:&@[#6&R]:&@[#7&R]:&@1):&@[#7&R]:&@[#6&R]1:&@[#6&R]:&@2:&@[#6&R]:&@[#6&R]:&@[#6&R]:&@[#7&R]:&@1

$$$$
O14757_Sries37726_idx-in-all-actives-359
     RDKit          2D

 21 24  0  0  0  0  0  0  0  0999 V2000
    4.5000    0.0000    0.0000 N   0  0  0  0  0  0  0  0  0  0  0  0
    3.0000    0.0000    0.0000 C   0  0  0  0  0  0  0  0  0  0  0  0
    1.5000    0.0000    0.0000 C   0  0  0  0  0  0  0  0  0  0  0  0
    0.7500   -1.2990    0.0000 C   0  0  0  0  0  0  0  0  0  0  0  0
   -0.7500   -1.2990    0.0000 C   0  0  0  0  0  0  0  0  0  0  0  0
   -1.5000    0.0000    0.0000 C   0  0  0  0  0  0  0  0  0  0  0  0
   -0.7500    1.2990    0.0000 C   0  0  0  0  0  0  0  0  0  0  0  0
    0.7500    1.2990    0.0000 N   0  0  0  0  0  0  0  0  0  0  0  0
   -2.9672   -0.3119    0.0000 N   0  0  0  0  0  0  0  0  0  0  0  0
   -3.1240   -1.8037    0.0000 C   0  0  0  0  0  0  0  0  0  0  0  0
   -4.3375   -2.6853    0.0000 N   0  0  0  0  0  0  0  0  0  0  0  0
   -4.1807   -4.1771    0.0000 C   0  0  0  0  0  0  0  0  0  0  0  0
   -2.8104   -4.7872    0.0000 C   0  0  0  0  0  0  0  0  0  0  0  0
   -2.6536   -6.2790    0.0000 C   0  0  0  0  0  0  0  0  0  0  0  0
   -3.8672   -7.1607    0.0000 C   0  0  0  0  0  0  0  0  0  0  0  0
   -3.7104   -8.6525    0.0000 C   0  0  0  0  0  0  0  0  0  0  0  0
   -2.3401   -9.2626    0.0000 N   0  0  0  0  0  0  0  0  0  0  0  0
   -1.1265   -8.3809    0.0000 C   0  0  0  0  0  0  0  0  0  0  0  0
   -1.2833   -6.8891    0.0000 C   0  0  0  0  0  0  0  0  0  0  0  0
   -1.5969   -3.9055    0.0000 C   0  0  0  0  0  0  0  0  0  0  0  0
   -1.7537   -2.4138    0.0000 C   0  0  0  0  0  0  0  0  0  0  0  0
  1  2  3  0
  2  3  1  0
  3  4  2  0
  4  5  1  0
  5  6  2  0
  6  7  1  0
  7  8  2  0
  6  9  1  0
  9 10  1  0
 10 11  2  0
 11 12  1  0
 12 13  2  0
 13 14  1  0
 14 15  2  0
 15 16  1  0
 16 17  2  0
 17 18  1  0
 18 19  2  0
 13 20  1  0
 20 21  2  0
  8  3  1  0
 21 10  1  0
 21  5  1  0
 19 14  1  0
M  END
>  <Affinity>  (36) 
42.7

>  <Affinity Type>  (36) 
IC50

>  <Affinity Unit>  (36) 
nM

>  <Scaffold>  (36) 
[#6&R]1:&@[#6&R]:&@[#6&R]2:&@[#6&R](:&@[#6&R]:&@[#7&R]:&@1):&@[#7&R]:&@[#6&R]1:&@[#6&R]:&@2:&@[#6&R]:&@[#6&R]:&@[#6&R]:&@[#7&R]:&@1

$$$$
O14757_Sries37726_idx-in-all-actives-393
     RDKit          2D

 27 31  0  0  0  0  0  0  0  0999 V2000
    5.2500   -9.0933    0.0000 C   0  0  0  0  0  0  0  0  0  0  0  0
    6.0000   -7.7942    0.0000 C   0  0  0  0  0  0  0  0  0  0  0  0
    5.2500   -6.4952    0.0000 N   0  0  0  0  0  0  0  0  0  0  0  0
    6.0000   -5.1962    0.0000 C   0  0  0  0  0  0  0  0  0  0  0  0
    5.2500   -3.8971    0.0000 C   0  0  0  0  0  0  0  0  0  0  0  0
    3.7500   -3.8971    0.0000 C   0  0  0  0  0  0  0  0  0  0  0  0
    3.0000   -2.5981    0.0000 C   0  0  0  0  0  0  0  0  0  0  0  0
    1.5000   -2.5981    0.0000 C   0  0  0  0  0  0  0  0  0  0  0  0
    0.7500   -1.2990    0.0000 C   0  0  0  0  0  0  0  0  0  0  0  0
    1.5000    0.0000    0.0000 C   0  0  0  0  0  0  0  0  0  0  0  0
    0.7500    1.2990    0.0000 N   0  0  0  0  0  0  0  0  0  0  0  0
   -0.7500    1.2990    0.0000 C   0  0  0  0  0  0  0  0  0  0  0  0
   -1.7537    2.4138    0.0000 N   0  0  0  0  0  0  0  0  0  0  0  0
   -3.1240    1.8037    0.0000 C   0  0  0  0  0  0  0  0  0  0  0  0
   -4.4943    2.4138    0.0000 C   0  0  0  0  0  0  0  0  0  0  0  0
   -5.7079    1.5321    0.0000 N   0  0  0  0  0  0  0  0  0  0  0  0
   -5.5511    0.0403    0.0000 C   0  0  0  0  0  0  0  0  0  0  0  0
   -6.7646   -0.8414    0.0000 C   0  0  0  0  0  0  0  0  0  0  0  0
   -7.9781   -1.7231    0.0000 N   0  0  0  0  0  0  0  0  0  0  0  0
   -4.1807   -0.5698    0.0000 C   0  0  0  0  0  0  0  0  0  0  0  0
   -2.9672    0.3119    0.0000 C   0  0  0  0  0  0  0  0  0  0  0  0
   -1.5000    0.0000    0.0000 C   0  0  0  0  0  0  0  0  0  0  0  0
   -0.7500   -1.2990    0.0000 C   0  0  0  0  0  0  0  0  0  0  0  0
    0.7500   -3.8971    0.0000 C   0  0  0  0  0  0  0  0  0  0  0  0
    1.5000   -5.1962    0.0000 C   0  0  0  0  0  0  0  0  0  0  0  0
    3.0000   -5.1962    0.0000 C   0  0  0  0  0  0  0  0  0  0  0  0
    3.7500   -6.4952    0.0000 C   0  0  0  0  0  0  0  0  0  0  0  0
  1  2  1  0
  2  3  1  0
  3  4  1  0
  4  5  1  0
  5  6  1  0
  6  7  2  0
  7  8  1  0
  8  9  1  0
  9 10  2  0
 10 11  1  0
 11 12  2  0
 12 13  1  0
 13 14  1  0
 14 15  2  0
 15 16  1  0
 16 17  2  0
 17 18  1  0
 18 19  3  0
 17 20  1  0
 20 21  2  0
 21 22  1  0
 22 23  2  0
  8 24  2  0
 24 25  1  0
 25 26  2  0
 26 27  1  0
 27  3  1  0
 26  6  1  0
 23  9  1  0
 22 12  1  0
 21 14  1  0
M  END
>  <Affinity>  (37) 
2.3

>  <Affinity Type>  (37) 
IC50

>  <Affinity Unit>  (37) 
nM

>  <Scaffold>  (37) 
[#6&R]1:&@[#6&R]:&@[#6&R]2:&@[#6&R](:&@[#6&R]:&@[#7&R]:&@1):&@[#7&R]:&@[#6&R]1:&@[#6&R]:&@2:&@[#6&R]:&@[#6&R]:&@[#6&R]:&@[#7&R]:&@1

$$$$
O14757_Sries37726_idx-in-all-actives-368
     RDKit          2D

 25 28  0  0  0  0  0  0  0  0999 V2000
    7.5000   -5.1962    0.0000 C   0  0  0  0  0  0  0  0  0  0  0  0
    6.0000   -5.1962    0.0000 C   0  0  0  0  0  0  0  0  0  0  0  0
    5.2500   -6.4952    0.0000 O   0  0  0  0  0  0  0  0  0  0  0  0
    5.2500   -3.8971    0.0000 N   0  0  0  0  0  0  0  0  0  0  0  0
    3.7500   -3.8971    0.0000 C   0  0  0  0  0  0  0  0  0  0  0  0
    3.0000   -5.1962    0.0000 C   0  0  0  0  0  0  0  0  0  0  0  0
    1.5000   -5.1962    0.0000 C   0  0  0  0  0  0  0  0  0  0  0  0
    0.7500   -3.8971    0.0000 C   0  0  0  0  0  0  0  0  0  0  0  0
    1.5000   -2.5981    0.0000 C   0  0  0  0  0  0  0  0  0  0  0  0
    0.7500   -1.2990    0.0000 C   0  0  0  0  0  0  0  0  0  0  0  0
    1.5000    0.0000    0.0000 C   0  0  0  0  0  0  0  0  0  0  0  0
    0.7500    1.2990    0.0000 N   0  0  0  0  0  0  0  0  0  0  0  0
   -0.7500    1.2990    0.0000 C   0  0  0  0  0  0  0  0  0  0  0  0
   -1.7537    2.4138    0.0000 N   0  0  0  0  0  0  0  0  0  0  0  0
   -3.1240    1.8037    0.0000 C   0  0  0  0  0  0  0  0  0  0  0  0
   -4.4943    2.4138    0.0000 C   0  0  0  0  0  0  0  0  0  0  0  0
   -5.7079    1.5321    0.0000 N   0  0  0  0  0  0  0  0  0  0  0  0
   -5.5511    0.0403    0.0000 C   0  0  0  0  0  0  0  0  0  0  0  0
   -6.7646   -0.8414    0.0000 C   0  0  0  0  0  0  0  0  0  0  0  0
   -7.9781   -1.7231    0.0000 N   0  0  0  0  0  0  0  0  0  0  0  0
   -4.1807   -0.5698    0.0000 C   0  0  0  0  0  0  0  0  0  0  0  0
   -2.9672    0.3119    0.0000 C   0  0  0  0  0  0  0  0  0  0  0  0
   -1.5000    0.0000    0.0000 C   0  0  0  0  0  0  0  0  0  0  0  0
   -0.7500   -1.2990    0.0000 C   0  0  0  0  0  0  0  0  0  0  0  0
    3.0000   -2.5981    0.0000 C   0  0  0  0  0  0  0  0  0  0  0  0
  1  2  1  0
  2  3  2  0
  2  4  1  0
  4  5  1  0
  5  6  2  0
  6  7  1  0
  7  8  2  0
  8  9  1  0
  9 10  1  0
 10 11  2  0
 11 12  1  0
 12 13  2  0
 13 14  1  0
 14 15  1  0
 15 16  2  0
 16 17  1  0
 17 18  2  0
 18 19  1  0
 19 20  3  0
 18 21  1  0
 21 22  2  0
 22 23  1  0
 23 24  2  0
  9 25  2  0
 25  5  1  0
 24 10  1  0
 23 13  1  0
 22 15  1  0
M  END
>  <Affinity>  (38) 
13.5

>  <Affinity Type>  (38) 
IC50

>  <Affinity Unit>  (38) 
nM

>  <Scaffold>  (38) 
[#6&R]1:&@[#6&R]:&@[#6&R]2:&@[#6&R](:&@[#6&R]:&@[#7&R]:&@1):&@[#7&R]:&@[#6&R]1:&@[#6&R]:&@2:&@[#6&R]:&@[#6&R]:&@[#6&R]:&@[#7&R]:&@1

$$$$
O14757_Sries37726_idx-in-all-actives-381
     RDKit          2D

 32 37  0  0  0  0  0  0  0  0999 V2000
    4.6740   -4.8322    0.0000 C   0  0  0  0  0  0  0  0  0  0  0  0
    3.3037   -4.2221    0.0000 N   0  0  0  0  0  0  0  0  0  0  0  0
    2.9918   -2.7549    0.0000 C   0  0  0  0  0  0  0  0  0  0  0  0
    1.5000   -2.5981    0.0000 C   0  0  0  0  0  0  0  0  0  0  0  0
    0.7500   -1.2990    0.0000 C   0  0  0  0  0  0  0  0  0  0  0  0
    1.5000    0.0000    0.0000 C   0  0  0  0  0  0  0  0  0  0  0  0
    0.7500    1.2990    0.0000 C   0  0  0  0  0  0  0  0  0  0  0  0
   -0.7500    1.2990    0.0000 C   0  0  0  0  0  0  0  0  0  0  0  0
   -1.5000    0.0000    0.0000 C   0  0  0  0  0  0  0  0  0  0  0  0
   -0.7500   -1.2990    0.0000 N   0  0  0  0  0  0  0  0  0  0  0  0
   -1.2135    2.7256    0.0000 N   0  0  0  0  0  0  0  0  0  0  0  0
   -0.0000    3.6073    0.0000 C   0  0  0  0  0  0  0  0  0  0  0  0
    0.1568    5.0991    0.0000 N   0  0  0  0  0  0  0  0  0  0  0  0
    1.5271    5.7092    0.0000 C   0  0  0  0  0  0  0  0  0  0  0  0
    2.7406    4.8275    0.0000 C   0  0  0  0  0  0  0  0  0  0  0  0
    4.1110    5.4376    0.0000 C   0  0  0  0  0  0  0  0  0  0  0  0
    5.3245    4.5559    0.0000 C   0  0  0  0  0  0  0  0  0  0  0  0
    6.6948    5.1660    0.0000 C   0  0  0  0  0  0  0  0  0  0  0  0
    6.8516    6.6578    0.0000 C   0  0  0  0  0  0  0  0  0  0  0  0
    8.2219    7.2679    0.0000 C   0  0  0  0  0  0  0  0  0  0  0  0
    9.4354    6.3863    0.0000 N   0  0  0  0  0  0  0  0  0  0  0  0
    9.2786    4.8945    0.0000 C   0  0  0  0  0  0  0  0  0  0  0  0
   10.4922    4.0128    0.0000 C   0  0  0  0  0  0  0  0  0  0  0  0
   11.8625    4.6229    0.0000 C   0  0  0  0  0  0  0  0  0  0  0  0
   12.0193    6.1147    0.0000 C   0  0  0  0  0  0  0  0  0  0  0  0
   10.8058    6.9964    0.0000 C   0  0  0  0  0  0  0  0  0  0  0  0
    5.6381    7.5395    0.0000 C   0  0  0  0  0  0  0  0  0  0  0  0
    4.2677    6.9294    0.0000 C   0  0  0  0  0  0  0  0  0  0  0  0
    2.5838    3.3357    0.0000 C   0  0  0  0  0  0  0  0  0  0  0  0
    1.2135    2.7256    0.0000 C   0  0  0  0  0  0  0  0  0  0  0  0
    0.8899   -3.9684    0.0000 C   0  0  0  0  0  0  0  0  0  0  0  0
    2.0046   -4.9721    0.0000 N   0  0  0  0  0  0  0  0  0  0  0  0
  1  2  1  0
  2  3  1  0
  3  4  2  0
  4  5  1  0
  5  6  2  0
  6  7  1  0
  7  8  2  0
  8  9  1  0
  9 10  2  0
  8 11  1  0
 11 12  1  0
 12 13  2  0
 13 14  1  0
 14 15  2  0
 15 16  1  0
 16 17  2  0
 17 18  1  0
 18 19  2  0
 19 20  1  0
 20 21  1  0
 21 22  1  0
 22 23  1  0
 23 24  1  0
 24 25  1  0
 25 26  1  0
 19 27  1  0
 27 28  2  0
 15 29  1  0
 29 30  2  0
  4 31  1  0
 31 32  2  0
 32  2  1  0
 10  5  1  0
 30 12  1  0
 30  7  1  0
 28 16  1  0
 26 21  1  0
M  END
>  <Affinity>  (39) 
0.31

>  <Affinity Type>  (39) 
IC50

>  <Affinity Unit>  (39) 
nM

>  <Scaffold>  (39) 
[#6&R]1:&@[#6&R]:&@[#6&R]2:&@[#6&R](:&@[#6&R]:&@[#7&R]:&@1):&@[#7&R]:&@[#6&R]1:&@[#6&R]:&@2:&@[#6&R]:&@[#6&R]:&@[#6&R]:&@[#7&R]:&@1

$$$$
O14757_Sries37726_idx-in-all-actives-394
     RDKit          2D

 27 31  0  0  0  0  0  0  0  0999 V2000
    4.5000    0.0000    0.0000 N   0  0  0  0  0  0  0  0  0  0  0  0
    3.0000    0.0000    0.0000 C   0  0  0  0  0  0  0  0  0  0  0  0
    1.5000    0.0000    0.0000 C   0  0  0  0  0  0  0  0  0  0  0  0
    0.7500   -1.2990    0.0000 C   0  0  0  0  0  0  0  0  0  0  0  0
   -0.7500   -1.2990    0.0000 C   0  0  0  0  0  0  0  0  0  0  0  0
   -1.5000    0.0000    0.0000 C   0  0  0  0  0  0  0  0  0  0  0  0
   -0.7500    1.2990    0.0000 C   0  0  0  0  0  0  0  0  0  0  0  0
    0.7500    1.2990    0.0000 N   0  0  0  0  0  0  0  0  0  0  0  0
   -2.9672   -0.3119    0.0000 N   0  0  0  0  0  0  0  0  0  0  0  0
   -3.1240   -1.8037    0.0000 C   0  0  0  0  0  0  0  0  0  0  0  0
   -4.3375   -2.6853    0.0000 N   0  0  0  0  0  0  0  0  0  0  0  0
   -4.1807   -4.1771    0.0000 C   0  0  0  0  0  0  0  0  0  0  0  0
   -2.8104   -4.7872    0.0000 C   0  0  0  0  0  0  0  0  0  0  0  0
   -2.6536   -6.2790    0.0000 C   0  0  0  0  0  0  0  0  0  0  0  0
   -1.3546   -7.0290    0.0000 N   0  0  0  0  0  0  0  0  0  0  0  0
   -1.6665   -8.4962    0.0000 C   0  0  0  0  0  0  0  0  0  0  0  0
   -0.6628   -9.6109    0.0000 C   0  0  0  0  0  0  0  0  0  0  0  0
   -1.1263  -11.0375    0.0000 N   0  0  0  0  0  0  0  0  0  0  0  0
   -2.5935  -11.3494    0.0000 C   0  0  0  0  0  0  0  0  0  0  0  0
   -3.0570  -12.7760    0.0000 C   0  0  0  0  0  0  0  0  0  0  0  0
   -2.0533  -13.8907    0.0000 C   0  0  0  0  0  0  0  0  0  0  0  0
   -0.5861  -13.5788    0.0000 C   0  0  0  0  0  0  0  0  0  0  0  0
   -0.1226  -12.1522    0.0000 C   0  0  0  0  0  0  0  0  0  0  0  0
   -3.1582   -8.6530    0.0000 C   0  0  0  0  0  0  0  0  0  0  0  0
   -3.7684   -7.2827    0.0000 S   0  0  0  0  0  0  0  0  0  0  0  0
   -1.5969   -3.9055    0.0000 C   0  0  0  0  0  0  0  0  0  0  0  0
   -1.7537   -2.4138    0.0000 C   0  0  0  0  0  0  0  0  0  0  0  0
  1  2  3  0
  2  3  1  0
  3  4  2  0
  4  5  1  0
  5  6  2  0
  6  7  1  0
  7  8  2  0
  6  9  1  0
  9 10  1  0
 10 11  2  0
 11 12  1  0
 12 13  2  0
 13 14  1  0
 14 15  2  0
 15 16  1  0
 16 17  1  0
 17 18  1  0
 18 19  1  0
 19 20  1  0
 20 21  1  0
 21 22  1  0
 22 23  1  0
 16 24  2  0
 24 25  1  0
 13 26  1  0
 26 27  2  0
  8  3  1  0
 27 10  1  0
 27  5  1  0
 25 14  1  0
 23 18  1  0
M  END
>  <Affinity>  (40) 
13.6

>  <Affinity Type>  (40) 
IC50

>  <Affinity Unit>  (40) 
nM

>  <Scaffold>  (40) 
[#6&R]1:&@[#6&R]:&@[#6&R]2:&@[#6&R](:&@[#6&R]:&@[#7&R]:&@1):&@[#7&R]:&@[#6&R]1:&@[#6&R]:&@2:&@[#6&R]:&@[#6&R]:&@[#6&R]:&@[#7&R]:&@1

$$$$
O14757_Sries37726_idx-in-all-actives-369
     RDKit          2D

 22 25  0  0  0  0  0  0  0  0999 V2000
    4.5000    0.0000    0.0000 N   0  0  0  0  0  0  0  0  0  0  0  0
    3.0000    0.0000    0.0000 C   0  0  0  0  0  0  0  0  0  0  0  0
    1.5000    0.0000    0.0000 C   0  0  0  0  0  0  0  0  0  0  0  0
    0.7500   -1.2990    0.0000 C   0  0  0  0  0  0  0  0  0  0  0  0
   -0.7500   -1.2990    0.0000 C   0  0  0  0  0  0  0  0  0  0  0  0
   -1.5000    0.0000    0.0000 C   0  0  0  0  0  0  0  0  0  0  0  0
   -0.7500    1.2990    0.0000 C   0  0  0  0  0  0  0  0  0  0  0  0
    0.7500    1.2990    0.0000 N   0  0  0  0  0  0  0  0  0  0  0  0
   -2.9672   -0.3119    0.0000 N   0  0  0  0  0  0  0  0  0  0  0  0
   -3.1240   -1.8037    0.0000 C   0  0  0  0  0  0  0  0  0  0  0  0
   -4.3375   -2.6853    0.0000 N   0  0  0  0  0  0  0  0  0  0  0  0
   -4.1807   -4.1771    0.0000 C   0  0  0  0  0  0  0  0  0  0  0  0
   -2.8104   -4.7872    0.0000 C   0  0  0  0  0  0  0  0  0  0  0  0
   -2.6536   -6.2790    0.0000 C   0  0  0  0  0  0  0  0  0  0  0  0
   -3.8672   -7.1607    0.0000 C   0  0  0  0  0  0  0  0  0  0  0  0
   -3.7104   -8.6525    0.0000 C   0  0  0  0  0  0  0  0  0  0  0  0
   -2.3401   -9.2626    0.0000 C   0  0  0  0  0  0  0  0  0  0  0  0
   -1.1265   -8.3809    0.0000 C   0  0  0  0  0  0  0  0  0  0  0  0
   -1.2833   -6.8891    0.0000 C   0  0  0  0  0  0  0  0  0  0  0  0
   -0.0698   -6.0074    0.0000 O   0  0  0  0  0  0  0  0  0  0  0  0
   -1.5969   -3.9055    0.0000 C   0  0  0  0  0  0  0  0  0  0  0  0
   -1.7537   -2.4138    0.0000 C   0  0  0  0  0  0  0  0  0  0  0  0
  1  2  3  0
  2  3  1  0
  3  4  2  0
  4  5  1  0
  5  6  2  0
  6  7  1  0
  7  8  2  0
  6  9  1  0
  9 10  1  0
 10 11  2  0
 11 12  1  0
 12 13  2  0
 13 14  1  0
 14 15  2  0
 15 16  1  0
 16 17  2  0
 17 18  1  0
 18 19  2  0
 19 20  1  0
 13 21  1  0
 21 22  2  0
  8  3  1  0
 22 10  1  0
 22  5  1  0
 19 14  1  0
M  END
>  <Affinity>  (41) 
41.7

>  <Affinity Type>  (41) 
IC50

>  <Affinity Unit>  (41) 
nM

>  <Scaffold>  (41) 
[#6&R]1:&@[#6&R]:&@[#6&R]2:&@[#6&R](:&@[#6&R]:&@[#7&R]:&@1):&@[#7&R]:&@[#6&R]1:&@[#6&R]:&@2:&@[#6&R]:&@[#6&R]:&@[#6&R]:&@[#7&R]:&@1

$$$$
O14757_Sries37726_idx-in-all-actives-382
     RDKit          2D

 31 36  0  0  0  0  0  0  0  0999 V2000
    1.5000   -5.1962    0.0000 C   0  0  0  0  0  0  0  0  0  0  0  0
    0.7500   -3.8971    0.0000 C   0  0  0  0  0  0  0  0  0  0  0  0
    1.5000   -2.5981    0.0000 C   0  0  0  0  0  0  0  0  0  0  0  0
    0.7500   -1.2990    0.0000 C   0  0  0  0  0  0  0  0  0  0  0  0
    1.5000    0.0000    0.0000 C   0  0  0  0  0  0  0  0  0  0  0  0
    0.7500    1.2990    0.0000 N   0  0  0  0  0  0  0  0  0  0  0  0
   -0.7500    1.2990    0.0000 C   0  0  0  0  0  0  0  0  0  0  0  0
   -1.7537    2.4138    0.0000 N   0  0  0  0  0  0  0  0  0  0  0  0
   -3.1240    1.8037    0.0000 C   0  0  0  0  0  0  0  0  0  0  0  0
   -4.4943    2.4138    0.0000 C   0  0  0  0  0  0  0  0  0  0  0  0
   -5.7079    1.5321    0.0000 N   0  0  0  0  0  0  0  0  0  0  0  0
   -5.5511    0.0403    0.0000 C   0  0  0  0  0  0  0  0  0  0  0  0
   -6.7646   -0.8414    0.0000 C   0  0  0  0  0  0  0  0  0  0  0  0
   -6.7646   -2.3414    0.0000 C   0  0  0  0  0  0  0  0  0  0  0  0
   -8.1912   -2.8049    0.0000 N   0  0  0  0  0  0  0  0  0  0  0  0
   -9.0729   -1.5914    0.0000 O   0  0  0  0  0  0  0  0  0  0  0  0
   -8.1912   -0.3779    0.0000 C   0  0  0  0  0  0  0  0  0  0  0  0
   -4.1807   -0.5698    0.0000 C   0  0  0  0  0  0  0  0  0  0  0  0
   -2.9672    0.3119    0.0000 C   0  0  0  0  0  0  0  0  0  0  0  0
   -1.5000    0.0000    0.0000 C   0  0  0  0  0  0  0  0  0  0  0  0
   -0.7500   -1.2990    0.0000 C   0  0  0  0  0  0  0  0  0  0  0  0
    3.0000   -2.5981    0.0000 C   0  0  0  0  0  0  0  0  0  0  0  0
    3.7500   -3.8971    0.0000 C   0  0  0  0  0  0  0  0  0  0  0  0
    3.0000   -5.1962    0.0000 C   0  0  0  0  0  0  0  0  0  0  0  0
    3.7500   -6.4952    0.0000 C   0  0  0  0  0  0  0  0  0  0  0  0
    3.0000   -7.7942    0.0000 N   0  0  0  0  0  0  0  0  0  0  0  0
    1.5000   -7.7942    0.0000 C   0  0  0  0  0  0  0  0  0  0  0  0
    0.7500   -9.0933    0.0000 C   0  0  0  0  0  0  0  0  0  0  0  0
    1.5000  -10.3923    0.0000 C   0  0  0  0  0  0  0  0  0  0  0  0
    3.0000  -10.3923    0.0000 C   0  0  0  0  0  0  0  0  0  0  0  0
    3.7500   -9.0933    0.0000 C   0  0  0  0  0  0  0  0  0  0  0  0
  1  2  2  0
  2  3  1  0
  3  4  1  0
  4  5  2  0
  5  6  1  0
  6  7  2  0
  7  8  1  0
  8  9  1  0
  9 10  2  0
 10 11  1  0
 11 12  2  0
 12 13  1  0
 13 14  1  0
 14 15  2  0
 15 16  1  0
 16 17  1  0
 12 18  1  0
 18 19  2  0
 19 20  1  0
 20 21  2  0
  3 22  2  0
 22 23  1  0
 23 24  2  0
 24 25  1  0
 25 26  1  0
 26 27  1  0
 27 28  1  0
 28 29  1  0
 29 30  1  0
 30 31  1  0
 24  1  1  0
 31 26  1  0
 21  4  1  0
 20  7  1  0
 19  9  1  0
 17 13  2  0
M  END
>  <Affinity>  (42) 
1.1

>  <Affinity Type>  (42) 
IC50

>  <Affinity Unit>  (42) 
nM

>  <Scaffold>  (42) 
[#6&R]1:&@[#6&R]:&@[#6&R]2:&@[#6&R](:&@[#6&R]:&@[#7&R]:&@1):&@[#7&R]:&@[#6&R]1:&@[#6&R]:&@2:&@[#6&R]:&@[#6&R]:&@[#6&R]:&@[#7&R]:&@1

$$$$
O14757_Sries37726_idx-in-all-actives-395
     RDKit          2D

 28 32  0  0  0  0  0  0  0  0999 V2000
    4.5000    0.0000    0.0000 N   0  0  0  0  0  0  0  0  0  0  0  0
    3.0000    0.0000    0.0000 C   0  0  0  0  0  0  0  0  0  0  0  0
    1.5000    0.0000    0.0000 C   0  0  0  0  0  0  0  0  0  0  0  0
    0.7500   -1.2990    0.0000 C   0  0  0  0  0  0  0  0  0  0  0  0
   -0.7500   -1.2990    0.0000 C   0  0  0  0  0  0  0  0  0  0  0  0
   -1.5000    0.0000    0.0000 C   0  0  0  0  0  0  0  0  0  0  0  0
   -0.7500    1.2990    0.0000 C   0  0  0  0  0  0  0  0  0  0  0  0
    0.7500    1.2990    0.0000 N   0  0  0  0  0  0  0  0  0  0  0  0
   -2.9672   -0.3119    0.0000 N   0  0  0  0  0  0  0  0  0  0  0  0
   -3.1240   -1.8037    0.0000 C   0  0  0  0  0  0  0  0  0  0  0  0
   -4.3375   -2.6853    0.0000 N   0  0  0  0  0  0  0  0  0  0  0  0
   -4.1807   -4.1771    0.0000 C   0  0  0  0  0  0  0  0  0  0  0  0
   -2.8104   -4.7872    0.0000 C   0  0  0  0  0  0  0  0  0  0  0  0
   -2.6536   -6.2790    0.0000 C   0  0  0  0  0  0  0  0  0  0  0  0
   -3.8672   -7.1607    0.0000 C   0  0  0  0  0  0  0  0  0  0  0  0
   -3.7104   -8.6525    0.0000 C   0  0  0  0  0  0  0  0  0  0  0  0
   -2.3401   -9.2626    0.0000 C   0  0  0  0  0  0  0  0  0  0  0  0
   -2.1833  -10.7543    0.0000 C   0  0  0  0  0  0  0  0  0  0  0  0
   -3.3968  -11.6360    0.0000 N   0  0  0  0  0  0  0  0  0  0  0  0
   -4.7671  -11.0259    0.0000 C   0  0  0  0  0  0  0  0  0  0  0  0
   -5.9806  -11.9076    0.0000 C   0  0  0  0  0  0  0  0  0  0  0  0
   -5.8238  -13.3994    0.0000 C   0  0  0  0  0  0  0  0  0  0  0  0
   -4.4535  -14.0095    0.0000 C   0  0  0  0  0  0  0  0  0  0  0  0
   -3.2400  -13.1278    0.0000 C   0  0  0  0  0  0  0  0  0  0  0  0
   -1.1265   -8.3809    0.0000 N   0  0  0  0  0  0  0  0  0  0  0  0
   -1.2833   -6.8891    0.0000 C   0  0  0  0  0  0  0  0  0  0  0  0
   -1.5969   -3.9055    0.0000 C   0  0  0  0  0  0  0  0  0  0  0  0
   -1.7537   -2.4138    0.0000 C   0  0  0  0  0  0  0  0  0  0  0  0
  1  2  3  0
  2  3  1  0
  3  4  2  0
  4  5  1  0
  5  6  2  0
  6  7  1  0
  7  8  2  0
  6  9  1  0
  9 10  1  0
 10 11  2  0
 11 12  1  0
 12 13  2  0
 13 14  1  0
 14 15  2  0
 15 16  1  0
 16 17  2  0
 17 18  1  0
 18 19  1  0
 19 20  1  0
 20 21  1  0
 21 22  1  0
 22 23  1  0
 23 24  1  0
 17 25  1  0
 25 26  2  0
 13 27  1  0
 27 28  2  0
  8  3  1  0
 28 10  1  0
 28  5  1  0
 26 14  1  0
 24 19  1  0
M  END
>  <Affinity>  (43) 
5.3

>  <Affinity Type>  (43) 
IC50

>  <Affinity Unit>  (43) 
nM

>  <Scaffold>  (43) 
[#6&R]1:&@[#6&R]:&@[#6&R]2:&@[#6&R](:&@[#6&R]:&@[#7&R]:&@1):&@[#7&R]:&@[#6&R]1:&@[#6&R]:&@2:&@[#6&R]:&@[#6&R]:&@[#6&R]:&@[#7&R]:&@1

$$$$
O14757_Sries37726_idx-in-all-actives-370
     RDKit          2D

 27 31  0  0  0  0  0  0  0  0999 V2000
    4.5000    0.0000    0.0000 N   0  0  0  0  0  0  0  0  0  0  0  0
    3.0000    0.0000    0.0000 C   0  0  0  0  0  0  0  0  0  0  0  0
    1.5000    0.0000    0.0000 C   0  0  0  0  0  0  0  0  0  0  0  0
    0.7500   -1.2990    0.0000 C   0  0  0  0  0  0  0  0  0  0  0  0
   -0.7500   -1.2990    0.0000 C   0  0  0  0  0  0  0  0  0  0  0  0
   -1.5000    0.0000    0.0000 C   0  0  0  0  0  0  0  0  0  0  0  0
   -0.7500    1.2990    0.0000 C   0  0  0  0  0  0  0  0  0  0  0  0
    0.7500    1.2990    0.0000 N   0  0  0  0  0  0  0  0  0  0  0  0
   -2.9672   -0.3119    0.0000 N   0  0  0  0  0  0  0  0  0  0  0  0
   -3.1240   -1.8037    0.0000 C   0  0  0  0  0  0  0  0  0  0  0  0
   -4.3375   -2.6853    0.0000 N   0  0  0  0  0  0  0  0  0  0  0  0
   -4.1807   -4.1771    0.0000 C   0  0  0  0  0  0  0  0  0  0  0  0
   -2.8104   -4.7872    0.0000 C   0  0  0  0  0  0  0  0  0  0  0  0
   -2.6536   -6.2790    0.0000 C   0  0  0  0  0  0  0  0  0  0  0  0
   -3.8672   -7.1607    0.0000 C   0  0  0  0  0  0  0  0  0  0  0  0
   -3.7104   -8.6525    0.0000 C   0  0  0  0  0  0  0  0  0  0  0  0
   -2.3401   -9.2626    0.0000 C   0  0  0  0  0  0  0  0  0  0  0  0
   -2.1833  -10.7543    0.0000 N   0  0  0  0  0  0  0  0  0  0  0  0
   -3.3968  -11.6360    0.0000 C   0  0  0  0  0  0  0  0  0  0  0  0
   -3.2400  -13.1278    0.0000 C   0  0  0  0  0  0  0  0  0  0  0  0
   -1.8697  -13.7379    0.0000 O   0  0  0  0  0  0  0  0  0  0  0  0
   -0.6561  -12.8562    0.0000 C   0  0  0  0  0  0  0  0  0  0  0  0
   -0.8129  -11.3645    0.0000 C   0  0  0  0  0  0  0  0  0  0  0  0
   -1.1265   -8.3809    0.0000 C   0  0  0  0  0  0  0  0  0  0  0  0
   -1.2833   -6.8891    0.0000 C   0  0  0  0  0  0  0  0  0  0  0  0
   -1.5969   -3.9055    0.0000 C   0  0  0  0  0  0  0  0  0  0  0  0
   -1.7537   -2.4138    0.0000 C   0  0  0  0  0  0  0  0  0  0  0  0
  1  2  3  0
  2  3  1  0
  3  4  2  0
  4  5  1  0
  5  6  2  0
  6  7  1  0
  7  8  2  0
  6  9  1  0
  9 10  1  0
 10 11  2  0
 11 12  1  0
 12 13  2  0
 13 14  1  0
 14 15  2  0
 15 16  1  0
 16 17  2  0
 17 18  1  0
 18 19  1  0
 19 20  1  0
 20 21  1  0
 21 22  1  0
 22 23  1  0
 17 24  1  0
 24 25  2  0
 13 26  1  0
 26 27  2  0
  8  3  1  0
 27 10  1  0
 27  5  1  0
 25 14  1  0
 23 18  1  0
M  END
>  <Affinity>  (44) 
78.7

>  <Affinity Type>  (44) 
IC50

>  <Affinity Unit>  (44) 
nM

>  <Scaffold>  (44) 
[#6&R]1:&@[#6&R]:&@[#6&R]2:&@[#6&R](:&@[#6&R]:&@[#7&R]:&@1):&@[#7&R]:&@[#6&R]1:&@[#6&R]:&@2:&@[#6&R]:&@[#6&R]:&@[#6&R]:&@[#7&R]:&@1

$$$$
O14757_Sries37726_idx-in-all-actives-383
     RDKit          2D

 31 36  0  0  0  0  0  0  0  0999 V2000
    2.0046   -4.9721    0.0000 C   0  0  0  0  0  0  0  0  0  0  0  0
    3.3037   -4.2221    0.0000 N   0  0  0  0  0  0  0  0  0  0  0  0
    2.9918   -2.7549    0.0000 N   0  0  0  0  0  0  0  0  0  0  0  0
    1.5000   -2.5981    0.0000 C   0  0  0  0  0  0  0  0  0  0  0  0
    0.7500   -1.2990    0.0000 C   0  0  0  0  0  0  0  0  0  0  0  0
    1.5000    0.0000    0.0000 C   0  0  0  0  0  0  0  0  0  0  0  0
    0.7500    1.2990    0.0000 C   0  0  0  0  0  0  0  0  0  0  0  0
   -0.7500    1.2990    0.0000 C   0  0  0  0  0  0  0  0  0  0  0  0
   -1.5000    0.0000    0.0000 C   0  0  0  0  0  0  0  0  0  0  0  0
   -0.7500   -1.2990    0.0000 N   0  0  0  0  0  0  0  0  0  0  0  0
   -1.2135    2.7256    0.0000 N   0  0  0  0  0  0  0  0  0  0  0  0
   -0.0000    3.6073    0.0000 C   0  0  0  0  0  0  0  0  0  0  0  0
    0.1568    5.0991    0.0000 N   0  0  0  0  0  0  0  0  0  0  0  0
    1.5271    5.7092    0.0000 C   0  0  0  0  0  0  0  0  0  0  0  0
    2.7406    4.8275    0.0000 C   0  0  0  0  0  0  0  0  0  0  0  0
    4.1110    5.4376    0.0000 C   0  0  0  0  0  0  0  0  0  0  0  0
    5.3245    4.5559    0.0000 C   0  0  0  0  0  0  0  0  0  0  0  0
    6.6948    5.1660    0.0000 C   0  0  0  0  0  0  0  0  0  0  0  0
    6.8516    6.6578    0.0000 C   0  0  0  0  0  0  0  0  0  0  0  0
    8.2219    7.2679    0.0000 C   0  0  0  0  0  0  0  0  0  0  0  0
    9.4354    6.3863    0.0000 N   0  0  0  0  0  0  0  0  0  0  0  0
    9.2786    4.8945    0.0000 C   0  0  0  0  0  0  0  0  0  0  0  0
   10.4922    4.0128    0.0000 C   0  0  0  0  0  0  0  0  0  0  0  0
   11.8625    4.6229    0.0000 C   0  0  0  0  0  0  0  0  0  0  0  0
   12.0193    6.1147    0.0000 C   0  0  0  0  0  0  0  0  0  0  0  0
   10.8058    6.9964    0.0000 C   0  0  0  0  0  0  0  0  0  0  0  0
    5.6381    7.5395    0.0000 C   0  0  0  0  0  0  0  0  0  0  0  0
    4.2677    6.9294    0.0000 C   0  0  0  0  0  0  0  0  0  0  0  0
    2.5838    3.3357    0.0000 C   0  0  0  0  0  0  0  0  0  0  0  0
    1.2135    2.7256    0.0000 C   0  0  0  0  0  0  0  0  0  0  0  0
    0.8899   -3.9684    0.0000 O   0  0  0  0  0  0  0  0  0  0  0  0
  1  2  2  0
  2  3  1  0
  3  4  2  0
  4  5  1  0
  5  6  2  0
  6  7  1  0
  7  8  2  0
  8  9  1  0
  9 10  2  0
  8 11  1  0
 11 12  1  0
 12 13  2  0
 13 14  1  0
 14 15  2  0
 15 16  1  0
 16 17  2  0
 17 18  1  0
 18 19  2  0
 19 20  1  0
 20 21  1  0
 21 22  1  0
 22 23  1  0
 23 24  1  0
 24 25  1  0
 25 26  1  0
 19 27  1  0
 27 28  2  0
 15 29  1  0
 29 30  2  0
  4 31  1  0
 31  1  1  0
 10  5  1  0
 30 12  1  0
 30  7  1  0
 28 16  1  0
 26 21  1  0
M  END
>  <Affinity>  (45) 
0.95

>  <Affinity Type>  (45) 
IC50

>  <Affinity Unit>  (45) 
nM

>  <Scaffold>  (45) 
[#6&R]1:&@[#6&R]:&@[#6&R]2:&@[#6&R](:&@[#6&R]:&@[#7&R]:&@1):&@[#7&R]:&@[#6&R]1:&@[#6&R]:&@2:&@[#6&R]:&@[#6&R]:&@[#6&R]:&@[#7&R]:&@1

$$$$
O14757_Sries37726_idx-in-all-actives-396
     RDKit          2D

 31 36  0  0  0  0  0  0  0  0999 V2000
    4.5000    0.0000    0.0000 N   0  0  0  0  0  0  0  0  0  0  0  0
    3.0000    0.0000    0.0000 C   0  0  0  0  0  0  0  0  0  0  0  0
    1.5000    0.0000    0.0000 C   0  0  0  0  0  0  0  0  0  0  0  0
    0.7500   -1.2990    0.0000 C   0  0  0  0  0  0  0  0  0  0  0  0
   -0.7500   -1.2990    0.0000 C   0  0  0  0  0  0  0  0  0  0  0  0
   -1.5000    0.0000    0.0000 C   0  0  0  0  0  0  0  0  0  0  0  0
   -0.7500    1.2990    0.0000 C   0  0  0  0  0  0  0  0  0  0  0  0
    0.7500    1.2990    0.0000 N   0  0  0  0  0  0  0  0  0  0  0  0
   -2.9672   -0.3119    0.0000 N   0  0  0  0  0  0  0  0  0  0  0  0
   -3.1240   -1.8037    0.0000 C   0  0  0  0  0  0  0  0  0  0  0  0
   -4.3375   -2.6853    0.0000 N   0  0  0  0  0  0  0  0  0  0  0  0
   -4.1807   -4.1771    0.0000 C   0  0  0  0  0  0  0  0  0  0  0  0
   -2.8104   -4.7872    0.0000 C   0  0  0  0  0  0  0  0  0  0  0  0
   -2.6536   -6.2790    0.0000 C   0  0  0  0  0  0  0  0  0  0  0  0
   -3.8672   -7.1607    0.0000 C   0  0  0  0  0  0  0  0  0  0  0  0
   -3.7104   -8.6525    0.0000 C   0  0  0  0  0  0  0  0  0  0  0  0
   -2.3401   -9.2626    0.0000 C   0  0  0  0  0  0  0  0  0  0  0  0
   -2.1833  -10.7543    0.0000 C   0  0  0  0  0  0  0  0  0  0  0  0
   -3.3968  -11.6360    0.0000 N   0  0  0  0  0  0  0  0  0  0  0  0
   -4.7671  -11.0259    0.0000 C   0  0  0  0  0  0  0  0  0  0  0  0
   -5.9806  -11.9076    0.0000 C   0  0  0  0  0  0  0  0  0  0  0  0
   -5.8238  -13.3994    0.0000 C   0  0  0  0  0  0  0  0  0  0  0  0
   -4.4535  -14.0095    0.0000 C   0  0  0  0  0  0  0  0  0  0  0  0
   -3.2400  -13.1278    0.0000 C   0  0  0  0  0  0  0  0  0  0  0  0
   -7.3054  -13.1647    0.0000 C   0  0  0  0  0  0  0  0  0  0  0  0
   -7.5400  -14.6463    0.0000 O   0  0  0  0  0  0  0  0  0  0  0  0
   -6.0585  -14.8809    0.0000 C   0  0  0  0  0  0  0  0  0  0  0  0
   -1.1265   -8.3809    0.0000 C   0  0  0  0  0  0  0  0  0  0  0  0
   -1.2833   -6.8891    0.0000 C   0  0  0  0  0  0  0  0  0  0  0  0
   -1.5969   -3.9055    0.0000 C   0  0  0  0  0  0  0  0  0  0  0  0
   -1.7537   -2.4138    0.0000 C   0  0  0  0  0  0  0  0  0  0  0  0
  1  2  3  0
  2  3  1  0
  3  4  2  0
  4  5  1  0
  5  6  2  0
  6  7  1  0
  7  8  2  0
  6  9  1  0
  9 10  1  0
 10 11  2  0
 11 12  1  0
 12 13  2  0
 13 14  1  0
 14 15  2  0
 15 16  1  0
 16 17  2  0
 17 18  1  0
 18 19  1  0
 19 20  1  0
 20 21  1  0
 21 22  1  0
 22 23  1  0
 23 24  1  0
 22 25  1  0
 25 26  1  0
 26 27  1  0
 17 28  1  0
 28 29  2  0
 13 30  1  0
 30 31  2  0
  8  3  1  0
 31 10  1  0
 31  5  1  0
 29 14  1  0
 24 19  1  0
 27 22  1  0
M  END
>  <Affinity>  (46) 
2.5

>  <Affinity Type>  (46) 
IC50

>  <Affinity Unit>  (46) 
nM

>  <Scaffold>  (46) 
[#6&R]1:&@[#6&R]:&@[#6&R]2:&@[#6&R](:&@[#6&R]:&@[#7&R]:&@1):&@[#7&R]:&@[#6&R]1:&@[#6&R]:&@2:&@[#6&R]:&@[#6&R]:&@[#6&R]:&@[#7&R]:&@1

$$$$
O14757_Sries37726_idx-in-all-actives-354
     RDKit          2D

 30 34  0  0  0  0  0  0  0  0999 V2000
    4.4095  -10.9053    0.0000 C   0  0  0  0  0  0  0  0  0  0  0  0
    3.0000  -10.3923    0.0000 C   0  0  0  0  0  0  0  0  0  0  0  0
    2.7395  -11.8695    0.0000 C   0  0  0  0  0  0  0  0  0  0  0  0
    1.5000  -10.3923    0.0000 C   0  0  0  0  0  0  0  0  0  0  0  0
    0.7500   -9.0933    0.0000 C   0  0  0  0  0  0  0  0  0  0  0  0
    1.5000   -7.7942    0.0000 C   0  0  0  0  0  0  0  0  0  0  0  0
    3.0000   -7.7942    0.0000 N   0  0  0  0  0  0  0  0  0  0  0  0
    3.7500   -6.4952    0.0000 C   0  0  0  0  0  0  0  0  0  0  0  0
    3.0000   -5.1962    0.0000 C   0  0  0  0  0  0  0  0  0  0  0  0
    3.7500   -3.8971    0.0000 C   0  0  0  0  0  0  0  0  0  0  0  0
    3.0000   -2.5981    0.0000 C   0  0  0  0  0  0  0  0  0  0  0  0
    1.5000   -2.5981    0.0000 C   0  0  0  0  0  0  0  0  0  0  0  0
    0.7500   -1.2990    0.0000 C   0  0  0  0  0  0  0  0  0  0  0  0
    1.5000    0.0000    0.0000 C   0  0  0  0  0  0  0  0  0  0  0  0
    0.7500    1.2990    0.0000 N   0  0  0  0  0  0  0  0  0  0  0  0
   -0.7500    1.2990    0.0000 C   0  0  0  0  0  0  0  0  0  0  0  0
   -1.7537    2.4138    0.0000 N   0  0  0  0  0  0  0  0  0  0  0  0
   -3.1240    1.8037    0.0000 C   0  0  0  0  0  0  0  0  0  0  0  0
   -4.4943    2.4138    0.0000 C   0  0  0  0  0  0  0  0  0  0  0  0
   -5.7079    1.5321    0.0000 N   0  0  0  0  0  0  0  0  0  0  0  0
   -5.5511    0.0403    0.0000 C   0  0  0  0  0  0  0  0  0  0  0  0
   -6.7646   -0.8414    0.0000 C   0  0  0  0  0  0  0  0  0  0  0  0
   -7.9781   -1.7231    0.0000 N   0  0  0  0  0  0  0  0  0  0  0  0
   -4.1807   -0.5698    0.0000 C   0  0  0  0  0  0  0  0  0  0  0  0
   -2.9672    0.3119    0.0000 C   0  0  0  0  0  0  0  0  0  0  0  0
   -1.5000    0.0000    0.0000 C   0  0  0  0  0  0  0  0  0  0  0  0
   -0.7500   -1.2990    0.0000 C   0  0  0  0  0  0  0  0  0  0  0  0
    0.7500   -3.8971    0.0000 C   0  0  0  0  0  0  0  0  0  0  0  0
    1.5000   -5.1962    0.0000 C   0  0  0  0  0  0  0  0  0  0  0  0
    3.7500   -9.0933    0.0000 C   0  0  0  0  0  0  0  0  0  0  0  0
  1  2  1  0
  2  3  1  0
  2  4  1  0
  4  5  1  0
  5  6  1  0
  6  7  1  0
  7  8  1  0
  8  9  1  0
  9 10  2  0
 10 11  1  0
 11 12  2  0
 12 13  1  0
 13 14  2  0
 14 15  1  0
 15 16  2  0
 16 17  1  0
 17 18  1  0
 18 19  2  0
 19 20  1  0
 20 21  2  0
 21 22  1  0
 22 23  3  0
 21 24  1  0
 24 25  2  0
 25 26  1  0
 26 27  2  0
 12 28  1  0
 28 29  2  0
  7 30  1  0
 30  2  1  0
 29  9  1  0
 27 13  1  0
 26 16  1  0
 25 18  1  0
M  END
>  <Affinity>  (47) 
9.4

>  <Affinity Type>  (47) 
IC50

>  <Affinity Unit>  (47) 
nM

>  <Scaffold>  (47) 
[#6&R]1:&@[#6&R]:&@[#6&R]2:&@[#6&R](:&@[#6&R]:&@[#7&R]:&@1):&@[#7&R]:&@[#6&R]1:&@[#6&R]:&@2:&@[#6&R]:&@[#6&R]:&@[#6&R]:&@[#7&R]:&@1

$$$$
O14757_Sries37726_idx-in-all-actives-371
     RDKit          2D

 18 20  0  0  0  0  0  0  0  0999 V2000
    5.2500   -1.2990    0.0000 C   0  0  0  0  0  0  0  0  0  0  0  0
    3.7500   -1.2990    0.0000 C   0  0  0  0  0  0  0  0  0  0  0  0
    3.0000    0.0000    0.0000 N   0  0  0  0  0  0  0  0  0  0  0  0
    1.5000    0.0000    0.0000 C   0  0  0  0  0  0  0  0  0  0  0  0
    0.7500   -1.2990    0.0000 C   0  0  0  0  0  0  0  0  0  0  0  0
   -0.7500   -1.2990    0.0000 N   0  0  0  0  0  0  0  0  0  0  0  0
   -1.5000    0.0000    0.0000 C   0  0  0  0  0  0  0  0  0  0  0  0
   -2.9672    0.3119    0.0000 N   0  0  0  0  0  0  0  0  0  0  0  0
   -3.1240    1.8037    0.0000 C   0  0  0  0  0  0  0  0  0  0  0  0
   -4.3375    2.6853    0.0000 C   0  0  0  0  0  0  0  0  0  0  0  0
   -4.1807    4.1771    0.0000 N   0  0  0  0  0  0  0  0  0  0  0  0
   -2.8104    4.7872    0.0000 C   0  0  0  0  0  0  0  0  0  0  0  0
   -2.6536    6.2790    0.0000 C   0  0  0  0  0  0  0  0  0  0  0  0
   -2.4968    7.7708    0.0000 N   0  0  0  0  0  0  0  0  0  0  0  0
   -1.5969    3.9055    0.0000 C   0  0  0  0  0  0  0  0  0  0  0  0
   -1.7537    2.4138    0.0000 C   0  0  0  0  0  0  0  0  0  0  0  0
   -0.7500    1.2990    0.0000 C   0  0  0  0  0  0  0  0  0  0  0  0
    0.7500    1.2990    0.0000 C   0  0  0  0  0  0  0  0  0  0  0  0
  1  2  1  0
  2  3  1  0
  3  4  1  0
  4  5  2  0
  5  6  1  0
  6  7  2  0
  7  8  1  0
  8  9  1  0
  9 10  2  0
 10 11  1  0
 11 12  2  0
 12 13  1  0
 13 14  3  0
 12 15  1  0
 15 16  2  0
 16 17  1  0
 17 18  2  0
 18  4  1  0
 17  7  1  0
 16  9  1  0
M  END
>  <Affinity>  (48) 
56.6

>  <Affinity Type>  (48) 
IC50

>  <Affinity Unit>  (48) 
nM

>  <Scaffold>  (48) 
[#6&R]1:&@[#6&R]:&@[#6&R]2:&@[#6&R](:&@[#6&R]:&@[#7&R]:&@1):&@[#7&R]:&@[#6&R]1:&@[#6&R]:&@2:&@[#6&R]:&@[#6&R]:&@[#6&R]:&@[#7&R]:&@1

$$$$
O14757_Sries37726_idx-in-all-actives-384
     RDKit          2D

 31 36  0  0  0  0  0  0  0  0999 V2000
    2.0046   -4.9721    0.0000 C   0  0  0  0  0  0  0  0  0  0  0  0
    3.3037   -4.2221    0.0000 N   0  0  0  0  0  0  0  0  0  0  0  0
    2.9918   -2.7549    0.0000 C   0  0  0  0  0  0  0  0  0  0  0  0
    1.5000   -2.5981    0.0000 C   0  0  0  0  0  0  0  0  0  0  0  0
    0.7500   -1.2990    0.0000 C   0  0  0  0  0  0  0  0  0  0  0  0
    1.5000    0.0000    0.0000 C   0  0  0  0  0  0  0  0  0  0  0  0
    0.7500    1.2990    0.0000 C   0  0  0  0  0  0  0  0  0  0  0  0
   -0.7500    1.2990    0.0000 C   0  0  0  0  0  0  0  0  0  0  0  0
   -1.5000    0.0000    0.0000 C   0  0  0  0  0  0  0  0  0  0  0  0
   -0.7500   -1.2990    0.0000 N   0  0  0  0  0  0  0  0  0  0  0  0
   -1.2135    2.7256    0.0000 N   0  0  0  0  0  0  0  0  0  0  0  0
   -0.0000    3.6073    0.0000 C   0  0  0  0  0  0  0  0  0  0  0  0
    0.1568    5.0991    0.0000 N   0  0  0  0  0  0  0  0  0  0  0  0
    1.5271    5.7092    0.0000 C   0  0  0  0  0  0  0  0  0  0  0  0
    2.7406    4.8275    0.0000 C   0  0  0  0  0  0  0  0  0  0  0  0
    4.1110    5.4376    0.0000 C   0  0  0  0  0  0  0  0  0  0  0  0
    5.3245    4.5559    0.0000 C   0  0  0  0  0  0  0  0  0  0  0  0
    6.6948    5.1660    0.0000 C   0  0  0  0  0  0  0  0  0  0  0  0
    6.8516    6.6578    0.0000 C   0  0  0  0  0  0  0  0  0  0  0  0
    8.2219    7.2679    0.0000 C   0  0  0  0  0  0  0  0  0  0  0  0
    9.4354    6.3863    0.0000 N   0  0  0  0  0  0  0  0  0  0  0  0
    9.2786    4.8945    0.0000 C   0  0  0  0  0  0  0  0  0  0  0  0
   10.4922    4.0128    0.0000 C   0  0  0  0  0  0  0  0  0  0  0  0
   11.8625    4.6229    0.0000 C   0  0  0  0  0  0  0  0  0  0  0  0
   12.0193    6.1147    0.0000 C   0  0  0  0  0  0  0  0  0  0  0  0
   10.8058    6.9964    0.0000 C   0  0  0  0  0  0  0  0  0  0  0  0
    5.6381    7.5395    0.0000 C   0  0  0  0  0  0  0  0  0  0  0  0
    4.2677    6.9294    0.0000 C   0  0  0  0  0  0  0  0  0  0  0  0
    2.5838    3.3357    0.0000 C   0  0  0  0  0  0  0  0  0  0  0  0
    1.2135    2.7256    0.0000 C   0  0  0  0  0  0  0  0  0  0  0  0
    0.8899   -3.9684    0.0000 S   0  0  0  0  0  0  0  0  0  0  0  0
  1  2  2  0
  2  3  1  0
  3  4  2  0
  4  5  1  0
  5  6  2  0
  6  7  1  0
  7  8  2  0
  8  9  1  0
  9 10  2  0
  8 11  1  0
 11 12  1  0
 12 13  2  0
 13 14  1  0
 14 15  2  0
 15 16  1  0
 16 17  2  0
 17 18  1  0
 18 19  2  0
 19 20  1  0
 20 21  1  0
 21 22  1  0
 22 23  1  0
 23 24  1  0
 24 25  1  0
 25 26  1  0
 19 27  1  0
 27 28  2  0
 15 29  1  0
 29 30  2  0
  4 31  1  0
 31  1  1  0
 10  5  1  0
 30 12  1  0
 30  7  1  0
 28 16  1  0
 26 21  1  0
M  END
>  <Affinity>  (49) 
1.3

>  <Affinity Type>  (49) 
IC50

>  <Affinity Unit>  (49) 
nM

>  <Scaffold>  (49) 
[#6&R]1:&@[#6&R]:&@[#6&R]2:&@[#6&R](:&@[#6&R]:&@[#7&R]:&@1):&@[#7&R]:&@[#6&R]1:&@[#6&R]:&@2:&@[#6&R]:&@[#6&R]:&@[#6&R]:&@[#7&R]:&@1

$$$$
O14757_Sries37726_idx-in-all-actives-397
     RDKit          2D

 28 32  0  0  0  0  0  0  0  0999 V2000
    4.5000    0.0000    0.0000 N   0  0  0  0  0  0  0  0  0  0  0  0
    3.0000    0.0000    0.0000 C   0  0  0  0  0  0  0  0  0  0  0  0
    1.5000    0.0000    0.0000 C   0  0  0  0  0  0  0  0  0  0  0  0
    0.7500   -1.2990    0.0000 C   0  0  0  0  0  0  0  0  0  0  0  0
   -0.7500   -1.2990    0.0000 C   0  0  0  0  0  0  0  0  0  0  0  0
   -1.5000    0.0000    0.0000 C   0  0  0  0  0  0  0  0  0  0  0  0
   -0.7500    1.2990    0.0000 C   0  0  0  0  0  0  0  0  0  0  0  0
    0.7500    1.2990    0.0000 N   0  0  0  0  0  0  0  0  0  0  0  0
   -2.9672   -0.3119    0.0000 N   0  0  0  0  0  0  0  0  0  0  0  0
   -3.1240   -1.8037    0.0000 C   0  0  0  0  0  0  0  0  0  0  0  0
   -4.3375   -2.6853    0.0000 N   0  0  0  0  0  0  0  0  0  0  0  0
   -4.1807   -4.1771    0.0000 C   0  0  0  0  0  0  0  0  0  0  0  0
   -2.8104   -4.7872    0.0000 C   0  0  0  0  0  0  0  0  0  0  0  0
   -2.6536   -6.2790    0.0000 C   0  0  0  0  0  0  0  0  0  0  0  0
   -3.8672   -7.1607    0.0000 C   0  0  0  0  0  0  0  0  0  0  0  0
   -3.7104   -8.6525    0.0000 C   0  0  0  0  0  0  0  0  0  0  0  0
   -2.3401   -9.2626    0.0000 C   0  0  0  0  0  0  0  0  0  0  0  0
   -2.1833  -10.7543    0.0000 C   0  0  0  0  0  0  0  0  0  0  0  0
   -3.3968  -11.6360    0.0000 N   0  0  0  0  0  0  0  0  0  0  0  0
   -4.7671  -11.0259    0.0000 C   0  0  0  0  0  0  0  0  0  0  0  0
   -5.9806  -11.9076    0.0000 C   0  0  0  0  0  0  0  0  0  0  0  0
   -5.8238  -13.3994    0.0000 O   0  0  0  0  0  0  0  0  0  0  0  0
   -4.4535  -14.0095    0.0000 C   0  0  0  0  0  0  0  0  0  0  0  0
   -3.2400  -13.1278    0.0000 C   0  0  0  0  0  0  0  0  0  0  0  0
   -1.1265   -8.3809    0.0000 C   0  0  0  0  0  0  0  0  0  0  0  0
   -1.2833   -6.8891    0.0000 C   0  0  0  0  0  0  0  0  0  0  0  0
   -1.5969   -3.9055    0.0000 C   0  0  0  0  0  0  0  0  0  0  0  0
   -1.7537   -2.4138    0.0000 C   0  0  0  0  0  0  0  0  0  0  0  0
  1  2  3  0
  2  3  1  0
  3  4  2  0
  4  5  1  0
  5  6  2  0
  6  7  1  0
  7  8  2  0
  6  9  1  0
  9 10  1  0
 10 11  2  0
 11 12  1  0
 12 13  2  0
 13 14  1  0
 14 15  2  0
 15 16  1  0
 16 17  2  0
 17 18  1  0
 18 19  1  0
 19 20  1  0
 20 21  1  0
 21 22  1  0
 22 23  1  0
 23 24  1  0
 17 25  1  0
 25 26  2  0
 13 27  1  0
 27 28  2  0
  8  3  1  0
 28 10  1  0
 28  5  1  0
 26 14  1  0
 24 19  1  0
M  END
>  <Affinity>  (50) 
13.9

>  <Affinity Type>  (50) 
IC50

>  <Affinity Unit>  (50) 
nM

>  <Scaffold>  (50) 
[#6&R]1:&@[#6&R]:&@[#6&R]2:&@[#6&R](:&@[#6&R]:&@[#7&R]:&@1):&@[#7&R]:&@[#6&R]1:&@[#6&R]:&@2:&@[#6&R]:&@[#6&R]:&@[#6&R]:&@[#7&R]:&@1

$$$$
