O14757_Sries17243_idx-in-all-actives-578
     RDKit          3D

 52 54  0  0  0  0  0  0  0  0999 V2000
    7.3001   -7.9228   51.3676 C   0  0  0  0  0  0  0  0  0  0  0  0
    7.8436   -7.0556   50.2403 C   0  0  0  0  0  0  0  0  0  0  0  0
    8.8584   -7.4101   49.6394 O   0  0  0  0  0  0  0  0  0  0  0  0
    7.1438   -5.9378   49.9660 N   0  0  0  0  0  0  0  0  0  0  0  0
    7.4585   -5.0143   48.9585 C   0  0  0  0  0  0  0  0  0  0  0  0
    8.7405   -4.4640   48.8466 C   0  0  0  0  0  0  0  0  0  0  0  0
    9.0211   -3.5532   47.8326 C   0  0  0  0  0  0  0  0  0  0  0  0
    8.0286   -3.1941   46.9224 C   0  0  0  0  0  0  0  0  0  0  0  0
    6.7348   -3.7302   47.0186 C   0  0  0  0  0  0  0  0  0  0  0  0
    5.6615   -3.3900   46.0234 C   0  0  0  0  0  0  0  0  0  0  0  0
    4.4620   -4.0517   45.7686 C   0  0  0  0  0  0  0  0  0  0  0  0
    3.6558   -3.4794   44.7556 C   0  0  0  0  0  0  0  0  0  0  0  0
    2.3381   -3.9621   44.3669 C   0  0  0  0  0  0  0  0  0  0  0  0
    1.6568   -3.3810   43.5192 O   0  0  0  0  0  0  0  0  0  0  0  0
    1.9077   -5.0475   45.0302 N   0  0  0  0  0  0  0  0  0  0  0  0
    0.5533   -5.5892   44.9809 C   0  0  1  0  0  0  0  0  0  0  0  0
    0.4569   -6.9731   44.3068 C   0  0  0  0  0  0  0  0  0  0  0  0
   -0.9731   -7.5526   44.3691 C   0  0  0  0  0  0  0  0  0  0  0  0
   -1.5464   -7.5721   45.7957 C   0  0  0  0  0  0  0  0  0  0  0  0
   -1.4919   -6.1450   46.3661 N   0  0  0  0  0  0  0  0  0  0  0  0
   -0.0705   -5.5662   46.3867 C   0  0  0  0  0  0  0  0  0  0  0  0
    4.2733   -2.3482   44.1974 C   0  0  0  0  0  0  0  0  0  0  0  0
    3.7395   -1.5714   43.1661 N   0  0  0  0  0  0  0  0  0  0  0  0
    4.1077   -0.3480   42.7662 C   0  0  0  0  0  0  0  0  0  0  0  0
    3.1715    0.2270   42.0155 N   0  0  0  0  0  0  0  0  0  0  0  0
    5.1459    0.2272   43.0621 O   0  0  0  0  0  0  0  0  0  0  0  0
    5.7970   -1.9998   44.9872 S   0  0  0  0  0  0  0  0  0  0  0  0
    6.4595   -4.6303   48.0599 C   0  0  0  0  0  0  0  0  0  0  0  0
    6.2721   -8.2249   51.1594 H   0  0  0  0  0  0  0  0  0  0  0  0
    7.3088   -7.3730   52.3104 H   0  0  0  0  0  0  0  0  0  0  0  0
    7.9050   -8.8223   51.4912 H   0  0  0  0  0  0  0  0  0  0  0  0
    6.3305   -5.7499   50.5431 H   0  0  0  0  0  0  0  0  0  0  0  0
    9.5189   -4.7466   49.5402 H   0  0  0  0  0  0  0  0  0  0  0  0
   10.0116   -3.1326   47.7457 H   0  0  0  0  0  0  0  0  0  0  0  0
    8.2859   -2.5032   46.1340 H   0  0  0  0  0  0  0  0  0  0  0  0
    4.1825   -4.9376   46.3198 H   0  0  0  0  0  0  0  0  0  0  0  0
    2.4994   -5.4170   45.7602 H   0  0  0  0  0  0  0  0  0  0  0  0
   -0.0784   -4.9212   44.3831 H   0  0  0  0  0  0  0  0  0  0  0  0
    0.7804   -6.9093   43.2669 H   0  0  0  0  0  0  0  0  0  0  0  0
    1.1385   -7.6644   44.8043 H   0  0  0  0  0  0  0  0  0  0  0  0
   -1.6308   -6.9729   43.7192 H   0  0  0  0  0  0  0  0  0  0  0  0
   -0.9815   -8.5658   43.9664 H   0  0  0  0  0  0  0  0  0  0  0  0
   -2.5946   -7.8728   45.8225 H   0  0  0  0  0  0  0  0  0  0  0  0
   -0.9726   -8.2031   46.4774 H   0  0  0  0  0  0  0  0  0  0  0  0
   -2.0661   -5.5287   45.7936 H   0  0  0  0  0  0  0  0  0  0  0  0
    0.4922   -6.1538   47.1163 H   0  0  0  0  0  0  0  0  0  0  0  0
   -0.1711   -4.5478   46.7661 H   0  0  0  0  0  0  0  0  0  0  0  0
    2.8636   -1.9223   42.8066 H   0  0  0  0  0  0  0  0  0  0  0  0
    2.2957   -0.2400   41.8410 H   0  0  0  0  0  0  0  0  0  0  0  0
    3.3075    1.1726   41.6757 H   0  0  0  0  0  0  0  0  0  0  0  0
    5.4740   -5.0628   48.1613 H   0  0  0  0  0  0  0  0  0  0  0  0
   -1.9076   -6.1065   47.2892 H   0  0  0  0  0  0  0  0  0  0  0  0
  1  2  1  0
  1 29  1  0
  1 30  1  0
  1 31  1  0
  2  3  2  0
  2  4  1  0
  4  5  1  0
  4 32  1  0
  5  6  2  0
  5 28  1  0
  6  7  1  0
  6 33  1  0
  7  8  2  0
  7 34  1  0
  8  9  1  0
  8 35  1  0
  9 10  1  0
  9 28  2  0
 10 11  2  0
 10 27  1  0
 11 12  1  0
 11 36  1  0
 12 13  1  0
 12 22  2  0
 13 14  2  0
 13 15  1  0
 15 16  1  0
 15 37  1  0
 16 17  1  0
 16 21  1  0
 16 38  1  6
 17 18  1  0
 17 39  1  0
 17 40  1  0
 18 19  1  0
 18 41  1  0
 18 42  1  0
 19 20  1  0
 19 43  1  0
 19 44  1  0
 20 21  1  0
 20 45  1  0
 20 52  1  0
 21 46  1  0
 21 47  1  0
 22 23  1  0
 22 27  1  0
 23 24  1  0
 23 48  1  0
 24 25  1  0
 24 26  2  0
 25 49  1  0
 25 50  1  0
 28 51  1  0
M  CHG  1  20   1
M  END
>  <s_epik_cmdline>  (1) 
J2VwaWtfcHl0aG9uJywgJy1waHQnLCAnMi4wJywgJy1waCcsICc3LjAnLCAnLXRuJywgJzgnLCAnLW1hJywgJzUwMCcsICctaW1hZScsICc8aW5maWxlLm1hZT4nLCAnLW9tYWUnLCAnPG91dGZpbGUubWFlPic=

>  <s_epik_input>  (1) 
W0NIM11DKD1PKVtOSF1jMVtjSF1bY0hdW2NIXWMoW2NIXTEpLWMyW2NIXWMoYyhzMilbTkhdQyg9TylbTkgyXSlDKD1PKVtOSF1bQ0BIXTNbQ0gyXVtDSDJdW0NIMl1bTkhdW0NIMl0z

>  <s_i_glide_gridfile>  (1) 
O14757_Sries28506_Sries28506_grid

>  <s_lp_Force_Field>  (1) 
S-OPLS

>  <s_lp_Variant>  (1) 
O14757_Sries17243_idx-in-all-actives-578-1

>  <s_m_source_file>  (1) 
/home/fanzhehuan/myprojects/selfGenBench/Smiles_min_50_max_inf_Scaffold_50_Serise_20_pocket/O14757/O14757_all_active_molecules_new_20241120.sdf

>  <s_sd_Affinity_Type>  (1) 
IC50

>  <s_sd_Affinity_Unit>  (1) 
nM

>  <r_epik_Charging_Adjusted_Penalty>  (1) 
0.00028710600000000003

>  <r_epik_Ionization_Penalty>  (1) 
0.00029999999999999997

>  <r_epik_Ionization_Penalty_Charging>  (1) 
0.00029999999999999997

>  <r_epik_Ionization_Penalty_Neutral>  (1) 
0

>  <r_epik_State_Penalty>  (1) 
-0

>  <r_glide_res:A128_Eint>  (1) 
0.74358404674995204

>  <r_glide_res:A128_coul>  (1) 
0.78827055365491605

>  <r_glide_res:A128_dist>  (1) 
6.7055815290579099

>  <r_glide_res:A128_hbond>  (1) 
0

>  <r_glide_res:A128_vdw>  (1) 
-0.044686506904963903

>  <r_glide_res:A130_Eint>  (1) 
-21.466474930932101

>  <r_glide_res:A130_coul>  (1) 
-21.3863840493458

>  <r_glide_res:A130_dist>  (1) 
5.9238073718236501

>  <r_glide_res:A130_hbond>  (1) 
0

>  <r_glide_res:A130_vdw>  (1) 
-0.080090881586261695

>  <r_glide_res:A132_Eint>  (1) 
21.455531526995198

>  <r_glide_res:A132_coul>  (1) 
21.627675964881

>  <r_glide_res:A132_dist>  (1) 
4.5957056243477501

>  <r_glide_res:A132_hbond>  (1) 
0

>  <r_glide_res:A132_vdw>  (1) 
-0.172144437885872

>  <r_glide_res:A133_Eint>  (1) 
-0.422646673616345

>  <r_glide_res:A133_coul>  (1) 
-0.29917886672182997

>  <r_glide_res:A133_dist>  (1) 
6.1279166604981397

>  <r_glide_res:A133_hbond>  (1) 
0

>  <r_glide_res:A133_vdw>  (1) 
-0.123467806894515

>  <r_glide_res:A134_Eint>  (1) 
-24.842928544956301

>  <r_glide_res:A134_coul>  (1) 
-23.505621833469199

>  <r_glide_res:A134_dist>  (1) 
2.4013164938965201

>  <r_glide_res:A134_hbond>  (1) 
0

>  <r_glide_res:A134_vdw>  (1) 
-1.33730671148712

>  <r_glide_res:A135_Eint>  (1) 
-9.0327278972903908

>  <r_glide_res:A135_coul>  (1) 
-8.4798891855999408

>  <r_glide_res:A135_dist>  (1) 
2.2955174134915

>  <r_glide_res:A135_hbond>  (1) 
0

>  <r_glide_res:A135_vdw>  (1) 
-0.55283871169044496

>  <r_glide_res:A136_Eint>  (1) 
-0.93082186914675102

>  <r_glide_res:A136_coul>  (1) 
-0.683302150241202

>  <r_glide_res:A136_dist>  (1) 
5.0709497991371801

>  <r_glide_res:A136_hbond>  (1) 
0

>  <r_glide_res:A136_vdw>  (1) 
-0.247519718905549

>  <r_glide_res:A137_Eint>  (1) 
-4.4271282093368098

>  <r_glide_res:A137_coul>  (1) 
0.0032399131451170699

>  <r_glide_res:A137_dist>  (1) 
2.6996130971938501

>  <r_glide_res:A137_hbond>  (1) 
0

>  <r_glide_res:A137_vdw>  (1) 
-4.43036812248193

>  <r_glide_res:A138_Eint>  (1) 
-0.36111717777334101

>  <r_glide_res:A138_coul>  (1) 
-0.103345291587497

>  <r_glide_res:A138_dist>  (1) 
6.3825890845127002

>  <r_glide_res:A138_hbond>  (1) 
0

>  <r_glide_res:A138_vdw>  (1) 
-0.25777188618584401

>  <r_glide_res:A139_Eint>  (1) 
-8.5379511654227205

>  <r_glide_res:A139_coul>  (1) 
-8.4409509328986108

>  <r_glide_res:A139_dist>  (1) 
6.59699921349078

>  <r_glide_res:A139_hbond>  (1) 
0

>  <r_glide_res:A139_vdw>  (1) 
-0.097000232524108804

>  <r_glide_res:A13_Eint>  (1) 
0.13754145757367101

>  <r_glide_res:A13_coul>  (1) 
0.30798822184042002

>  <r_glide_res:A13_dist>  (1) 
5.2718240925302

>  <r_glide_res:A13_hbond>  (1) 
0

>  <r_glide_res:A13_vdw>  (1) 
-0.17044676426675001

>  <r_glide_res:A144_Eint>  (1) 
0.43150420445558202

>  <r_glide_res:A144_coul>  (1) 
0.46586390724447002

>  <r_glide_res:A144_dist>  (1) 
10.073488198088601

>  <r_glide_res:A144_hbond>  (1) 
0

>  <r_glide_res:A144_vdw>  (1) 
-0.034359702788887898

>  <r_glide_res:A145_Eint>  (1) 
8.2403196161966896

>  <r_glide_res:A145_coul>  (1) 
8.3562300814412005

>  <r_glide_res:A145_dist>  (1) 
6.6712679209665202

>  <r_glide_res:A145_hbond>  (1) 
0

>  <r_glide_res:A145_vdw>  (1) 
-0.11591046524451

>  <r_glide_res:A146_Eint>  (1) 
0.432335119558448

>  <r_glide_res:A146_coul>  (1) 
0.50715318822931599

>  <r_glide_res:A146_dist>  (1) 
7.9987286456322497

>  <r_glide_res:A146_hbond>  (1) 
0

>  <r_glide_res:A146_vdw>  (1) 
-0.074818068670868099

>  <r_glide_res:A147_Eint>  (1) 
0.61044159801155395

>  <r_glide_res:A147_coul>  (1) 
1.5178983161969599

>  <r_glide_res:A147_dist>  (1) 
3.5409511338055801

>  <r_glide_res:A147_hbond>  (1) 
0

>  <r_glide_res:A147_vdw>  (1) 
-0.90745671818540097

>  <r_glide_res:A148_Eint>  (1) 
-46.357352059833502

>  <r_glide_res:A148_coul>  (1) 
-43.530909766773902

>  <r_glide_res:A148_dist>  (1) 
2.0942957713827401

>  <r_glide_res:A148_hbond>  (1) 
-0.20000000000000001

>  <r_glide_res:A148_vdw>  (1) 
-2.6264422930596201

>  <r_glide_res:A149_Eint>  (1) 
0.187868802730948

>  <r_glide_res:A149_coul>  (1) 
0.25525276493935301

>  <r_glide_res:A149_dist>  (1) 
7.2382028602842201

>  <r_glide_res:A149_hbond>  (1) 
0

>  <r_glide_res:A149_vdw>  (1) 
-0.067383962208405396

>  <r_glide_res:A14_Eint>  (1) 
0.30957192788635002

>  <r_glide_res:A14_coul>  (1) 
0.57930997393815697

>  <r_glide_res:A14_dist>  (1) 
6.5485519030496402

>  <r_glide_res:A14_hbond>  (1) 
0

>  <r_glide_res:A14_vdw>  (1) 
-0.26973804605180801

>  <r_glide_res:A150_Eint>  (1) 
0.97324878377798196

>  <r_glide_res:A150_coul>  (1) 
0.99588580671593296

>  <r_glide_res:A150_dist>  (1) 
7.1673198050100302

>  <r_glide_res:A150_hbond>  (1) 
0

>  <r_glide_res:A150_vdw>  (1) 
-0.022637022937950699

>  <r_glide_res:A15_Eint>  (1) 
-6.40523129471147

>  <r_glide_res:A15_coul>  (1) 
-0.29174623257535198

>  <r_glide_res:A15_dist>  (1) 
2.47135348965285

>  <r_glide_res:A15_hbond>  (1) 
0

>  <r_glide_res:A15_vdw>  (1) 
-6.1134850621361201

>  <r_glide_res:A16_Eint>  (1) 
0.21132068264270701

>  <r_glide_res:A16_coul>  (1) 
1.20456683349486

>  <r_glide_res:A16_dist>  (1) 
3.6635546413267801

>  <r_glide_res:A16_hbond>  (1) 
0

>  <r_glide_res:A16_vdw>  (1) 
-0.99324615085215295

>  <r_glide_res:A17_Eint>  (1) 
-12.124193658554599

>  <r_glide_res:A17_coul>  (1) 
-11.8107023909576

>  <r_glide_res:A17_dist>  (1) 
5.0132907629469496

>  <r_glide_res:A17_hbond>  (1) 
0

>  <r_glide_res:A17_vdw>  (1) 
-0.31349126759705198

>  <r_glide_res:A18_Eint>  (1) 
0.19625824470403799

>  <r_glide_res:A18_coul>  (1) 
0.29369848896093098

>  <r_glide_res:A18_dist>  (1) 
5.2238007308328198

>  <r_glide_res:A18_hbond>  (1) 
0

>  <r_glide_res:A18_vdw>  (1) 
-0.0974402442568921

>  <r_glide_res:A19_Eint>  (1) 
0.476667084562302

>  <r_glide_res:A19_coul>  (1) 
0.51536500969409904

>  <r_glide_res:A19_dist>  (1) 
6.8005431152049098

>  <r_glide_res:A19_hbond>  (1) 
0

>  <r_glide_res:A19_vdw>  (1) 
-0.038697925131796797

>  <r_glide_res:A20_Eint>  (1) 
-2.1818151462836202

>  <r_glide_res:A20_coul>  (1) 
0.31006492576285

>  <r_glide_res:A20_dist>  (1) 
2.5424196742814398

>  <r_glide_res:A20_hbond>  (1) 
0

>  <r_glide_res:A20_vdw>  (1) 
-2.4918800720464702

>  <r_glide_res:A21_Eint>  (1) 
-0.47214182579064401

>  <r_glide_res:A21_coul>  (1) 
-0.385991363807969

>  <r_glide_res:A21_dist>  (1) 
5.9968042489280302

>  <r_glide_res:A21_hbond>  (1) 
0

>  <r_glide_res:A21_vdw>  (1) 
-0.0861504619826748

>  <r_glide_res:A22_Eint>  (1) 
-10.7417330321226

>  <r_glide_res:A22_coul>  (1) 
-10.4961881649731

>  <r_glide_res:A22_dist>  (1) 
5.2654814091001896

>  <r_glide_res:A22_hbond>  (1) 
0

>  <r_glide_res:A22_vdw>  (1) 
-0.24554486714946

>  <r_glide_res:A23_Eint>  (1) 
-3.8157710245021801

>  <r_glide_res:A23_coul>  (1) 
-0.038351323593127901

>  <r_glide_res:A23_dist>  (1) 
2.3219638427466398

>  <r_glide_res:A23_hbond>  (1) 
0

>  <r_glide_res:A23_vdw>  (1) 
-3.77741970090905

>  <r_glide_res:A24_Eint>  (1) 
-0.24746584619899201

>  <r_glide_res:A24_coul>  (1) 
0.0152975076522657

>  <r_glide_res:A24_dist>  (1) 
6.7177997151127498

>  <r_glide_res:A24_hbond>  (1) 
0

>  <r_glide_res:A24_vdw>  (1) 
-0.26276335385125799

>  <r_glide_res:A25_Eint>  (1) 
-0.352642917415667

>  <r_glide_res:A25_coul>  (1) 
-0.090573351360168294

>  <r_glide_res:A25_dist>  (1) 
5.7485102196775797

>  <r_glide_res:A25_hbond>  (1) 
0

>  <r_glide_res:A25_vdw>  (1) 
-0.26206956605549903

>  <r_glide_res:A26_Eint>  (1) 
-0.072035948155934296

>  <r_glide_res:A26_coul>  (1) 
-0.034629725614185501

>  <r_glide_res:A26_dist>  (1) 
7.8260871827090002

>  <r_glide_res:A26_hbond>  (1) 
0

>  <r_glide_res:A26_vdw>  (1) 
-0.037406222541748801

>  <r_glide_res:A35_Eint>  (1) 
0.041952646264713199

>  <r_glide_res:A35_coul>  (1) 
0.20208400811549501

>  <r_glide_res:A35_dist>  (1) 
5.9189154997225497

>  <r_glide_res:A35_hbond>  (1) 
0

>  <r_glide_res:A35_vdw>  (1) 
-0.160131361850782

>  <r_glide_res:A36_Eint>  (1) 
-0.470297416621347

>  <r_glide_res:A36_coul>  (1) 
0.320644077088861

>  <r_glide_res:A36_dist>  (1) 
2.69594427474809

>  <r_glide_res:A36_hbond>  (1) 
0

>  <r_glide_res:A36_vdw>  (1) 
-0.79094149371020905

>  <r_glide_res:A37_Eint>  (1) 
-0.23206849117836401

>  <r_glide_res:A37_coul>  (1) 
-0.038006769482909

>  <r_glide_res:A37_dist>  (1) 
6.2110432080543498

>  <r_glide_res:A37_hbond>  (1) 
0

>  <r_glide_res:A37_vdw>  (1) 
-0.19406172169545499

>  <r_glide_res:A38_Eint>  (1) 
24.008824273927502

>  <r_glide_res:A38_coul>  (1) 
24.704893714893899

>  <r_glide_res:A38_dist>  (1) 
3.4964575229846702

>  <r_glide_res:A38_hbond>  (1) 
0

>  <r_glide_res:A38_vdw>  (1) 
-0.69606944096641998

>  <r_glide_res:A39_Eint>  (1) 
-0.64310416781911905

>  <r_glide_res:A39_coul>  (1) 
-0.58456327874539005

>  <r_glide_res:A39_dist>  (1) 
7.1427251385797597

>  <r_glide_res:A39_hbond>  (1) 
0

>  <r_glide_res:A39_vdw>  (1) 
-0.058540889073729299

>  <r_glide_res:A40_Eint>  (1) 
0.157761039506435

>  <r_glide_res:A40_coul>  (1) 
0.19357495485907

>  <r_glide_res:A40_dist>  (1) 
7.1191125498183503

>  <r_glide_res:A40_hbond>  (1) 
0

>  <r_glide_res:A40_vdw>  (1) 
-0.035813915352634999

>  <r_glide_res:A55_Eint>  (1) 
-17.0594714179222

>  <r_glide_res:A55_coul>  (1) 
-17.002120864337599

>  <r_glide_res:A55_dist>  (1) 
6.7267751637970896

>  <r_glide_res:A55_hbond>  (1) 
0

>  <r_glide_res:A55_vdw>  (1) 
-0.057350553584573499

>  <r_glide_res:A59_Eint>  (1) 
-0.112141677487382

>  <r_glide_res:A59_coul>  (1) 
-0.090631062141632898

>  <r_glide_res:A59_dist>  (1) 
8.2701367306257101

>  <r_glide_res:A59_hbond>  (1) 
0

>  <r_glide_res:A59_vdw>  (1) 
-0.021510615345749301

>  <r_glide_res:A68_Eint>  (1) 
-0.27251979685408501

>  <r_glide_res:A68_coul>  (1) 
0.30062190796365501

>  <r_glide_res:A68_dist>  (1) 
3.1188297152083

>  <r_glide_res:A68_hbond>  (1) 
0

>  <r_glide_res:A68_vdw>  (1) 
-0.57314170481773996

>  <r_glide_res:A69_Eint>  (1) 
6.7416945255155696

>  <r_glide_res:A69_coul>  (1) 
6.7939153823796197

>  <r_glide_res:A69_dist>  (1) 
6.5808670856163696

>  <r_glide_res:A69_hbond>  (1) 
0

>  <r_glide_res:A69_vdw>  (1) 
-0.052220856864051098

>  <r_glide_res:A82_Eint>  (1) 
-0.231378676794215

>  <r_glide_res:A82_coul>  (1) 
-0.17377531440491401

>  <r_glide_res:A82_dist>  (1) 
7.4648243414711102

>  <r_glide_res:A82_hbond>  (1) 
0

>  <r_glide_res:A82_vdw>  (1) 
-0.057603362389300902

>  <r_glide_res:A83_Eint>  (1) 
-0.052804747933847901

>  <r_glide_res:A83_coul>  (1) 
-0.0038704523973041001

>  <r_glide_res:A83_dist>  (1) 
7.5253063373085904

>  <r_glide_res:A83_hbond>  (1) 
0

>  <r_glide_res:A83_vdw>  (1) 
-0.048934295536543798

>  <r_glide_res:A84_Eint>  (1) 
0.065836867397084095

>  <r_glide_res:A84_coul>  (1) 
0.69010293196997596

>  <r_glide_res:A84_dist>  (1) 
3.6482269984250801

>  <r_glide_res:A84_hbond>  (1) 
0

>  <r_glide_res:A84_vdw>  (1) 
-0.62426606457289202

>  <r_glide_res:A85_Eint>  (1) 
-12.8686815573642

>  <r_glide_res:A85_coul>  (1) 
-11.8483297498039

>  <r_glide_res:A85_dist>  (1) 
2.0190087089577502

>  <r_glide_res:A85_hbond>  (1) 
-0.29246174276758802

>  <r_glide_res:A85_vdw>  (1) 
-0.72789006479265494

>  <r_glide_res:A86_Eint>  (1) 
-3.9710986609454202

>  <r_glide_res:A86_coul>  (1) 
-1.2427468498090199

>  <r_glide_res:A86_dist>  (1) 
2.5000044314937502

>  <r_glide_res:A86_hbond>  (1) 
0

>  <r_glide_res:A86_vdw>  (1) 
-2.7283518111363998

>  <r_glide_res:A87_Eint>  (1) 
-5.3875833806994704

>  <r_glide_res:A87_coul>  (1) 
-2.2681521992770199

>  <r_glide_res:A87_dist>  (1) 
1.9094552090330601

>  <r_glide_res:A87_hbond>  (1) 
-0.29246174276758802

>  <r_glide_res:A87_vdw>  (1) 
-2.8269694386548698

>  <r_glide_res:A88_Eint>  (1) 
-0.72770373150675405

>  <r_glide_res:A88_coul>  (1) 
-0.091061290181655402

>  <r_glide_res:A88_dist>  (1) 
4.6028490409192102

>  <r_glide_res:A88_hbond>  (1) 
0

>  <r_glide_res:A88_vdw>  (1) 
-0.63664244132509895

>  <r_glide_res:A89_Eint>  (1) 
-0.671223434464571

>  <r_glide_res:A89_coul>  (1) 
-0.242401937741828

>  <r_glide_res:A89_dist>  (1) 
5.66460541761026

>  <r_glide_res:A89_hbond>  (1) 
0

>  <r_glide_res:A89_vdw>  (1) 
-0.428821496722744

>  <r_glide_res:A90_Eint>  (1) 
-1.9188264843373299

>  <r_glide_res:A90_coul>  (1) 
0.59346623526612896

>  <r_glide_res:A90_dist>  (1) 
3.0631163696072701

>  <r_glide_res:A90_hbond>  (1) 
0

>  <r_glide_res:A90_vdw>  (1) 
-2.5122927196034599

>  <r_glide_res:A91_Eint>  (1) 
-41.345806722152403

>  <r_glide_res:A91_coul>  (1) 
-36.591518456402497

>  <r_glide_res:A91_dist>  (1) 
2.4222196134076501

>  <r_glide_res:A91_hbond>  (1) 
0

>  <r_glide_res:A91_vdw>  (1) 
-4.7542882657499703

>  <r_glide_res:A92_Eint>  (1) 
0.51569640834007102

>  <r_glide_res:A92_coul>  (1) 
0.64540440392770704

>  <r_glide_res:A92_dist>  (1) 
6.7618070941221697

>  <r_glide_res:A92_hbond>  (1) 
0

>  <r_glide_res:A92_vdw>  (1) 
-0.12970799558763599

>  <r_glide_res:A93_Eint>  (1) 
1.3277870371299301

>  <r_glide_res:A93_coul>  (1) 
1.64107499598463

>  <r_glide_res:A93_dist>  (1) 
4.4561523670060801

>  <r_glide_res:A93_hbond>  (1) 
0

>  <r_glide_res:A93_vdw>  (1) 
-0.31328795885469801

>  <r_glide_res:A94_Eint>  (1) 
-27.198662273188301

>  <r_glide_res:A94_coul>  (1) 
-25.475326825459799

>  <r_glide_res:A94_dist>  (1) 
2.1228476537279302

>  <r_glide_res:A94_hbond>  (1) 
-0.105453088084119

>  <r_glide_res:A94_vdw>  (1) 
-1.6178823596443399

>  <r_glide_res:A95_Eint>  (1) 
11.044965187269799

>  <r_glide_res:A95_coul>  (1) 
11.1480312421301

>  <r_glide_res:A95_dist>  (1) 
7.4358709971683998

>  <r_glide_res:A95_hbond>  (1) 
0

>  <r_glide_res:A95_vdw>  (1) 
-0.10306605486027801

>  <r_i_docking_score>  (1) 
-6.97267890442496

>  <r_i_glide_ecoul>  (1) 
-17.662401199340799

>  <r_i_glide_eff_state_penalty>  (1) 
-0

>  <r_i_glide_einternal>  (1) 
8.0709133148193395

>  <r_i_glide_emodel>  (1) 
-93.081622810042106

>  <r_i_glide_energy>  (1) 
-61.645654678344698

>  <r_i_glide_erotb>  (1) 
0.72682822710096495

>  <r_i_glide_esite>  (1) 
-0.246182163826248

>  <r_i_glide_evdw>  (1) 
-43.983253479003899

>  <r_i_glide_gscore>  (1) 
-6.97267890442496

>  <r_i_glide_hbond>  (1) 
-0.89037657361929601

>  <r_i_glide_ligand_efficiency>  (1) 
-0.24902424658660599

>  <r_i_glide_ligand_efficiency_ln>  (1) 
-1.6094990178898501

>  <r_i_glide_ligand_efficiency_sa>  (1) 
-0.75618428007461203

>  <r_i_glide_lipo>  (1) 
-1.04215266640583

>  <r_i_glide_metal>  (1) 
-0

>  <r_i_glide_rewards>  (1) 
-0.67227287382323597

>  <r_lp_Energy>  (1) 
36.3125

>  <r_lp_tautomer_probability>  (1) 
1

>  <i_epik_Tot_Q>  (1) 
1

>  <i_epik_Tot_abs_Q>  (1) 
1

>  <i_i_glide_confnum>  (1) 
87

>  <i_i_glide_lignum>  (1) 
813

>  <i_i_glide_posenum>  (1) 
371

>  <i_i_glide_rotatable_bonds>  (1) 
8

>  <i_lp_mmshare_version>  (1) 
54117

>  <i_m_ct_enhanced_stereo_status>  (1) 
0

>  <i_m_ct_format>  (1) 
2

>  <i_m_source_file_index>  (1) 
579

>  <i_sd_Affinity>  (1) 
8

>  <i_sd_i\_f3d\_flags>  (1) 
0

>  <i_sd_version>  (1) 
0

>  <b_lp_Chiralities_Consistent>  (1) 
1

>  <b_sd_chiral_flag>  (1) 
1

$$$$
