O14757_Sries15811_idx-in-all-actives-1181
     RDKit          3D

 50 54  0  0  0  0  0  0  0  0999 V2000
    4.7572   -0.0795   42.7969 C   0  0  0  0  0  0  0  0  0  0  0  0
    5.5682   -0.7769   43.7343 O   0  0  0  0  0  0  0  0  0  0  0  0
    5.0558   -1.9273   44.3068 C   0  0  0  0  0  0  0  0  0  0  0  0
    3.7898   -2.4248   43.9707 C   0  0  0  0  0  0  0  0  0  0  0  0
    3.2971   -3.5490   44.5994 C   0  0  0  0  0  0  0  0  0  0  0  0
    4.0412   -4.2327   45.5549 C   0  0  0  0  0  0  0  0  0  0  0  0
    5.3076   -3.7528   45.8950 C   0  0  0  0  0  0  0  0  0  0  0  0
    5.8288   -2.5999   45.2715 C   0  0  0  0  0  0  0  0  0  0  0  0
    7.0835   -2.0773   45.5338 O   0  0  0  0  0  0  0  0  0  0  0  0
    7.8558   -2.4992   46.6559 C   0  0  0  0  0  0  0  0  0  0  0  0
    8.6273   -3.8230   46.4541 C   0  0  0  0  0  0  0  0  0  0  0  0
    9.5222   -4.0878   47.6811 C   0  0  0  0  0  0  0  0  0  0  0  0
   10.3991   -2.9787   47.8865 O   0  0  0  0  0  0  0  0  0  0  0  0
    9.7342   -1.7451   48.1601 C   0  0  0  0  0  0  0  0  0  0  0  0
    8.8525   -1.3676   46.9567 C   0  0  0  0  0  0  0  0  0  0  0  0
    3.2649   -5.4296   46.0884 C   0  0  0  0  0  0  0  0  0  0  0  0
    1.9501   -5.2980   45.3533 C   0  0  0  0  0  0  0  0  0  0  0  0
    2.0101   -4.2201   44.4921 C   0  0  0  0  0  0  0  0  0  0  0  0
    0.9065   -4.0282   43.8237 N   0  0  0  0  0  0  0  0  0  0  0  0
    0.1081   -4.9907   44.2813 N   0  0  0  0  0  0  0  0  0  0  0  0
    0.6548   -5.8041   45.2495 C   0  0  0  0  0  0  0  0  0  0  0  0
   -0.1251   -6.8536   45.9760 C   0  0  0  0  0  0  0  0  0  0  0  0
    0.5132   -7.7727   46.8099 C   0  0  0  0  0  0  0  0  0  0  0  0
   -0.2307   -8.6627   47.5841 C   0  0  0  0  0  0  0  0  0  0  0  0
   -1.6257   -8.6490   47.5103 C   0  0  0  0  0  0  0  0  0  0  0  0
   -2.4255   -9.5156   48.3650 C   0  0  0  0  0  0  0  0  0  0  0  0
   -3.0693  -10.1999   49.0433 N   0  0  0  0  0  0  0  0  0  0  0  0
   -2.2685   -7.7728   46.6375 C   0  0  0  0  0  0  0  0  0  0  0  0
   -1.5203   -6.8799   45.8784 C   0  0  0  0  0  0  0  0  0  0  0  0
    5.3077    0.7506   42.3829 H   0  0  0  0  0  0  0  0  0  0  0  0
    4.4724   -0.7217   41.9655 H   0  0  0  0  0  0  0  0  0  0  0  0
    3.8561    0.3227   43.2622 H   0  0  0  0  0  0  0  0  0  0  0  0
    3.1523   -1.9361   43.2517 H   0  0  0  0  0  0  0  0  0  0  0  0
    5.8686   -4.2825   46.6470 H   0  0  0  0  0  0  0  0  0  0  0  0
    7.1985   -2.5966   47.5220 H   0  0  0  0  0  0  0  0  0  0  0  0
    7.9591   -4.6724   46.3326 H   0  0  0  0  0  0  0  0  0  0  0  0
    9.2728   -3.7733   45.5794 H   0  0  0  0  0  0  0  0  0  0  0  0
    8.9230   -4.2697   48.5756 H   0  0  0  0  0  0  0  0  0  0  0  0
   10.1236   -4.9836   47.5218 H   0  0  0  0  0  0  0  0  0  0  0  0
    9.1446   -1.8224   49.0759 H   0  0  0  0  0  0  0  0  0  0  0  0
   10.4831   -0.9714   48.3350 H   0  0  0  0  0  0  0  0  0  0  0  0
    9.5061   -1.2059   46.0989 H   0  0  0  0  0  0  0  0  0  0  0  0
    8.3279   -0.4352   47.1676 H   0  0  0  0  0  0  0  0  0  0  0  0
    3.1620   -5.3571   47.1662 H   0  0  0  0  0  0  0  0  0  0  0  0
    3.7691   -6.3716   45.8730 H   0  0  0  0  0  0  0  0  0  0  0  0
   -0.8743   -5.0046   44.0223 H   0  0  0  0  0  0  0  0  0  0  0  0
    1.5889   -7.7582   46.9149 H   0  0  0  0  0  0  0  0  0  0  0  0
    0.2867   -9.3267   48.2627 H   0  0  0  0  0  0  0  0  0  0  0  0
   -3.3476   -7.7401   46.5703 H   0  0  0  0  0  0  0  0  0  0  0  0
   -2.0452   -6.1727   45.2537 H   0  0  0  0  0  0  0  0  0  0  0  0
  1  2  1  0
  1 30  1  0
  1 31  1  0
  1 32  1  0
  2  3  1  0
  3  4  2  0
  3  8  1  0
  4  5  1  0
  4 33  1  0
  5  6  2  0
  5 18  1  0
  6  7  1  0
  6 16  1  0
  7  8  2  0
  7 34  1  0
  8  9  1  0
  9 10  1  0
 10 11  1  0
 10 15  1  0
 10 35  1  0
 11 12  1  0
 11 36  1  0
 11 37  1  0
 12 13  1  0
 12 38  1  0
 12 39  1  0
 13 14  1  0
 14 15  1  0
 14 40  1  0
 14 41  1  0
 15 42  1  0
 15 43  1  0
 16 17  1  0
 16 44  1  0
 16 45  1  0
 17 18  1  0
 17 21  2  0
 18 19  2  0
 19 20  1  0
 20 21  1  0
 20 46  1  0
 21 22  1  0
 22 23  2  0
 22 29  1  0
 23 24  1  0
 23 47  1  0
 24 25  2  0
 24 48  1  0
 25 26  1  0
 25 28  1  0
 26 27  3  0
 28 29  2  0
 28 49  1  0
 29 50  1  0
M  END
>  <s_epik_cmdline>  (1) 
J2VwaWtfcHl0aG9uJywgJy1waHQnLCAnMi4wJywgJy1waCcsICc3LjAnLCAnLXRuJywgJzgnLCAnLW1hJywgJzUwMCcsICctaW1hZScsICc8aW5maWxlLm1hZT4nLCAnLW9tYWUnLCAnPG91dGZpbGUubWFlPic=

>  <s_epik_input>  (1) 
W0NIMl0xW0NIMl1PW0NIMl1bQ0gyXVtDSF0xT2MoYyhbY0hdMilPW0NIM10pW2NIXWMoYzIzKVtDSDJdYzRjM25bbkhdYzQtYzVbY0hdW2NIXWMoQyNOKVtjSF1bY0hdNQ==

>  <s_i_glide_gridfile>  (1) 
O14757_Sries28506_Sries28506_grid

>  <s_lp_Force_Field>  (1) 
S-OPLS

>  <s_lp_Variant>  (1) 
O14757_Sries15811_idx-in-all-actives-1181-1

>  <s_m_source_file>  (1) 
/home/fanzhehuan/myprojects/selfGenBench/Smiles_min_50_max_inf_Scaffold_50_Serise_20_pocket/O14757/O14757_all_active_molecules_new_20241120.sdf

>  <s_sd_Affinity_Type>  (1) 
IC50

>  <s_sd_Affinity_Unit>  (1) 
nM

>  <r_epik_Charging_Adjusted_Penalty>  (1) 
0.41067999999999999

>  <r_epik_Ionization_Penalty>  (1) 
0

>  <r_epik_Ionization_Penalty_Charging>  (1) 
0

>  <r_epik_Ionization_Penalty_Neutral>  (1) 
0

>  <r_epik_State_Penalty>  (1) 
0.41070000000000001

>  <r_glide_res:A128_Eint>  (1) 
0.105277018268669

>  <r_glide_res:A128_coul>  (1) 
0.157523136656158

>  <r_glide_res:A128_dist>  (1) 
6.7691957297884802

>  <r_glide_res:A128_hbond>  (1) 
0

>  <r_glide_res:A128_vdw>  (1) 
-0.052246118387489

>  <r_glide_res:A130_Eint>  (1) 
-0.507486700025085

>  <r_glide_res:A130_coul>  (1) 
-0.317354856296646

>  <r_glide_res:A130_dist>  (1) 
5.0324800493845103

>  <r_glide_res:A130_hbond>  (1) 
0

>  <r_glide_res:A130_vdw>  (1) 
-0.190131843728439

>  <r_glide_res:A132_Eint>  (1) 
-5.3655825425126604

>  <r_glide_res:A132_coul>  (1) 
-4.2654628702064503

>  <r_glide_res:A132_dist>  (1) 
2.7919336531787202

>  <r_glide_res:A132_hbond>  (1) 
0

>  <r_glide_res:A132_vdw>  (1) 
-1.1001196723062101

>  <r_glide_res:A133_Eint>  (1) 
-0.13742998004461901

>  <r_glide_res:A133_coul>  (1) 
0.010918724252001299

>  <r_glide_res:A133_dist>  (1) 
7.2008527974627503

>  <r_glide_res:A133_hbond>  (1) 
0

>  <r_glide_res:A133_vdw>  (1) 
-0.148348704296621

>  <r_glide_res:A134_Eint>  (1) 
-1.6376067853635901

>  <r_glide_res:A134_coul>  (1) 
1.5659370343157699

>  <r_glide_res:A134_dist>  (1) 
3.2112337196949499

>  <r_glide_res:A134_hbond>  (1) 
0

>  <r_glide_res:A134_vdw>  (1) 
-3.2035438196793602

>  <r_glide_res:A135_Eint>  (1) 
-3.1924431935853299

>  <r_glide_res:A135_coul>  (1) 
-1.46526808190853

>  <r_glide_res:A135_dist>  (1) 
2.5594083884646399

>  <r_glide_res:A135_hbond>  (1) 
0

>  <r_glide_res:A135_vdw>  (1) 
-1.7271751116767999

>  <r_glide_res:A136_Eint>  (1) 
-0.25873093670674802

>  <r_glide_res:A136_coul>  (1) 
-0.041267856877700897

>  <r_glide_res:A136_dist>  (1) 
6.9039169281285799

>  <r_glide_res:A136_hbond>  (1) 
0

>  <r_glide_res:A136_vdw>  (1) 
-0.217463079829047

>  <r_glide_res:A137_Eint>  (1) 
-4.0840488139626601

>  <r_glide_res:A137_coul>  (1) 
-0.24837488922447501

>  <r_glide_res:A137_dist>  (1) 
2.3550649504718

>  <r_glide_res:A137_hbond>  (1) 
0

>  <r_glide_res:A137_vdw>  (1) 
-3.8356739247381899

>  <r_glide_res:A138_Eint>  (1) 
0.0093429803040686304

>  <r_glide_res:A138_coul>  (1) 
0.23773028810494001

>  <r_glide_res:A138_dist>  (1) 
5.3783942690383304

>  <r_glide_res:A138_hbond>  (1) 
0

>  <r_glide_res:A138_vdw>  (1) 
-0.22838730780087099

>  <r_glide_res:A139_Eint>  (1) 
0.83428469366558

>  <r_glide_res:A139_coul>  (1) 
0.91739137531291304

>  <r_glide_res:A139_dist>  (1) 
6.5762656192084403

>  <r_glide_res:A139_hbond>  (1) 
0

>  <r_glide_res:A139_vdw>  (1) 
-0.083106681647332703

>  <r_glide_res:A13_Eint>  (1) 
-0.66037254390584998

>  <r_glide_res:A13_coul>  (1) 
-0.421701639419721

>  <r_glide_res:A13_dist>  (1) 
4.1841210791035701

>  <r_glide_res:A13_hbond>  (1) 
0

>  <r_glide_res:A13_vdw>  (1) 
-0.23867090448612899

>  <r_glide_res:A144_Eint>  (1) 
-0.0461135905324567

>  <r_glide_res:A144_coul>  (1) 
-0.018032123382791199

>  <r_glide_res:A144_dist>  (1) 
9.8228197721778407

>  <r_glide_res:A144_hbond>  (1) 
0

>  <r_glide_res:A144_vdw>  (1) 
-0.028081467149665602

>  <r_glide_res:A145_Eint>  (1) 
-0.63659290456396

>  <r_glide_res:A145_coul>  (1) 
-0.55832107360408201

>  <r_glide_res:A145_dist>  (1) 
6.7848011614367998

>  <r_glide_res:A145_hbond>  (1) 
0

>  <r_glide_res:A145_vdw>  (1) 
-0.078271830959877997

>  <r_glide_res:A146_Eint>  (1) 
-0.0052713034412258698

>  <r_glide_res:A146_coul>  (1) 
0.057152905128127797

>  <r_glide_res:A146_dist>  (1) 
8.3371425790420108

>  <r_glide_res:A146_hbond>  (1) 
0

>  <r_glide_res:A146_vdw>  (1) 
-0.062424208569353698

>  <r_glide_res:A147_Eint>  (1) 
-0.14078668953141299

>  <r_glide_res:A147_coul>  (1) 
0.71326769462638095

>  <r_glide_res:A147_dist>  (1) 
3.2506560570006302

>  <r_glide_res:A147_hbond>  (1) 
0

>  <r_glide_res:A147_vdw>  (1) 
-0.854054384157794

>  <r_glide_res:A148_Eint>  (1) 
-12.7249726462148

>  <r_glide_res:A148_coul>  (1) 
-11.0936233960047

>  <r_glide_res:A148_dist>  (1) 
2.0315344433192202

>  <r_glide_res:A148_hbond>  (1) 
-0.16585543538261899

>  <r_glide_res:A148_vdw>  (1) 
-1.4654938148274801

>  <r_glide_res:A149_Eint>  (1) 
-0.053311776638764602

>  <r_glide_res:A149_coul>  (1) 
0.011593029812718401

>  <r_glide_res:A149_dist>  (1) 
7.1140380541020596

>  <r_glide_res:A149_hbond>  (1) 
0

>  <r_glide_res:A149_vdw>  (1) 
-0.064904806451482902

>  <r_glide_res:A14_Eint>  (1) 
-0.24255201438367499

>  <r_glide_res:A14_coul>  (1) 
0.032340498365006201

>  <r_glide_res:A14_dist>  (1) 
4.9364388108381902

>  <r_glide_res:A14_hbond>  (1) 
0

>  <r_glide_res:A14_vdw>  (1) 
-0.27489251274868198

>  <r_glide_res:A150_Eint>  (1) 
0.14370667710691801

>  <r_glide_res:A150_coul>  (1) 
0.16900724204176901

>  <r_glide_res:A150_dist>  (1) 
7.1667383209070996

>  <r_glide_res:A150_hbond>  (1) 
0

>  <r_glide_res:A150_vdw>  (1) 
-0.025300564934850601

>  <r_glide_res:A15_Eint>  (1) 
-6.9293446648393804

>  <r_glide_res:A15_coul>  (1) 
-1.1277217464390801

>  <r_glide_res:A15_dist>  (1) 
1.90748836789201

>  <r_glide_res:A15_hbond>  (1) 
0

>  <r_glide_res:A15_vdw>  (1) 
-5.8016229184002999

>  <r_glide_res:A16_Eint>  (1) 
-0.63259582627953903

>  <r_glide_res:A16_coul>  (1) 
0.42730931300181502

>  <r_glide_res:A16_dist>  (1) 
2.7249421944451799

>  <r_glide_res:A16_hbond>  (1) 
0

>  <r_glide_res:A16_vdw>  (1) 
-1.0599051392813501

>  <r_glide_res:A17_Eint>  (1) 
0.187879805761376

>  <r_glide_res:A17_coul>  (1) 
0.54463197033906996

>  <r_glide_res:A17_dist>  (1) 
5.02384504031098

>  <r_glide_res:A17_hbond>  (1) 
0

>  <r_glide_res:A17_vdw>  (1) 
-0.35675216457769399

>  <r_glide_res:A18_Eint>  (1) 
-0.1561799336718

>  <r_glide_res:A18_coul>  (1) 
-0.02322278501866

>  <r_glide_res:A18_dist>  (1) 
5.9220376792240899

>  <r_glide_res:A18_hbond>  (1) 
0

>  <r_glide_res:A18_vdw>  (1) 
-0.13295714865314001

>  <r_glide_res:A19_Eint>  (1) 
-0.095789872572929105

>  <r_glide_res:A19_coul>  (1) 
-0.0351750504773264

>  <r_glide_res:A19_dist>  (1) 
7.4482240575327801

>  <r_glide_res:A19_hbond>  (1) 
0

>  <r_glide_res:A19_vdw>  (1) 
-0.060614822095602698

>  <r_glide_res:A20_Eint>  (1) 
-1.7956626545483301

>  <r_glide_res:A20_coul>  (1) 
0.27890395068310803

>  <r_glide_res:A20_dist>  (1) 
3.97974030452299

>  <r_glide_res:A20_hbond>  (1) 
0

>  <r_glide_res:A20_vdw>  (1) 
-2.07456660523144

>  <r_glide_res:A21_Eint>  (1) 
-0.105614992995245

>  <r_glide_res:A21_coul>  (1) 
-0.033842821445566301

>  <r_glide_res:A21_dist>  (1) 
8.3356950880962994

>  <r_glide_res:A21_hbond>  (1) 
0

>  <r_glide_res:A21_vdw>  (1) 
-0.071772171549678299

>  <r_glide_res:A22_Eint>  (1) 
0.40301330843410499

>  <r_glide_res:A22_coul>  (1) 
0.60024574387049101

>  <r_glide_res:A22_dist>  (1) 
6.9772338280517401

>  <r_glide_res:A22_hbond>  (1) 
0

>  <r_glide_res:A22_vdw>  (1) 
-0.19723243543638599

>  <r_glide_res:A23_Eint>  (1) 
-2.96581532362719

>  <r_glide_res:A23_coul>  (1) 
-0.065234600673978502

>  <r_glide_res:A23_dist>  (1) 
2.6759065287358901

>  <r_glide_res:A23_hbond>  (1) 
0

>  <r_glide_res:A23_vdw>  (1) 
-2.9005807229532099

>  <r_glide_res:A24_Eint>  (1) 
-0.12585314194363401

>  <r_glide_res:A24_coul>  (1) 
0.086915042451029198

>  <r_glide_res:A24_dist>  (1) 
5.7709045406169404

>  <r_glide_res:A24_hbond>  (1) 
0

>  <r_glide_res:A24_vdw>  (1) 
-0.212768184394663

>  <r_glide_res:A25_Eint>  (1) 
-0.34934050799421601

>  <r_glide_res:A25_coul>  (1) 
-0.0924886292053375

>  <r_glide_res:A25_dist>  (1) 
5.3550884412058801

>  <r_glide_res:A25_hbond>  (1) 
0

>  <r_glide_res:A25_vdw>  (1) 
-0.256851878788878

>  <r_glide_res:A26_Eint>  (1) 
0.062779210398371699

>  <r_glide_res:A26_coul>  (1) 
0.091100976722991306

>  <r_glide_res:A26_dist>  (1) 
7.1833863513396299

>  <r_glide_res:A26_hbond>  (1) 
0

>  <r_glide_res:A26_vdw>  (1) 
-0.0283217663246196

>  <r_glide_res:A35_Eint>  (1) 
0.085126720924733196

>  <r_glide_res:A35_coul>  (1) 
0.17534192474768001

>  <r_glide_res:A35_dist>  (1) 
5.6324400364512899

>  <r_glide_res:A35_hbond>  (1) 
0

>  <r_glide_res:A35_vdw>  (1) 
-0.090215203822947204

>  <r_glide_res:A36_Eint>  (1) 
-0.77538414274126899

>  <r_glide_res:A36_coul>  (1) 
-0.035471945341978103

>  <r_glide_res:A36_dist>  (1) 
2.0993434832152502

>  <r_glide_res:A36_hbond>  (1) 
0

>  <r_glide_res:A36_vdw>  (1) 
-0.73991219739929104

>  <r_glide_res:A37_Eint>  (1) 
-0.054803175245729301

>  <r_glide_res:A37_coul>  (1) 
0.068040610947004698

>  <r_glide_res:A37_dist>  (1) 
5.4291608762637198

>  <r_glide_res:A37_hbond>  (1) 
0

>  <r_glide_res:A37_vdw>  (1) 
-0.12284378619273401

>  <r_glide_res:A38_Eint>  (1) 
2.2636192469137399

>  <r_glide_res:A38_coul>  (1) 
2.7816834632159502

>  <r_glide_res:A38_dist>  (1) 
3.9998946224043701

>  <r_glide_res:A38_hbond>  (1) 
0

>  <r_glide_res:A38_vdw>  (1) 
-0.518064216302215

>  <r_glide_res:A39_Eint>  (1) 
-0.080269160080752203

>  <r_glide_res:A39_coul>  (1) 
-0.032123042722945999

>  <r_glide_res:A39_dist>  (1) 
8.5054926163430302

>  <r_glide_res:A39_hbond>  (1) 
0

>  <r_glide_res:A39_vdw>  (1) 
-0.048146117357806197

>  <r_glide_res:A40_Eint>  (1) 
-0.0069778116471492001

>  <r_glide_res:A40_coul>  (1) 
0.023312716265576801

>  <r_glide_res:A40_dist>  (1) 
8.6407183296983696

>  <r_glide_res:A40_hbond>  (1) 
0

>  <r_glide_res:A40_vdw>  (1) 
-0.030290527912726

>  <r_glide_res:A55_Eint>  (1) 
-1.27508230073284

>  <r_glide_res:A55_coul>  (1) 
-1.2224543275361499

>  <r_glide_res:A55_dist>  (1) 
6.9123862263652898

>  <r_glide_res:A55_hbond>  (1) 
0

>  <r_glide_res:A55_vdw>  (1) 
-0.052627973196695599

>  <r_glide_res:A59_Eint>  (1) 
-0.05740733659497

>  <r_glide_res:A59_coul>  (1) 
-0.040503026763912202

>  <r_glide_res:A59_dist>  (1) 
9.1962417857493506

>  <r_glide_res:A59_hbond>  (1) 
0

>  <r_glide_res:A59_vdw>  (1) 
-0.016904309831057798

>  <r_glide_res:A68_Eint>  (1) 
-0.23153944335940099

>  <r_glide_res:A68_coul>  (1) 
-0.022932759817244901

>  <r_glide_res:A68_dist>  (1) 
4.5335916365282003

>  <r_glide_res:A68_hbond>  (1) 
0

>  <r_glide_res:A68_vdw>  (1) 
-0.208606683542156

>  <r_glide_res:A69_Eint>  (1) 
-0.47145131108811

>  <r_glide_res:A69_coul>  (1) 
-0.44635904988312902

>  <r_glide_res:A69_dist>  (1) 
8.0500483449605404

>  <r_glide_res:A69_hbond>  (1) 
0

>  <r_glide_res:A69_vdw>  (1) 
-0.025092261204980901

>  <r_glide_res:A82_Eint>  (1) 
-0.0013155298166174

>  <r_glide_res:A82_coul>  (1) 
0.039688948646530102

>  <r_glide_res:A82_dist>  (1) 
8.2055214953742794

>  <r_glide_res:A82_hbond>  (1) 
0

>  <r_glide_res:A82_vdw>  (1) 
-0.041004478463147503

>  <r_glide_res:A83_Eint>  (1) 
-0.074361959390385104

>  <r_glide_res:A83_coul>  (1) 
-0.046495652801673198

>  <r_glide_res:A83_dist>  (1) 
8.3807797665160297

>  <r_glide_res:A83_hbond>  (1) 
0

>  <r_glide_res:A83_vdw>  (1) 
-0.027866306588711899

>  <r_glide_res:A84_Eint>  (1) 
-0.13146339206296401

>  <r_glide_res:A84_coul>  (1) 
0.10696297385021999

>  <r_glide_res:A84_dist>  (1) 
5.0232378593667999

>  <r_glide_res:A84_hbond>  (1) 
0

>  <r_glide_res:A84_vdw>  (1) 
-0.238426365913184

>  <r_glide_res:A85_Eint>  (1) 
-0.20857032214773499

>  <r_glide_res:A85_coul>  (1) 
0.17626941749589001

>  <r_glide_res:A85_dist>  (1) 
3.5032539903276101

>  <r_glide_res:A85_hbond>  (1) 
0

>  <r_glide_res:A85_vdw>  (1) 
-0.384839739643625

>  <r_glide_res:A86_Eint>  (1) 
-2.7994274346255299

>  <r_glide_res:A86_coul>  (1) 
-0.63270879041793504

>  <r_glide_res:A86_dist>  (1) 
1.94396725223918

>  <r_glide_res:A86_hbond>  (1) 
0

>  <r_glide_res:A86_vdw>  (1) 
-2.1667186442076001

>  <r_glide_res:A87_Eint>  (1) 
-1.31146697421113

>  <r_glide_res:A87_coul>  (1) 
1.4441758608698001

>  <r_glide_res:A87_dist>  (1) 
1.57021973903297

>  <r_glide_res:A87_hbond>  (1) 
0

>  <r_glide_res:A87_vdw>  (1) 
-2.7556428350809301

>  <r_glide_res:A88_Eint>  (1) 
-1.83555275625418

>  <r_glide_res:A88_coul>  (1) 
-0.24024698011721299

>  <r_glide_res:A88_dist>  (1) 
2.9509007702419798

>  <r_glide_res:A88_hbond>  (1) 
0

>  <r_glide_res:A88_vdw>  (1) 
-1.59530577613696

>  <r_glide_res:A89_Eint>  (1) 
-0.97807381475440103

>  <r_glide_res:A89_coul>  (1) 
-0.12291463910917901

>  <r_glide_res:A89_dist>  (1) 
3.5933720155452198

>  <r_glide_res:A89_hbond>  (1) 
0

>  <r_glide_res:A89_vdw>  (1) 
-0.85515917564522204

>  <r_glide_res:A90_Eint>  (1) 
-2.7077665943542502

>  <r_glide_res:A90_coul>  (1) 
-0.28768913177422101

>  <r_glide_res:A90_dist>  (1) 
2.0963157701008699

>  <r_glide_res:A90_hbond>  (1) 
0

>  <r_glide_res:A90_vdw>  (1) 
-2.4200774625800299

>  <r_glide_res:A91_Eint>  (1) 
-4.6961941559861504

>  <r_glide_res:A91_coul>  (1) 
-2.3295805900715498

>  <r_glide_res:A91_dist>  (1) 
2.1219445848752998

>  <r_glide_res:A91_hbond>  (1) 
0

>  <r_glide_res:A91_vdw>  (1) 
-2.3666135659146099

>  <r_glide_res:A92_Eint>  (1) 
-0.095815125643586199

>  <r_glide_res:A92_coul>  (1) 
-0.000119855197282998

>  <r_glide_res:A92_dist>  (1) 
7.1028438658403497

>  <r_glide_res:A92_hbond>  (1) 
0

>  <r_glide_res:A92_vdw>  (1) 
-0.095695270446303202

>  <r_glide_res:A93_Eint>  (1) 
-0.15204823880625601

>  <r_glide_res:A93_coul>  (1) 
0.037633638853305201

>  <r_glide_res:A93_dist>  (1) 
6.5737399245979198

>  <r_glide_res:A93_hbond>  (1) 
0

>  <r_glide_res:A93_vdw>  (1) 
-0.18968187765956099

>  <r_glide_res:A94_Eint>  (1) 
-0.608711132921677

>  <r_glide_res:A94_coul>  (1) 
-0.369770855514027

>  <r_glide_res:A94_dist>  (1) 
5.0621785775858097

>  <r_glide_res:A94_hbond>  (1) 
0

>  <r_glide_res:A94_vdw>  (1) 
-0.238940277407649

>  <r_glide_res:A95_Eint>  (1) 
-0.91729170330824294

>  <r_glide_res:A95_coul>  (1) 
-0.83814867958948802

>  <r_glide_res:A95_dist>  (1) 
5.7038501095361198

>  <r_glide_res:A95_hbond>  (1) 
0

>  <r_glide_res:A95_vdw>  (1) 
-0.079143023718754202

>  <r_i_docking_score>  (1) 
-4.6262475946436803

>  <r_i_glide_ecoul>  (1) 
-5.3420424461364702

>  <r_i_glide_eff_state_penalty>  (1) 
0.41070000000000001

>  <r_i_glide_einternal>  (1) 
1.3733477592468299

>  <r_i_glide_emodel>  (1) 
-57.704188719634999

>  <r_i_glide_energy>  (1) 
-44.118676662445097

>  <r_i_glide_erotb>  (1) 
0.38920601509969499

>  <r_i_glide_esite>  (1) 
-0.111465538098899

>  <r_i_glide_evdw>  (1) 
-38.776634216308601

>  <r_i_glide_gscore>  (1) 
-5.0369475946436797

>  <r_i_glide_hbond>  (1) 
-0.16585543538261899

>  <r_i_glide_ligand_efficiency>  (1) 
-0.159525779125644

>  <r_i_glide_ligand_efficiency_ln>  (1) 
-1.05929338765632

>  <r_i_glide_ligand_efficiency_sa>  (1) 
-0.49011373478824199

>  <r_i_glide_lipo>  (1) 
-1.64117960398051

>  <r_i_glide_metal>  (1) 
-0

>  <r_i_glide_rewards>  (1) 
-0.76751495454545404

>  <r_lp_Energy>  (1) 
27.016100000000002

>  <r_lp_tautomer_probability>  (1) 
0.5

>  <i_epik_Tot_Q>  (1) 
0

>  <i_epik_Tot_abs_Q>  (1) 
0

>  <i_i_glide_confnum>  (1) 
2

>  <i_i_glide_lignum>  (1) 
2044

>  <i_i_glide_posenum>  (1) 
268

>  <i_i_glide_rotatable_bonds>  (1) 
4

>  <i_lp_mmshare_version>  (1) 
54117

>  <i_m_ct_enhanced_stereo_status>  (1) 
0

>  <i_m_ct_format>  (1) 
2

>  <i_m_source_file_index>  (1) 
1182

>  <i_sd_Affinity>  (1) 
1

>  <i_sd_i\_f3d\_flags>  (1) 
0

>  <i_sd_version>  (1) 
0

>  <b_lp_Chiralities_Consistent>  (1) 
1

>  <b_sd_chiral_flag>  (1) 
1

$$$$
