O14757_Sries14139_idx-in-all-actives-256
     RDKit          2D

 30 32  0  0  0  0  0  0  0  0999 V2000
    4.5000    0.0000    0.0000 N   0  0  0  0  0  0  0  0  0  0  0  0
    3.0000    0.0000    0.0000 C   0  0  0  0  0  0  0  0  0  0  0  0
    1.5000    0.0000    0.0000 C   0  0  0  0  0  0  0  0  0  0  0  0
    0.7500   -1.2990    0.0000 N   0  0  0  0  0  0  0  0  0  0  0  0
   -0.7500   -1.2990    0.0000 C   0  0  0  0  0  0  0  0  0  0  0  0
   -1.5000    0.0000    0.0000 C   0  0  0  0  0  0  0  0  0  0  0  0
   -0.7500    1.2990    0.0000 N   0  0  0  0  0  0  0  0  0  0  0  0
    0.7500    1.2990    0.0000 C   0  0  0  0  0  0  0  0  0  0  0  0
    1.3601    2.6694    0.0000 O   0  0  0  0  0  0  0  0  0  0  0  0
    1.3601    4.1694    0.0000 C   0  0  0  0  0  0  0  0  0  0  0  0
    0.7500    5.5397    0.0000 C   0  0  0  0  0  0  0  0  0  0  0  0
   -0.3647    6.5434    0.0000 C   0  0  0  0  0  0  0  0  0  0  0  0
   -1.7913    7.0069    0.0000 C   0  0  0  0  0  0  0  0  0  0  0  0
   -3.2831    6.8501    0.0000 C   0  0  0  0  0  0  0  0  0  0  0  0
   -4.5821    6.1001    0.0000 O   0  0  0  0  0  0  0  0  0  0  0  0
   -5.4638    4.8866    0.0000 C   0  0  0  0  0  0  0  0  0  0  0  0
   -6.5785    5.8903    0.0000 C   0  0  0  0  0  0  0  0  0  0  0  0
   -8.0051    5.4267    0.0000 C   0  0  0  0  0  0  0  0  0  0  0  0
   -9.1198    6.4304    0.0000 C   0  0  0  0  0  0  0  0  0  0  0  0
  -10.2345    7.4341    0.0000 C   0  0  0  0  0  0  0  0  0  0  0  0
  -11.3493    8.4378    0.0000 C   0  0  0  0  0  0  0  0  0  0  0  0
  -11.0374    9.9051    0.0000 O   0  0  0  0  0  0  0  0  0  0  0  0
   -8.3170    3.9595    0.0000 C   0  0  0  0  0  0  0  0  0  0  0  0
   -9.7436    3.4960    0.0000 Cl  0  0  0  0  0  0  0  0  0  0  0  0
   -7.2023    2.9558    0.0000 C   0  0  0  0  0  0  0  0  0  0  0  0
   -5.7757    3.4194    0.0000 C   0  0  0  0  0  0  0  0  0  0  0  0
   -5.4638    1.9521    0.0000 N   0  0  0  0  0  0  0  0  0  0  0  0
   -4.5821    0.7386    0.0000 C   0  0  0  0  0  0  0  0  0  0  0  0
   -5.5858   -0.3761    0.0000 O   0  0  0  0  0  0  0  0  0  0  0  0
   -3.2831   -0.0114    0.0000 N   0  0  0  0  0  0  0  0  0  0  0  0
  1  2  3  0
  2  3  1  0
  3  4  2  0
  4  5  1  0
  5  6  2  0
  6  7  1  0
  7  8  2  0
  8  9  1  0
  9 10  1  0
 10 11  1  0
 11 12  1  0
 12 13  1  0
 13 14  1  0
 14 15  1  0
 15 16  1  0
 16 17  2  0
 17 18  1  0
 18 19  1  0
 19 20  3  0
 20 21  1  0
 21 22  1  0
 18 23  2  0
 23 24  1  0
 23 25  1  0
 25 26  2  0
 26 27  1  0
 27 28  1  0
 28 29  2  0
 28 30  1  0
  8  3  1  0
 26 16  1  0
 30  6  1  0
M  END
>  <Affinity>  (1) 
10.0

>  <Affinity Type>  (1) 
IC50

>  <Affinity Unit>  (1) 
nM

>  <Scaffold>  (1) 
[#7&!R]#&!@[#6&!R]-&!@[#6&R]1:&@[#7&R]:&@[#6&R]:&@[#6&R]2:&@[#7&R]:&@[#6&R]:&@1-&@[#8&R]-&@[#6&R]-&@[#6&R]-&@[#6&R]-&@[#6&R]-&@[#6&R]-&@[#8&R]-&@[#6&R]1:&@[#6&R](-&@[#7&R]-&@[#6&R](-&@[#7&R]-&@2)=&!@[#8&!R]):&@[#6&R]:&@[#6&R](:&@[#6&R]:&@[#6&R]:&@1)-&!@[#17&!R]

$$$$
O14757_Sries14139_idx-in-all-actives-270
     RDKit          2D

 34 37  0  0  0  0  0  0  0  0999 V2000
    4.5000    0.0000    0.0000 N   0  0  0  0  0  0  0  0  0  0  0  0
    3.0000    0.0000    0.0000 C   0  0  0  0  0  0  0  0  0  0  0  0
    1.5000    0.0000    0.0000 C   0  0  0  0  0  0  0  0  0  0  0  0
    0.7500   -1.2990    0.0000 N   0  0  0  0  0  0  0  0  0  0  0  0
   -0.7500   -1.2990    0.0000 C   0  0  0  0  0  0  0  0  0  0  0  0
   -1.5000    0.0000    0.0000 C   0  0  0  0  0  0  0  0  0  0  0  0
   -0.7500    1.2990    0.0000 N   0  0  0  0  0  0  0  0  0  0  0  0
    0.7500    1.2990    0.0000 C   0  0  0  0  0  0  0  0  0  0  0  0
    1.3601    2.6694    0.0000 O   0  0  0  0  0  0  0  0  0  0  0  0
    1.3601    4.1694    0.0000 C   0  0  0  0  0  0  0  0  0  0  0  0
    0.7500    5.5397    0.0000 C   0  0  0  0  0  0  0  0  0  0  0  0
   -0.3647    6.5434    0.0000 C   0  0  0  0  0  0  0  0  0  0  0  0
   -1.7913    7.0069    0.0000 C   0  0  0  0  0  0  0  0  0  0  0  0
   -3.2831    6.8501    0.0000 C   0  0  0  0  0  0  0  0  0  0  0  0
   -4.5821    6.1001    0.0000 O   0  0  0  0  0  0  0  0  0  0  0  0
   -5.4638    4.8866    0.0000 C   0  0  0  0  0  0  0  0  0  0  0  0
   -6.5785    5.8903    0.0000 C   0  0  0  0  0  0  0  0  0  0  0  0
   -8.0051    5.4267    0.0000 C   0  0  0  0  0  0  0  0  0  0  0  0
   -9.1198    6.4304    0.0000 N   0  0  0  0  0  0  0  0  0  0  0  0
   -8.8080    7.8977    0.0000 C   0  0  0  0  0  0  0  0  0  0  0  0
   -9.9227    8.9014    0.0000 C   0  0  0  0  0  0  0  0  0  0  0  0
   -9.6108   10.3686    0.0000 C   0  0  0  0  0  0  0  0  0  0  0  0
  -10.7255   11.3723    0.0000 C   0  0  0  0  0  0  0  0  0  0  0  0
  -12.1521   10.9088    0.0000 N   0  0  0  0  0  0  0  0  0  0  0  0
  -12.4640    9.4415    0.0000 C   0  0  0  0  0  0  0  0  0  0  0  0
  -11.3493    8.4378    0.0000 C   0  0  0  0  0  0  0  0  0  0  0  0
   -8.3170    3.9595    0.0000 C   0  0  0  0  0  0  0  0  0  0  0  0
   -9.7436    3.4960    0.0000 Cl  0  0  0  0  0  0  0  0  0  0  0  0
   -7.2023    2.9558    0.0000 C   0  0  0  0  0  0  0  0  0  0  0  0
   -5.7757    3.4194    0.0000 C   0  0  0  0  0  0  0  0  0  0  0  0
   -5.4638    1.9521    0.0000 N   0  0  0  0  0  0  0  0  0  0  0  0
   -4.5821    0.7386    0.0000 C   0  0  0  0  0  0  0  0  0  0  0  0
   -5.5858   -0.3761    0.0000 O   0  0  0  0  0  0  0  0  0  0  0  0
   -3.2831   -0.0114    0.0000 N   0  0  0  0  0  0  0  0  0  0  0  0
  1  2  3  0
  2  3  1  0
  3  4  2  0
  4  5  1  0
  5  6  2  0
  6  7  1  0
  7  8  2  0
  8  9  1  0
  9 10  1  0
 10 11  1  0
 11 12  1  0
 12 13  1  0
 13 14  1  0
 14 15  1  0
 15 16  1  0
 16 17  2  0
 17 18  1  0
 18 19  1  0
 19 20  1  0
 20 21  1  0
 21 22  2  0
 22 23  1  0
 23 24  2  0
 24 25  1  0
 25 26  2  0
 18 27  2  0
 27 28  1  0
 27 29  1  0
 29 30  2  0
 30 31  1  0
 31 32  1  0
 32 33  2  0
 32 34  1  0
  8  3  1  0
 30 16  1  0
 34  6  1  0
 26 21  1  0
M  END
>  <Affinity>  (2) 
13.0

>  <Affinity Type>  (2) 
IC50

>  <Affinity Unit>  (2) 
nM

>  <Scaffold>  (2) 
[#7&!R]#&!@[#6&!R]-&!@[#6&R]1:&@[#7&R]:&@[#6&R]:&@[#6&R]2:&@[#7&R]:&@[#6&R]:&@1-&@[#8&R]-&@[#6&R]-&@[#6&R]-&@[#6&R]-&@[#6&R]-&@[#6&R]-&@[#8&R]-&@[#6&R]1:&@[#6&R](-&@[#7&R]-&@[#6&R](-&@[#7&R]-&@2)=&!@[#8&!R]):&@[#6&R]:&@[#6&R](:&@[#6&R]:&@[#6&R]:&@1)-&!@[#17&!R]

$$$$
O14757_Sries14139_idx-in-all-actives-283
     RDKit          2D

 30 32  0  0  0  0  0  0  0  0999 V2000
   -2.7475  -13.0440    0.0000 C   0  0  0  0  0  0  0  0  0  0  0  0
   -2.4356  -11.5767    0.0000 C   0  0  0  0  0  0  0  0  0  0  0  0
   -3.5503  -10.5730    0.0000 C   0  0  0  0  0  0  0  0  0  0  0  0
   -1.0090  -11.1132    0.0000 O   0  0  0  0  0  0  0  0  0  0  0  0
   -0.6972   -9.6460    0.0000 C   0  0  0  0  0  0  0  0  0  0  0  0
   -1.8119   -8.6423    0.0000 C   0  0  0  0  0  0  0  0  0  0  0  0
   -1.5000   -7.1751    0.0000 C   0  0  0  0  0  0  0  0  0  0  0  0
   -0.0734   -6.7116    0.0000 C   0  0  0  0  0  0  0  0  0  0  0  0
    1.0413   -7.7152    0.0000 C   0  0  0  0  0  0  0  0  0  0  0  0
    0.7294   -9.1825    0.0000 C   0  0  0  0  0  0  0  0  0  0  0  0
    1.8442  -10.1862    0.0000 Cl  0  0  0  0  0  0  0  0  0  0  0  0
    1.0413   -5.7079    0.0000 N   0  0  0  0  0  0  0  0  0  0  0  0
    1.6514   -4.3375    0.0000 C   0  0  0  0  0  0  0  0  0  0  0  0
    3.1186   -4.6494    0.0000 O   0  0  0  0  0  0  0  0  0  0  0  0
    1.6514   -2.8375    0.0000 N   0  0  0  0  0  0  0  0  0  0  0  0
    0.7500   -1.2990    0.0000 C   0  0  0  0  0  0  0  0  0  0  0  0
    1.5000    0.0000    0.0000 C   0  0  0  0  0  0  0  0  0  0  0  0
    0.7500    1.2990    0.0000 N   0  0  0  0  0  0  0  0  0  0  0  0
   -0.7500    1.2990    0.0000 C   0  0  0  0  0  0  0  0  0  0  0  0
   -1.5000    2.5981    0.0000 C   0  0  0  0  0  0  0  0  0  0  0  0
   -2.2500    3.8971    0.0000 N   0  0  0  0  0  0  0  0  0  0  0  0
   -1.5000    0.0000    0.0000 C   0  0  0  0  0  0  0  0  0  0  0  0
   -0.7500   -1.2990    0.0000 N   0  0  0  0  0  0  0  0  0  0  0  0
   -2.9918   -0.1568    0.0000 O   0  0  0  0  0  0  0  0  0  0  0  0
   -4.2908   -0.9068    0.0000 C   0  0  0  0  0  0  0  0  0  0  0  0
   -5.1725   -2.1203    0.0000 C   0  0  0  0  0  0  0  0  0  0  0  0
   -5.4844   -3.5875    0.0000 C   0  0  0  0  0  0  0  0  0  0  0  0
   -5.1725   -5.0548    0.0000 C   0  0  0  0  0  0  0  0  0  0  0  0
   -4.2908   -6.2683    0.0000 C   0  0  0  0  0  0  0  0  0  0  0  0
   -2.9918   -7.0183    0.0000 O   0  0  0  0  0  0  0  0  0  0  0  0
  1  2  1  0
  2  3  1  0
  2  4  1  0
  4  5  1  0
  5  6  2  0
  6  7  1  0
  7  8  2  0
  8  9  1  0
  9 10  2  0
 10 11  1  0
  8 12  1  0
 12 13  1  0
 13 14  2  0
 13 15  1  0
 15 16  1  0
 16 17  1  0
 17 18  2  0
 18 19  1  0
 19 20  1  0
 20 21  3  0
 19 22  2  0
 22 23  1  0
 22 24  1  0
 24 25  1  0
 25 26  1  0
 26 27  1  0
 27 28  1  0
 28 29  1  0
 29 30  1  0
 10  5  1  0
 23 16  2  0
 30  7  1  0
M  END
>  <Affinity>  (3) 
13.0

>  <Affinity Type>  (3) 
IC50

>  <Affinity Unit>  (3) 
nM

>  <Scaffold>  (3) 
[#7&!R]#&!@[#6&!R]-&!@[#6&R]1:&@[#7&R]:&@[#6&R]:&@[#6&R]2:&@[#7&R]:&@[#6&R]:&@1-&@[#8&R]-&@[#6&R]-&@[#6&R]-&@[#6&R]-&@[#6&R]-&@[#6&R]-&@[#8&R]-&@[#6&R]1:&@[#6&R](-&@[#7&R]-&@[#6&R](-&@[#7&R]-&@2)=&!@[#8&!R]):&@[#6&R]:&@[#6&R](:&@[#6&R]:&@[#6&R]:&@1)-&!@[#17&!R]

$$$$
O14757_Sries14139_idx-in-all-actives-296
     RDKit          2D

 26 28  0  0  0  0  0  0  0  0999 V2000
    4.5000    0.0000    0.0000 N   0  0  0  0  0  0  0  0  0  0  0  0
    3.0000    0.0000    0.0000 C   0  0  0  0  0  0  0  0  0  0  0  0
    1.5000    0.0000    0.0000 C   0  0  0  0  0  0  0  0  0  0  0  0
    0.7500   -1.2990    0.0000 N   0  0  0  0  0  0  0  0  0  0  0  0
   -0.7500   -1.2990    0.0000 C   0  0  0  0  0  0  0  0  0  0  0  0
   -1.5000    0.0000    0.0000 C   0  0  0  0  0  0  0  0  0  0  0  0
   -0.7500    1.2990    0.0000 N   0  0  0  0  0  0  0  0  0  0  0  0
    0.7500    1.2990    0.0000 C   0  0  0  0  0  0  0  0  0  0  0  0
    1.3601    2.6694    0.0000 O   0  0  0  0  0  0  0  0  0  0  0  0
    1.3601    4.1694    0.0000 C   0  0  0  0  0  0  0  0  0  0  0  0
    0.7500    5.5397    0.0000 C   0  0  0  0  0  0  0  0  0  0  0  0
   -0.3647    6.5434    0.0000 C   0  0  0  0  0  0  0  0  0  0  0  0
   -1.7913    7.0069    0.0000 C   0  0  0  0  0  0  0  0  0  0  0  0
   -3.2831    6.8501    0.0000 C   0  0  0  0  0  0  0  0  0  0  0  0
   -4.5821    6.1001    0.0000 O   0  0  0  0  0  0  0  0  0  0  0  0
   -5.4638    4.8866    0.0000 C   0  0  0  0  0  0  0  0  0  0  0  0
   -6.5785    5.8903    0.0000 C   0  0  0  0  0  0  0  0  0  0  0  0
   -8.0051    5.4267    0.0000 C   0  0  0  0  0  0  0  0  0  0  0  0
   -8.3170    3.9595    0.0000 C   0  0  0  0  0  0  0  0  0  0  0  0
   -9.7436    3.4960    0.0000 Cl  0  0  0  0  0  0  0  0  0  0  0  0
   -7.2023    2.9558    0.0000 C   0  0  0  0  0  0  0  0  0  0  0  0
   -5.7757    3.4194    0.0000 C   0  0  0  0  0  0  0  0  0  0  0  0
   -5.4638    1.9521    0.0000 N   0  0  0  0  0  0  0  0  0  0  0  0
   -4.5821    0.7386    0.0000 C   0  0  0  0  0  0  0  0  0  0  0  0
   -5.5858   -0.3761    0.0000 O   0  0  0  0  0  0  0  0  0  0  0  0
   -3.2831   -0.0114    0.0000 N   0  0  0  0  0  0  0  0  0  0  0  0
  1  2  3  0
  2  3  1  0
  3  4  2  0
  4  5  1  0
  5  6  2  0
  6  7  1  0
  7  8  2  0
  8  9  1  0
  9 10  1  0
 10 11  1  0
 11 12  1  0
 12 13  1  0
 13 14  1  0
 14 15  1  0
 15 16  1  0
 16 17  2  0
 17 18  1  0
 18 19  2  0
 19 20  1  0
 19 21  1  0
 21 22  2  0
 22 23  1  0
 23 24  1  0
 24 25  2  0
 24 26  1  0
  8  3  1  0
 22 16  1  0
 26  6  1  0
M  END
>  <Affinity>  (4) 
7.0

>  <Affinity Type>  (4) 
IC50

>  <Affinity Unit>  (4) 
nM

>  <Scaffold>  (4) 
[#7&!R]#&!@[#6&!R]-&!@[#6&R]1:&@[#7&R]:&@[#6&R]:&@[#6&R]2:&@[#7&R]:&@[#6&R]:&@1-&@[#8&R]-&@[#6&R]-&@[#6&R]-&@[#6&R]-&@[#6&R]-&@[#6&R]-&@[#8&R]-&@[#6&R]1:&@[#6&R](-&@[#7&R]-&@[#6&R](-&@[#7&R]-&@2)=&!@[#8&!R]):&@[#6&R]:&@[#6&R](:&@[#6&R]:&@[#6&R]:&@1)-&!@[#17&!R]

$$$$
O14757_Sries14139_idx-in-all-actives-257
     RDKit          2D

 32 35  0  0  0  0  0  0  0  0999 V2000
    4.5000    0.0000    0.0000 N   0  0  0  0  0  0  0  0  0  0  0  0
    3.0000    0.0000    0.0000 C   0  0  0  0  0  0  0  0  0  0  0  0
    1.5000    0.0000    0.0000 C   0  0  0  0  0  0  0  0  0  0  0  0
    0.7500   -1.2990    0.0000 N   0  0  0  0  0  0  0  0  0  0  0  0
   -0.7500   -1.2990    0.0000 C   0  0  0  0  0  0  0  0  0  0  0  0
   -1.5000    0.0000    0.0000 C   0  0  0  0  0  0  0  0  0  0  0  0
   -0.7500    1.2990    0.0000 N   0  0  0  0  0  0  0  0  0  0  0  0
    0.7500    1.2990    0.0000 C   0  0  0  0  0  0  0  0  0  0  0  0
    1.3601    2.6694    0.0000 O   0  0  0  0  0  0  0  0  0  0  0  0
    1.3601    4.1694    0.0000 C   0  0  0  0  0  0  0  0  0  0  0  0
    0.7500    5.5397    0.0000 C   0  0  0  0  0  0  0  0  0  0  0  0
   -0.3647    6.5434    0.0000 C   0  0  0  0  0  0  0  0  0  0  0  0
   -1.7913    7.0069    0.0000 C   0  0  0  0  0  0  0  0  0  0  0  0
   -3.2831    6.8501    0.0000 C   0  0  0  0  0  0  0  0  0  0  0  0
   -4.5821    6.1001    0.0000 O   0  0  0  0  0  0  0  0  0  0  0  0
   -5.4638    4.8866    0.0000 C   0  0  0  0  0  0  0  0  0  0  0  0
   -6.5785    5.8903    0.0000 C   0  0  0  0  0  0  0  0  0  0  0  0
   -8.0051    5.4267    0.0000 C   0  0  0  0  0  0  0  0  0  0  0  0
   -9.1198    6.4304    0.0000 N   0  0  0  0  0  0  0  0  0  0  0  0
   -8.8080    7.8977    0.0000 C   0  0  0  0  0  0  0  0  0  0  0  0
   -9.9227    8.9014    0.0000 C   0  0  0  0  0  0  0  0  0  0  0  0
  -11.3493    8.4378    0.0000 C   0  0  0  0  0  0  0  0  0  0  0  0
  -11.6611    6.9706    0.0000 C   0  0  0  0  0  0  0  0  0  0  0  0
  -10.5464    5.9669    0.0000 C   0  0  0  0  0  0  0  0  0  0  0  0
   -8.3170    3.9595    0.0000 C   0  0  0  0  0  0  0  0  0  0  0  0
   -9.7436    3.4960    0.0000 Cl  0  0  0  0  0  0  0  0  0  0  0  0
   -7.2023    2.9558    0.0000 C   0  0  0  0  0  0  0  0  0  0  0  0
   -5.7757    3.4194    0.0000 C   0  0  0  0  0  0  0  0  0  0  0  0
   -5.4638    1.9521    0.0000 N   0  0  0  0  0  0  0  0  0  0  0  0
   -4.5821    0.7386    0.0000 C   0  0  0  0  0  0  0  0  0  0  0  0
   -5.5858   -0.3761    0.0000 O   0  0  0  0  0  0  0  0  0  0  0  0
   -3.2831   -0.0114    0.0000 N   0  0  0  0  0  0  0  0  0  0  0  0
  1  2  3  0
  2  3  1  0
  3  4  2  0
  4  5  1  0
  5  6  2  0
  6  7  1  0
  7  8  2  0
  8  9  1  0
  9 10  1  0
 10 11  1  0
 11 12  1  0
 12 13  1  0
 13 14  1  0
 14 15  1  0
 15 16  1  0
 16 17  2  0
 17 18  1  0
 18 19  1  0
 19 20  1  0
 20 21  1  0
 21 22  1  0
 22 23  1  0
 23 24  1  0
 18 25  2  0
 25 26  1  0
 25 27  1  0
 27 28  2  0
 28 29  1  0
 29 30  1  0
 30 31  2  0
 30 32  1  0
  8  3  1  0
 28 16  1  0
 32  6  1  0
 24 19  1  0
M  END
>  <Affinity>  (5) 
139.0

>  <Affinity Type>  (5) 
IC50

>  <Affinity Unit>  (5) 
nM

>  <Scaffold>  (5) 
[#7&!R]#&!@[#6&!R]-&!@[#6&R]1:&@[#7&R]:&@[#6&R]:&@[#6&R]2:&@[#7&R]:&@[#6&R]:&@1-&@[#8&R]-&@[#6&R]-&@[#6&R]-&@[#6&R]-&@[#6&R]-&@[#6&R]-&@[#8&R]-&@[#6&R]1:&@[#6&R](-&@[#7&R]-&@[#6&R](-&@[#7&R]-&@2)=&!@[#8&!R]):&@[#6&R]:&@[#6&R](:&@[#6&R]:&@[#6&R]:&@1)-&!@[#17&!R]

$$$$
O14757_Sries14139_idx-in-all-actives-271
     RDKit          2D

 34 37  0  0  0  0  0  0  0  0999 V2000
    4.5000    0.0000    0.0000 N   0  0  0  0  0  0  0  0  0  0  0  0
    3.0000    0.0000    0.0000 C   0  0  0  0  0  0  0  0  0  0  0  0
    1.5000    0.0000    0.0000 C   0  0  0  0  0  0  0  0  0  0  0  0
    0.7500   -1.2990    0.0000 N   0  0  0  0  0  0  0  0  0  0  0  0
   -0.7500   -1.2990    0.0000 C   0  0  0  0  0  0  0  0  0  0  0  0
   -1.5000    0.0000    0.0000 C   0  0  0  0  0  0  0  0  0  0  0  0
   -0.7500    1.2990    0.0000 N   0  0  0  0  0  0  0  0  0  0  0  0
    0.7500    1.2990    0.0000 C   0  0  0  0  0  0  0  0  0  0  0  0
    1.3601    2.6694    0.0000 O   0  0  0  0  0  0  0  0  0  0  0  0
    1.3601    4.1694    0.0000 C   0  0  0  0  0  0  0  0  0  0  0  0
    0.7500    5.5397    0.0000 C   0  0  0  0  0  0  0  0  0  0  0  0
   -0.3647    6.5434    0.0000 C   0  0  0  0  0  0  0  0  0  0  0  0
   -1.7913    7.0069    0.0000 C   0  0  0  0  0  0  0  0  0  0  0  0
   -3.2831    6.8501    0.0000 C   0  0  0  0  0  0  0  0  0  0  0  0
   -4.5821    6.1001    0.0000 O   0  0  0  0  0  0  0  0  0  0  0  0
   -5.4638    4.8866    0.0000 C   0  0  0  0  0  0  0  0  0  0  0  0
   -6.5785    5.8903    0.0000 C   0  0  0  0  0  0  0  0  0  0  0  0
   -8.0051    5.4267    0.0000 C   0  0  0  0  0  0  0  0  0  0  0  0
   -9.1198    6.4304    0.0000 N   0  0  0  0  0  0  0  0  0  0  0  0
   -8.8080    7.8977    0.0000 C   0  0  0  0  0  0  0  0  0  0  0  0
   -9.9227    8.9014    0.0000 C   0  0  0  0  0  0  0  0  0  0  0  0
   -9.6108   10.3686    0.0000 C   0  0  0  0  0  0  0  0  0  0  0  0
  -10.7255   11.3723    0.0000 C   0  0  0  0  0  0  0  0  0  0  0  0
  -12.1521   10.9088    0.0000 C   0  0  0  0  0  0  0  0  0  0  0  0
  -12.4640    9.4415    0.0000 N   0  0  0  0  0  0  0  0  0  0  0  0
  -11.3493    8.4378    0.0000 C   0  0  0  0  0  0  0  0  0  0  0  0
   -8.3170    3.9595    0.0000 C   0  0  0  0  0  0  0  0  0  0  0  0
   -9.7436    3.4960    0.0000 Cl  0  0  0  0  0  0  0  0  0  0  0  0
   -7.2023    2.9558    0.0000 C   0  0  0  0  0  0  0  0  0  0  0  0
   -5.7757    3.4194    0.0000 C   0  0  0  0  0  0  0  0  0  0  0  0
   -5.4638    1.9521    0.0000 N   0  0  0  0  0  0  0  0  0  0  0  0
   -4.5821    0.7386    0.0000 C   0  0  0  0  0  0  0  0  0  0  0  0
   -5.5858   -0.3761    0.0000 O   0  0  0  0  0  0  0  0  0  0  0  0
   -3.2831   -0.0114    0.0000 N   0  0  0  0  0  0  0  0  0  0  0  0
  1  2  3  0
  2  3  1  0
  3  4  2  0
  4  5  1  0
  5  6  2  0
  6  7  1  0
  7  8  2  0
  8  9  1  0
  9 10  1  0
 10 11  1  0
 11 12  1  0
 12 13  1  0
 13 14  1  0
 14 15  1  0
 15 16  1  0
 16 17  2  0
 17 18  1  0
 18 19  1  0
 19 20  1  0
 20 21  1  0
 21 22  2  0
 22 23  1  0
 23 24  2  0
 24 25  1  0
 25 26  2  0
 18 27  2  0
 27 28  1  0
 27 29  1  0
 29 30  2  0
 30 31  1  0
 31 32  1  0
 32 33  2  0
 32 34  1  0
  8  3  1  0
 30 16  1  0
 34  6  1  0
 26 21  1  0
M  END
>  <Affinity>  (6) 
12.0

>  <Affinity Type>  (6) 
IC50

>  <Affinity Unit>  (6) 
nM

>  <Scaffold>  (6) 
[#7&!R]#&!@[#6&!R]-&!@[#6&R]1:&@[#7&R]:&@[#6&R]:&@[#6&R]2:&@[#7&R]:&@[#6&R]:&@1-&@[#8&R]-&@[#6&R]-&@[#6&R]-&@[#6&R]-&@[#6&R]-&@[#6&R]-&@[#8&R]-&@[#6&R]1:&@[#6&R](-&@[#7&R]-&@[#6&R](-&@[#7&R]-&@2)=&!@[#8&!R]):&@[#6&R]:&@[#6&R](:&@[#6&R]:&@[#6&R]:&@1)-&!@[#17&!R]

$$$$
O14757_Sries14139_idx-in-all-actives-284
     RDKit          2D

 29 31  0  0  0  0  0  0  0  0999 V2000
   -2.7475  -13.0440    0.0000 C   0  0  0  0  0  0  0  0  0  0  0  0
   -2.4356  -11.5767    0.0000 C   0  0  0  0  0  0  0  0  0  0  0  0
   -1.0090  -11.1132    0.0000 O   0  0  0  0  0  0  0  0  0  0  0  0
   -0.6972   -9.6460    0.0000 C   0  0  0  0  0  0  0  0  0  0  0  0
   -1.8119   -8.6423    0.0000 C   0  0  0  0  0  0  0  0  0  0  0  0
   -1.5000   -7.1751    0.0000 C   0  0  0  0  0  0  0  0  0  0  0  0
   -0.0734   -6.7116    0.0000 C   0  0  0  0  0  0  0  0  0  0  0  0
    1.0413   -7.7152    0.0000 C   0  0  0  0  0  0  0  0  0  0  0  0
    0.7294   -9.1825    0.0000 C   0  0  0  0  0  0  0  0  0  0  0  0
    1.8442  -10.1862    0.0000 Cl  0  0  0  0  0  0  0  0  0  0  0  0
    1.0413   -5.7079    0.0000 N   0  0  0  0  0  0  0  0  0  0  0  0
    1.6514   -4.3375    0.0000 C   0  0  0  0  0  0  0  0  0  0  0  0
    3.1186   -4.6494    0.0000 O   0  0  0  0  0  0  0  0  0  0  0  0
    1.6514   -2.8375    0.0000 N   0  0  0  0  0  0  0  0  0  0  0  0
    0.7500   -1.2990    0.0000 C   0  0  0  0  0  0  0  0  0  0  0  0
    1.5000    0.0000    0.0000 C   0  0  0  0  0  0  0  0  0  0  0  0
    0.7500    1.2990    0.0000 N   0  0  0  0  0  0  0  0  0  0  0  0
   -0.7500    1.2990    0.0000 C   0  0  0  0  0  0  0  0  0  0  0  0
   -1.5000    2.5981    0.0000 C   0  0  0  0  0  0  0  0  0  0  0  0
   -2.2500    3.8971    0.0000 N   0  0  0  0  0  0  0  0  0  0  0  0
   -1.5000    0.0000    0.0000 C   0  0  0  0  0  0  0  0  0  0  0  0
   -0.7500   -1.2990    0.0000 N   0  0  0  0  0  0  0  0  0  0  0  0
   -2.9918   -0.1568    0.0000 O   0  0  0  0  0  0  0  0  0  0  0  0
   -4.2908   -0.9068    0.0000 C   0  0  0  0  0  0  0  0  0  0  0  0
   -5.1725   -2.1203    0.0000 C   0  0  0  0  0  0  0  0  0  0  0  0
   -5.4844   -3.5875    0.0000 C   0  0  0  0  0  0  0  0  0  0  0  0
   -5.1725   -5.0548    0.0000 C   0  0  0  0  0  0  0  0  0  0  0  0
   -4.2908   -6.2683    0.0000 C   0  0  0  0  0  0  0  0  0  0  0  0
   -2.9918   -7.0183    0.0000 O   0  0  0  0  0  0  0  0  0  0  0  0
  1  2  1  0
  2  3  1  0
  3  4  1  0
  4  5  2  0
  5  6  1  0
  6  7  2  0
  7  8  1  0
  8  9  2  0
  9 10  1  0
  7 11  1  0
 11 12  1  0
 12 13  2  0
 12 14  1  0
 14 15  1  0
 15 16  1  0
 16 17  2  0
 17 18  1  0
 18 19  1  0
 19 20  3  0
 18 21  2  0
 21 22  1  0
 21 23  1  0
 23 24  1  0
 24 25  1  0
 25 26  1  0
 26 27  1  0
 27 28  1  0
 28 29  1  0
  9  4  1  0
 22 15  2  0
 29  6  1  0
M  END
>  <Affinity>  (7) 
6.0

>  <Affinity Type>  (7) 
IC50

>  <Affinity Unit>  (7) 
nM

>  <Scaffold>  (7) 
[#7&!R]#&!@[#6&!R]-&!@[#6&R]1:&@[#7&R]:&@[#6&R]:&@[#6&R]2:&@[#7&R]:&@[#6&R]:&@1-&@[#8&R]-&@[#6&R]-&@[#6&R]-&@[#6&R]-&@[#6&R]-&@[#6&R]-&@[#8&R]-&@[#6&R]1:&@[#6&R](-&@[#7&R]-&@[#6&R](-&@[#7&R]-&@2)=&!@[#8&!R]):&@[#6&R]:&@[#6&R](:&@[#6&R]:&@[#6&R]:&@1)-&!@[#17&!R]

$$$$
O14757_Sries14139_idx-in-all-actives-297
     RDKit          2D

 30 32  0  0  0  0  0  0  0  0999 V2000
   -2.7475  -13.0440    0.0000 C   0  0  0  0  0  0  0  0  0  0  0  0
   -2.4356  -11.5767    0.0000 C   0  0  0  0  0  0  0  0  0  0  0  0
   -3.5503  -10.5730    0.0000 O   0  0  0  0  0  0  0  0  0  0  0  0
   -1.0090  -11.1132    0.0000 N   0  0  0  0  0  0  0  0  0  0  0  0
   -0.6972   -9.6460    0.0000 C   0  0  0  0  0  0  0  0  0  0  0  0
   -1.8119   -8.6423    0.0000 C   0  0  0  0  0  0  0  0  0  0  0  0
   -1.5000   -7.1751    0.0000 C   0  0  0  0  0  0  0  0  0  0  0  0
   -0.0734   -6.7116    0.0000 C   0  0  0  0  0  0  0  0  0  0  0  0
    1.0413   -7.7152    0.0000 C   0  0  0  0  0  0  0  0  0  0  0  0
    0.7294   -9.1825    0.0000 C   0  0  0  0  0  0  0  0  0  0  0  0
    1.8442  -10.1862    0.0000 Cl  0  0  0  0  0  0  0  0  0  0  0  0
    1.0413   -5.7079    0.0000 N   0  0  0  0  0  0  0  0  0  0  0  0
    1.6514   -4.3375    0.0000 C   0  0  0  0  0  0  0  0  0  0  0  0
    3.1186   -4.6494    0.0000 O   0  0  0  0  0  0  0  0  0  0  0  0
    1.6514   -2.8375    0.0000 N   0  0  0  0  0  0  0  0  0  0  0  0
    0.7500   -1.2990    0.0000 C   0  0  0  0  0  0  0  0  0  0  0  0
    1.5000    0.0000    0.0000 C   0  0  0  0  0  0  0  0  0  0  0  0
    0.7500    1.2990    0.0000 N   0  0  0  0  0  0  0  0  0  0  0  0
   -0.7500    1.2990    0.0000 C   0  0  0  0  0  0  0  0  0  0  0  0
   -1.5000    2.5981    0.0000 C   0  0  0  0  0  0  0  0  0  0  0  0
   -2.2500    3.8971    0.0000 N   0  0  0  0  0  0  0  0  0  0  0  0
   -1.5000    0.0000    0.0000 C   0  0  0  0  0  0  0  0  0  0  0  0
   -0.7500   -1.2990    0.0000 N   0  0  0  0  0  0  0  0  0  0  0  0
   -2.9918   -0.1568    0.0000 O   0  0  0  0  0  0  0  0  0  0  0  0
   -4.2908   -0.9068    0.0000 C   0  0  0  0  0  0  0  0  0  0  0  0
   -5.1725   -2.1203    0.0000 C   0  0  0  0  0  0  0  0  0  0  0  0
   -5.4844   -3.5875    0.0000 C   0  0  0  0  0  0  0  0  0  0  0  0
   -5.1725   -5.0548    0.0000 C   0  0  0  0  0  0  0  0  0  0  0  0
   -4.2908   -6.2683    0.0000 C   0  0  0  0  0  0  0  0  0  0  0  0
   -2.9918   -7.0183    0.0000 O   0  0  0  0  0  0  0  0  0  0  0  0
  1  2  1  0
  2  3  2  0
  2  4  1  0
  4  5  1  0
  5  6  2  0
  6  7  1  0
  7  8  2  0
  8  9  1  0
  9 10  2  0
 10 11  1  0
  8 12  1  0
 12 13  1  0
 13 14  2  0
 13 15  1  0
 15 16  1  0
 16 17  1  0
 17 18  2  0
 18 19  1  0
 19 20  1  0
 20 21  3  0
 19 22  2  0
 22 23  1  0
 22 24  1  0
 24 25  1  0
 25 26  1  0
 26 27  1  0
 27 28  1  0
 28 29  1  0
 29 30  1  0
 10  5  1  0
 23 16  2  0
 30  7  1  0
M  END
>  <Affinity>  (8) 
7.0

>  <Affinity Type>  (8) 
IC50

>  <Affinity Unit>  (8) 
nM

>  <Scaffold>  (8) 
[#7&!R]#&!@[#6&!R]-&!@[#6&R]1:&@[#7&R]:&@[#6&R]:&@[#6&R]2:&@[#7&R]:&@[#6&R]:&@1-&@[#8&R]-&@[#6&R]-&@[#6&R]-&@[#6&R]-&@[#6&R]-&@[#6&R]-&@[#8&R]-&@[#6&R]1:&@[#6&R](-&@[#7&R]-&@[#6&R](-&@[#7&R]-&@2)=&!@[#8&!R]):&@[#6&R]:&@[#6&R](:&@[#6&R]:&@[#6&R]:&@1)-&!@[#17&!R]

$$$$
O14757_Sries14139_idx-in-all-actives-272
     RDKit          2D

 31 33  0  0  0  0  0  0  0  0999 V2000
   -4.1741  -13.5075    0.0000 C   0  0  0  0  0  0  0  0  0  0  0  0
   -2.7475  -13.0440    0.0000 C   0  0  0  0  0  0  0  0  0  0  0  0
   -1.6328  -14.0477    0.0000 C   0  0  0  0  0  0  0  0  0  0  0  0
   -2.4356  -11.5767    0.0000 C   0  0  0  0  0  0  0  0  0  0  0  0
   -1.0090  -11.1132    0.0000 N   0  0  0  0  0  0  0  0  0  0  0  0
   -0.6972   -9.6460    0.0000 C   0  0  0  0  0  0  0  0  0  0  0  0
   -1.8119   -8.6423    0.0000 C   0  0  0  0  0  0  0  0  0  0  0  0
   -1.5000   -7.1751    0.0000 C   0  0  0  0  0  0  0  0  0  0  0  0
   -0.0734   -6.7116    0.0000 C   0  0  0  0  0  0  0  0  0  0  0  0
    1.0413   -7.7152    0.0000 C   0  0  0  0  0  0  0  0  0  0  0  0
    0.7294   -9.1825    0.0000 C   0  0  0  0  0  0  0  0  0  0  0  0
    1.8442  -10.1862    0.0000 Cl  0  0  0  0  0  0  0  0  0  0  0  0
    1.0413   -5.7079    0.0000 N   0  0  0  0  0  0  0  0  0  0  0  0
    1.6514   -4.3375    0.0000 C   0  0  0  0  0  0  0  0  0  0  0  0
    3.1186   -4.6494    0.0000 O   0  0  0  0  0  0  0  0  0  0  0  0
    1.6514   -2.8375    0.0000 N   0  0  0  0  0  0  0  0  0  0  0  0
    0.7500   -1.2990    0.0000 C   0  0  0  0  0  0  0  0  0  0  0  0
    1.5000    0.0000    0.0000 C   0  0  0  0  0  0  0  0  0  0  0  0
    0.7500    1.2990    0.0000 N   0  0  0  0  0  0  0  0  0  0  0  0
   -0.7500    1.2990    0.0000 C   0  0  0  0  0  0  0  0  0  0  0  0
   -1.5000    2.5981    0.0000 C   0  0  0  0  0  0  0  0  0  0  0  0
   -2.2500    3.8971    0.0000 N   0  0  0  0  0  0  0  0  0  0  0  0
   -1.5000    0.0000    0.0000 C   0  0  0  0  0  0  0  0  0  0  0  0
   -0.7500   -1.2990    0.0000 N   0  0  0  0  0  0  0  0  0  0  0  0
   -2.9918   -0.1568    0.0000 O   0  0  0  0  0  0  0  0  0  0  0  0
   -4.2908   -0.9068    0.0000 C   0  0  0  0  0  0  0  0  0  0  0  0
   -5.1725   -2.1203    0.0000 C   0  0  0  0  0  0  0  0  0  0  0  0
   -5.4844   -3.5875    0.0000 C   0  0  0  0  0  0  0  0  0  0  0  0
   -5.1725   -5.0548    0.0000 C   0  0  0  0  0  0  0  0  0  0  0  0
   -4.2908   -6.2683    0.0000 C   0  0  0  0  0  0  0  0  0  0  0  0
   -2.9918   -7.0183    0.0000 O   0  0  0  0  0  0  0  0  0  0  0  0
  1  2  1  0
  2  3  1  0
  2  4  1  0
  4  5  1  0
  5  6  1  0
  6  7  2  0
  7  8  1  0
  8  9  2  0
  9 10  1  0
 10 11  2  0
 11 12  1  0
  9 13  1  0
 13 14  1  0
 14 15  2  0
 14 16  1  0
 16 17  1  0
 17 18  1  0
 18 19  2  0
 19 20  1  0
 20 21  1  0
 21 22  3  0
 20 23  2  0
 23 24  1  0
 23 25  1  0
 25 26  1  0
 26 27  1  0
 27 28  1  0
 28 29  1  0
 29 30  1  0
 30 31  1  0
 11  6  1  0
 24 17  2  0
 31  8  1  0
M  END
>  <Affinity>  (9) 
17.0

>  <Affinity Type>  (9) 
IC50

>  <Affinity Unit>  (9) 
nM

>  <Scaffold>  (9) 
[#7&!R]#&!@[#6&!R]-&!@[#6&R]1:&@[#7&R]:&@[#6&R]:&@[#6&R]2:&@[#7&R]:&@[#6&R]:&@1-&@[#8&R]-&@[#6&R]-&@[#6&R]-&@[#6&R]-&@[#6&R]-&@[#6&R]-&@[#8&R]-&@[#6&R]1:&@[#6&R](-&@[#7&R]-&@[#6&R](-&@[#7&R]-&@2)=&!@[#8&!R]):&@[#6&R]:&@[#6&R](:&@[#6&R]:&@[#6&R]:&@1)-&!@[#17&!R]

$$$$
O14757_Sries14139_idx-in-all-actives-258
     RDKit          2D

 33 35  0  0  0  0  0  0  0  0999 V2000
    4.5000    0.0000    0.0000 N   0  0  0  0  0  0  0  0  0  0  0  0
    3.0000    0.0000    0.0000 C   0  0  0  0  0  0  0  0  0  0  0  0
    1.5000    0.0000    0.0000 C   0  0  0  0  0  0  0  0  0  0  0  0
    0.7500   -1.2990    0.0000 N   0  0  0  0  0  0  0  0  0  0  0  0
   -0.7500   -1.2990    0.0000 C   0  0  0  0  0  0  0  0  0  0  0  0
   -1.5000    0.0000    0.0000 C   0  0  0  0  0  0  0  0  0  0  0  0
   -0.7500    1.2990    0.0000 N   0  0  0  0  0  0  0  0  0  0  0  0
    0.7500    1.2990    0.0000 C   0  0  0  0  0  0  0  0  0  0  0  0
    1.3601    2.6694    0.0000 O   0  0  0  0  0  0  0  0  0  0  0  0
    1.3601    4.1694    0.0000 C   0  0  0  0  0  0  0  0  0  0  0  0
    0.7500    5.5397    0.0000 C   0  0  0  0  0  0  0  0  0  0  0  0
   -0.3647    6.5434    0.0000 C   0  0  0  0  0  0  0  0  0  0  0  0
   -1.7913    7.0069    0.0000 C   0  0  0  0  0  0  0  0  0  0  0  0
   -3.2831    6.8501    0.0000 C   0  0  0  0  0  0  0  0  0  0  0  0
   -4.5821    6.1001    0.0000 O   0  0  0  0  0  0  0  0  0  0  0  0
   -5.4638    4.8866    0.0000 C   0  0  0  0  0  0  0  0  0  0  0  0
   -6.5785    5.8903    0.0000 C   0  0  0  0  0  0  0  0  0  0  0  0
   -8.0051    5.4267    0.0000 C   0  0  0  0  0  0  0  0  0  0  0  0
   -9.1198    6.4304    0.0000 N   0  0  0  0  0  0  0  0  0  0  0  0
   -8.8080    7.8977    0.0000 C   0  0  0  0  0  0  0  0  0  0  0  0
   -9.9227    8.9014    0.0000 C   0  0  0  0  0  0  0  0  0  0  0  0
   -9.6108   10.3686    0.0000 O   0  0  0  0  0  0  0  0  0  0  0  0
  -10.5464    5.9669    0.0000 C   0  0  0  0  0  0  0  0  0  0  0  0
  -11.6611    6.9706    0.0000 C   0  0  0  0  0  0  0  0  0  0  0  0
  -13.0877    6.5071    0.0000 O   0  0  0  0  0  0  0  0  0  0  0  0
   -8.3170    3.9595    0.0000 C   0  0  0  0  0  0  0  0  0  0  0  0
   -9.7436    3.4960    0.0000 Cl  0  0  0  0  0  0  0  0  0  0  0  0
   -7.2023    2.9558    0.0000 C   0  0  0  0  0  0  0  0  0  0  0  0
   -5.7757    3.4194    0.0000 C   0  0  0  0  0  0  0  0  0  0  0  0
   -5.4638    1.9521    0.0000 N   0  0  0  0  0  0  0  0  0  0  0  0
   -4.5821    0.7386    0.0000 C   0  0  0  0  0  0  0  0  0  0  0  0
   -5.5858   -0.3761    0.0000 O   0  0  0  0  0  0  0  0  0  0  0  0
   -3.2831   -0.0114    0.0000 N   0  0  0  0  0  0  0  0  0  0  0  0
  1  2  3  0
  2  3  1  0
  3  4  2  0
  4  5  1  0
  5  6  2  0
  6  7  1  0
  7  8  2  0
  8  9  1  0
  9 10  1  0
 10 11  1  0
 11 12  1  0
 12 13  1  0
 13 14  1  0
 14 15  1  0
 15 16  1  0
 16 17  2  0
 17 18  1  0
 18 19  1  0
 19 20  1  0
 20 21  1  0
 21 22  1  0
 19 23  1  0
 23 24  1  0
 24 25  1  0
 18 26  2  0
 26 27  1  0
 26 28  1  0
 28 29  2  0
 29 30  1  0
 30 31  1  0
 31 32  2  0
 31 33  1  0
  8  3  1  0
 29 16  1  0
 33  6  1  0
M  END
>  <Affinity>  (10) 
4.0

>  <Affinity Type>  (10) 
IC50

>  <Affinity Unit>  (10) 
nM

>  <Scaffold>  (10) 
[#7&!R]#&!@[#6&!R]-&!@[#6&R]1:&@[#7&R]:&@[#6&R]:&@[#6&R]2:&@[#7&R]:&@[#6&R]:&@1-&@[#8&R]-&@[#6&R]-&@[#6&R]-&@[#6&R]-&@[#6&R]-&@[#6&R]-&@[#8&R]-&@[#6&R]1:&@[#6&R](-&@[#7&R]-&@[#6&R](-&@[#7&R]-&@2)=&!@[#8&!R]):&@[#6&R]:&@[#6&R](:&@[#6&R]:&@[#6&R]:&@1)-&!@[#17&!R]

$$$$
O14757_Sries14139_idx-in-all-actives-285
     RDKit          2D

 32 34  0  0  0  0  0  0  0  0999 V2000
   -4.4859  -14.9747    0.0000 C   0  0  0  0  0  0  0  0  0  0  0  0
   -4.1741  -13.5075    0.0000 C   0  0  0  0  0  0  0  0  0  0  0  0
   -5.2888  -12.5038    0.0000 C   0  0  0  0  0  0  0  0  0  0  0  0
   -2.7475  -13.0440    0.0000 C   0  0  0  0  0  0  0  0  0  0  0  0
   -2.4356  -11.5767    0.0000 C   0  0  0  0  0  0  0  0  0  0  0  0
   -1.0090  -11.1132    0.0000 O   0  0  0  0  0  0  0  0  0  0  0  0
   -0.6972   -9.6460    0.0000 C   0  0  0  0  0  0  0  0  0  0  0  0
   -1.8119   -8.6423    0.0000 C   0  0  0  0  0  0  0  0  0  0  0  0
   -1.5000   -7.1751    0.0000 C   0  0  0  0  0  0  0  0  0  0  0  0
   -0.0734   -6.7116    0.0000 C   0  0  0  0  0  0  0  0  0  0  0  0
    1.0413   -7.7152    0.0000 C   0  0  0  0  0  0  0  0  0  0  0  0
    0.7294   -9.1825    0.0000 C   0  0  0  0  0  0  0  0  0  0  0  0
    1.8442  -10.1862    0.0000 Cl  0  0  0  0  0  0  0  0  0  0  0  0
    1.0413   -5.7079    0.0000 N   0  0  0  0  0  0  0  0  0  0  0  0
    1.6514   -4.3375    0.0000 C   0  0  0  0  0  0  0  0  0  0  0  0
    3.1186   -4.6494    0.0000 O   0  0  0  0  0  0  0  0  0  0  0  0
    1.6514   -2.8375    0.0000 N   0  0  0  0  0  0  0  0  0  0  0  0
    0.7500   -1.2990    0.0000 C   0  0  0  0  0  0  0  0  0  0  0  0
    1.5000    0.0000    0.0000 C   0  0  0  0  0  0  0  0  0  0  0  0
    0.7500    1.2990    0.0000 N   0  0  0  0  0  0  0  0  0  0  0  0
   -0.7500    1.2990    0.0000 C   0  0  0  0  0  0  0  0  0  0  0  0
   -1.5000    2.5981    0.0000 C   0  0  0  0  0  0  0  0  0  0  0  0
   -2.2500    3.8971    0.0000 N   0  0  0  0  0  0  0  0  0  0  0  0
   -1.5000    0.0000    0.0000 C   0  0  0  0  0  0  0  0  0  0  0  0
   -0.7500   -1.2990    0.0000 N   0  0  0  0  0  0  0  0  0  0  0  0
   -2.9918   -0.1568    0.0000 O   0  0  0  0  0  0  0  0  0  0  0  0
   -4.2908   -0.9068    0.0000 C   0  0  0  0  0  0  0  0  0  0  0  0
   -5.1725   -2.1203    0.0000 C   0  0  0  0  0  0  0  0  0  0  0  0
   -5.4844   -3.5875    0.0000 C   0  0  0  0  0  0  0  0  0  0  0  0
   -5.1725   -5.0548    0.0000 C   0  0  0  0  0  0  0  0  0  0  0  0
   -4.2908   -6.2683    0.0000 C   0  0  0  0  0  0  0  0  0  0  0  0
   -2.9918   -7.0183    0.0000 O   0  0  0  0  0  0  0  0  0  0  0  0
  1  2  1  0
  2  3  1  0
  2  4  1  0
  4  5  1  0
  5  6  1  0
  6  7  1  0
  7  8  2  0
  8  9  1  0
  9 10  2  0
 10 11  1  0
 11 12  2  0
 12 13  1  0
 10 14  1  0
 14 15  1  0
 15 16  2  0
 15 17  1  0
 17 18  1  0
 18 19  1  0
 19 20  2  0
 20 21  1  0
 21 22  1  0
 22 23  3  0
 21 24  2  0
 24 25  1  0
 24 26  1  0
 26 27  1  0
 27 28  1  0
 28 29  1  0
 29 30  1  0
 30 31  1  0
 31 32  1  0
 12  7  1  0
 25 18  2  0
 32  9  1  0
M  END
>  <Affinity>  (11) 
1060.0

>  <Affinity Type>  (11) 
IC50

>  <Affinity Unit>  (11) 
nM

>  <Scaffold>  (11) 
[#7&!R]#&!@[#6&!R]-&!@[#6&R]1:&@[#7&R]:&@[#6&R]:&@[#6&R]2:&@[#7&R]:&@[#6&R]:&@1-&@[#8&R]-&@[#6&R]-&@[#6&R]-&@[#6&R]-&@[#6&R]-&@[#6&R]-&@[#8&R]-&@[#6&R]1:&@[#6&R](-&@[#7&R]-&@[#6&R](-&@[#7&R]-&@2)=&!@[#8&!R]):&@[#6&R]:&@[#6&R](:&@[#6&R]:&@[#6&R]:&@1)-&!@[#17&!R]

$$$$
O14757_Sries14139_idx-in-all-actives-273
     RDKit          2D

 30 32  0  0  0  0  0  0  0  0999 V2000
   -2.7475  -13.0440    0.0000 C   0  0  0  0  0  0  0  0  0  0  0  0
   -2.4356  -11.5767    0.0000 C   0  0  0  0  0  0  0  0  0  0  0  0
   -3.5503  -10.5730    0.0000 C   0  0  0  0  0  0  0  0  0  0  0  0
   -1.0090  -11.1132    0.0000 N   0  0  0  0  0  0  0  0  0  0  0  0
   -0.6972   -9.6460    0.0000 C   0  0  0  0  0  0  0  0  0  0  0  0
   -1.8119   -8.6423    0.0000 C   0  0  0  0  0  0  0  0  0  0  0  0
   -1.5000   -7.1751    0.0000 C   0  0  0  0  0  0  0  0  0  0  0  0
   -0.0734   -6.7116    0.0000 C   0  0  0  0  0  0  0  0  0  0  0  0
    1.0413   -7.7152    0.0000 C   0  0  0  0  0  0  0  0  0  0  0  0
    0.7294   -9.1825    0.0000 C   0  0  0  0  0  0  0  0  0  0  0  0
    1.8442  -10.1862    0.0000 Cl  0  0  0  0  0  0  0  0  0  0  0  0
    1.0413   -5.7079    0.0000 N   0  0  0  0  0  0  0  0  0  0  0  0
    1.6514   -4.3375    0.0000 C   0  0  0  0  0  0  0  0  0  0  0  0
    3.1186   -4.6494    0.0000 O   0  0  0  0  0  0  0  0  0  0  0  0
    1.6514   -2.8375    0.0000 N   0  0  0  0  0  0  0  0  0  0  0  0
    0.7500   -1.2990    0.0000 C   0  0  0  0  0  0  0  0  0  0  0  0
    1.5000    0.0000    0.0000 C   0  0  0  0  0  0  0  0  0  0  0  0
    0.7500    1.2990    0.0000 N   0  0  0  0  0  0  0  0  0  0  0  0
   -0.7500    1.2990    0.0000 C   0  0  0  0  0  0  0  0  0  0  0  0
   -1.5000    2.5981    0.0000 C   0  0  0  0  0  0  0  0  0  0  0  0
   -2.2500    3.8971    0.0000 N   0  0  0  0  0  0  0  0  0  0  0  0
   -1.5000    0.0000    0.0000 C   0  0  0  0  0  0  0  0  0  0  0  0
   -0.7500   -1.2990    0.0000 N   0  0  0  0  0  0  0  0  0  0  0  0
   -2.9918   -0.1568    0.0000 O   0  0  0  0  0  0  0  0  0  0  0  0
   -4.2908   -0.9068    0.0000 C   0  0  0  0  0  0  0  0  0  0  0  0
   -5.1725   -2.1203    0.0000 C   0  0  0  0  0  0  0  0  0  0  0  0
   -5.4844   -3.5875    0.0000 C   0  0  0  0  0  0  0  0  0  0  0  0
   -5.1725   -5.0548    0.0000 C   0  0  0  0  0  0  0  0  0  0  0  0
   -4.2908   -6.2683    0.0000 C   0  0  0  0  0  0  0  0  0  0  0  0
   -2.9918   -7.0183    0.0000 O   0  0  0  0  0  0  0  0  0  0  0  0
  1  2  1  0
  2  3  1  0
  2  4  1  0
  4  5  1  0
  5  6  2  0
  6  7  1  0
  7  8  2  0
  8  9  1  0
  9 10  2  0
 10 11  1  0
  8 12  1  0
 12 13  1  0
 13 14  2  0
 13 15  1  0
 15 16  1  0
 16 17  1  0
 17 18  2  0
 18 19  1  0
 19 20  1  0
 20 21  3  0
 19 22  2  0
 22 23  1  0
 22 24  1  0
 24 25  1  0
 25 26  1  0
 26 27  1  0
 27 28  1  0
 28 29  1  0
 29 30  1  0
 10  5  1  0
 23 16  2  0
 30  7  1  0
M  END
>  <Affinity>  (12) 
11.0

>  <Affinity Type>  (12) 
IC50

>  <Affinity Unit>  (12) 
nM

>  <Scaffold>  (12) 
[#7&!R]#&!@[#6&!R]-&!@[#6&R]1:&@[#7&R]:&@[#6&R]:&@[#6&R]2:&@[#7&R]:&@[#6&R]:&@1-&@[#8&R]-&@[#6&R]-&@[#6&R]-&@[#6&R]-&@[#6&R]-&@[#6&R]-&@[#8&R]-&@[#6&R]1:&@[#6&R](-&@[#7&R]-&@[#6&R](-&@[#7&R]-&@2)=&!@[#8&!R]):&@[#6&R]:&@[#6&R](:&@[#6&R]:&@[#6&R]:&@1)-&!@[#17&!R]

$$$$
O14757_Sries14139_idx-in-all-actives-259
     RDKit          2D

 31 33  0  0  0  0  0  0  0  0999 V2000
   -2.7475  -13.0440    0.0000 C   0  0  0  0  0  0  0  0  0  0  0  0
   -2.4356  -11.5767    0.0000 C   0  0  0  0  0  0  0  0  0  0  0  0
   -1.0090  -11.1132    0.0000 N   0  0  0  0  0  0  0  0  0  0  0  0
    0.1057  -12.1169    0.0000 C   0  0  0  0  0  0  0  0  0  0  0  0
   -0.2062  -13.5841    0.0000 C   0  0  0  0  0  0  0  0  0  0  0  0
   -0.6972   -9.6460    0.0000 C   0  0  0  0  0  0  0  0  0  0  0  0
   -1.8119   -8.6423    0.0000 C   0  0  0  0  0  0  0  0  0  0  0  0
   -1.5000   -7.1751    0.0000 C   0  0  0  0  0  0  0  0  0  0  0  0
   -0.0734   -6.7116    0.0000 C   0  0  0  0  0  0  0  0  0  0  0  0
    1.0413   -7.7152    0.0000 C   0  0  0  0  0  0  0  0  0  0  0  0
    0.7294   -9.1825    0.0000 C   0  0  0  0  0  0  0  0  0  0  0  0
    1.8442  -10.1862    0.0000 Cl  0  0  0  0  0  0  0  0  0  0  0  0
    1.0413   -5.7079    0.0000 N   0  0  0  0  0  0  0  0  0  0  0  0
    1.6514   -4.3375    0.0000 C   0  0  0  0  0  0  0  0  0  0  0  0
    3.1186   -4.6494    0.0000 O   0  0  0  0  0  0  0  0  0  0  0  0
    1.6514   -2.8375    0.0000 N   0  0  0  0  0  0  0  0  0  0  0  0
    0.7500   -1.2990    0.0000 C   0  0  0  0  0  0  0  0  0  0  0  0
    1.5000    0.0000    0.0000 C   0  0  0  0  0  0  0  0  0  0  0  0
    0.7500    1.2990    0.0000 N   0  0  0  0  0  0  0  0  0  0  0  0
   -0.7500    1.2990    0.0000 C   0  0  0  0  0  0  0  0  0  0  0  0
   -1.5000    2.5981    0.0000 C   0  0  0  0  0  0  0  0  0  0  0  0
   -2.2500    3.8971    0.0000 N   0  0  0  0  0  0  0  0  0  0  0  0
   -1.5000    0.0000    0.0000 C   0  0  0  0  0  0  0  0  0  0  0  0
   -0.7500   -1.2990    0.0000 N   0  0  0  0  0  0  0  0  0  0  0  0
   -2.9918   -0.1568    0.0000 O   0  0  0  0  0  0  0  0  0  0  0  0
   -4.2908   -0.9068    0.0000 C   0  0  0  0  0  0  0  0  0  0  0  0
   -5.1725   -2.1203    0.0000 C   0  0  0  0  0  0  0  0  0  0  0  0
   -5.4844   -3.5875    0.0000 C   0  0  0  0  0  0  0  0  0  0  0  0
   -5.1725   -5.0548    0.0000 C   0  0  0  0  0  0  0  0  0  0  0  0
   -4.2908   -6.2683    0.0000 C   0  0  0  0  0  0  0  0  0  0  0  0
   -2.9918   -7.0183    0.0000 O   0  0  0  0  0  0  0  0  0  0  0  0
  1  2  1  0
  2  3  1  0
  3  4  1  0
  4  5  1  0
  3  6  1  0
  6  7  2  0
  7  8  1  0
  8  9  2  0
  9 10  1  0
 10 11  2  0
 11 12  1  0
  9 13  1  0
 13 14  1  0
 14 15  2  0
 14 16  1  0
 16 17  1  0
 17 18  1  0
 18 19  2  0
 19 20  1  0
 20 21  1  0
 21 22  3  0
 20 23  2  0
 23 24  1  0
 23 25  1  0
 25 26  1  0
 26 27  1  0
 27 28  1  0
 28 29  1  0
 29 30  1  0
 30 31  1  0
 11  6  1  0
 24 17  2  0
 31  8  1  0
M  END
>  <Affinity>  (13) 
248.0

>  <Affinity Type>  (13) 
IC50

>  <Affinity Unit>  (13) 
nM

>  <Scaffold>  (13) 
[#7&!R]#&!@[#6&!R]-&!@[#6&R]1:&@[#7&R]:&@[#6&R]:&@[#6&R]2:&@[#7&R]:&@[#6&R]:&@1-&@[#8&R]-&@[#6&R]-&@[#6&R]-&@[#6&R]-&@[#6&R]-&@[#6&R]-&@[#8&R]-&@[#6&R]1:&@[#6&R](-&@[#7&R]-&@[#6&R](-&@[#7&R]-&@2)=&!@[#8&!R]):&@[#6&R]:&@[#6&R](:&@[#6&R]:&@[#6&R]:&@1)-&!@[#17&!R]

$$$$
O14757_Sries14139_idx-in-all-actives-286
     RDKit          2D

 32 34  0  0  0  0  0  0  0  0999 V2000
   -4.4859  -14.9747    0.0000 C   0  0  0  0  0  0  0  0  0  0  0  0
   -4.1741  -13.5075    0.0000 N   0  0  0  0  0  0  0  0  0  0  0  0
   -5.2888  -12.5038    0.0000 C   0  0  0  0  0  0  0  0  0  0  0  0
   -2.7475  -13.0440    0.0000 C   0  0  0  0  0  0  0  0  0  0  0  0
   -2.4356  -11.5767    0.0000 C   0  0  0  0  0  0  0  0  0  0  0  0
   -1.0090  -11.1132    0.0000 O   0  0  0  0  0  0  0  0  0  0  0  0
   -0.6972   -9.6460    0.0000 C   0  0  0  0  0  0  0  0  0  0  0  0
   -1.8119   -8.6423    0.0000 C   0  0  0  0  0  0  0  0  0  0  0  0
   -1.5000   -7.1751    0.0000 C   0  0  0  0  0  0  0  0  0  0  0  0
   -0.0734   -6.7116    0.0000 C   0  0  0  0  0  0  0  0  0  0  0  0
    1.0413   -7.7152    0.0000 C   0  0  0  0  0  0  0  0  0  0  0  0
    0.7294   -9.1825    0.0000 C   0  0  0  0  0  0  0  0  0  0  0  0
    1.8442  -10.1862    0.0000 Cl  0  0  0  0  0  0  0  0  0  0  0  0
    1.0413   -5.7079    0.0000 N   0  0  0  0  0  0  0  0  0  0  0  0
    1.6514   -4.3375    0.0000 C   0  0  0  0  0  0  0  0  0  0  0  0
    3.1186   -4.6494    0.0000 O   0  0  0  0  0  0  0  0  0  0  0  0
    1.6514   -2.8375    0.0000 N   0  0  0  0  0  0  0  0  0  0  0  0
    0.7500   -1.2990    0.0000 C   0  0  0  0  0  0  0  0  0  0  0  0
    1.5000    0.0000    0.0000 C   0  0  0  0  0  0  0  0  0  0  0  0
    0.7500    1.2990    0.0000 N   0  0  0  0  0  0  0  0  0  0  0  0
   -0.7500    1.2990    0.0000 C   0  0  0  0  0  0  0  0  0  0  0  0
   -1.5000    2.5981    0.0000 C   0  0  0  0  0  0  0  0  0  0  0  0
   -2.2500    3.8971    0.0000 N   0  0  0  0  0  0  0  0  0  0  0  0
   -1.5000    0.0000    0.0000 C   0  0  0  0  0  0  0  0  0  0  0  0
   -0.7500   -1.2990    0.0000 N   0  0  0  0  0  0  0  0  0  0  0  0
   -2.9918   -0.1568    0.0000 O   0  0  0  0  0  0  0  0  0  0  0  0
   -4.2908   -0.9068    0.0000 C   0  0  0  0  0  0  0  0  0  0  0  0
   -5.1725   -2.1203    0.0000 C   0  0  0  0  0  0  0  0  0  0  0  0
   -5.4844   -3.5875    0.0000 C   0  0  0  0  0  0  0  0  0  0  0  0
   -5.1725   -5.0548    0.0000 C   0  0  0  0  0  0  0  0  0  0  0  0
   -4.2908   -6.2683    0.0000 C   0  0  0  0  0  0  0  0  0  0  0  0
   -2.9918   -7.0183    0.0000 O   0  0  0  0  0  0  0  0  0  0  0  0
  1  2  1  0
  2  3  1  0
  2  4  1  0
  4  5  1  0
  5  6  1  0
  6  7  1  0
  7  8  2  0
  8  9  1  0
  9 10  2  0
 10 11  1  0
 11 12  2  0
 12 13  1  0
 10 14  1  0
 14 15  1  0
 15 16  2  0
 15 17  1  0
 17 18  1  0
 18 19  1  0
 19 20  2  0
 20 21  1  0
 21 22  1  0
 22 23  3  0
 21 24  2  0
 24 25  1  0
 24 26  1  0
 26 27  1  0
 27 28  1  0
 28 29  1  0
 29 30  1  0
 30 31  1  0
 31 32  1  0
 12  7  1  0
 25 18  2  0
 32  9  1  0
M  END
>  <Affinity>  (14) 
1.0

>  <Affinity Type>  (14) 
IC50

>  <Affinity Unit>  (14) 
nM

>  <Scaffold>  (14) 
[#7&!R]#&!@[#6&!R]-&!@[#6&R]1:&@[#7&R]:&@[#6&R]:&@[#6&R]2:&@[#7&R]:&@[#6&R]:&@1-&@[#8&R]-&@[#6&R]-&@[#6&R]-&@[#6&R]-&@[#6&R]-&@[#6&R]-&@[#8&R]-&@[#6&R]1:&@[#6&R](-&@[#7&R]-&@[#6&R](-&@[#7&R]-&@2)=&!@[#8&!R]):&@[#6&R]:&@[#6&R](:&@[#6&R]:&@[#6&R]:&@1)-&!@[#17&!R]

$$$$
O14757_Sries14139_idx-in-all-actives-274
     RDKit          2D

 30 32  0  0  0  0  0  0  0  0999 V2000
    4.5000    0.0000    0.0000 N   0  0  0  0  0  0  0  0  0  0  0  0
    3.0000    0.0000    0.0000 C   0  0  0  0  0  0  0  0  0  0  0  0
    1.5000    0.0000    0.0000 C   0  0  0  0  0  0  0  0  0  0  0  0
    0.7500   -1.2990    0.0000 N   0  0  0  0  0  0  0  0  0  0  0  0
   -0.7500   -1.2990    0.0000 C   0  0  0  0  0  0  0  0  0  0  0  0
   -1.5000    0.0000    0.0000 C   0  0  0  0  0  0  0  0  0  0  0  0
   -0.7500    1.2990    0.0000 N   0  0  0  0  0  0  0  0  0  0  0  0
    0.7500    1.2990    0.0000 C   0  0  0  0  0  0  0  0  0  0  0  0
    1.3601    2.6694    0.0000 O   0  0  0  0  0  0  0  0  0  0  0  0
    1.3601    4.1694    0.0000 C   0  0  0  0  0  0  0  0  0  0  0  0
    0.7500    5.5397    0.0000 C   0  0  0  0  0  0  0  0  0  0  0  0
   -0.3647    6.5434    0.0000 C   0  0  0  0  0  0  0  0  0  0  0  0
   -1.7913    7.0069    0.0000 C   0  0  0  0  0  0  0  0  0  0  0  0
   -3.2831    6.8501    0.0000 C   0  0  0  0  0  0  0  0  0  0  0  0
   -4.5821    6.1001    0.0000 O   0  0  0  0  0  0  0  0  0  0  0  0
   -5.4638    4.8866    0.0000 C   0  0  0  0  0  0  0  0  0  0  0  0
   -6.5785    5.8903    0.0000 C   0  0  0  0  0  0  0  0  0  0  0  0
   -8.0051    5.4267    0.0000 C   0  0  0  0  0  0  0  0  0  0  0  0
   -9.1198    6.4304    0.0000 N   0  0  0  0  0  0  0  0  0  0  0  0
   -8.8080    7.8977    0.0000 C   0  0  0  0  0  0  0  0  0  0  0  0
   -9.9227    8.9014    0.0000 C   0  0  0  0  0  0  0  0  0  0  0  0
   -9.6108   10.3686    0.0000 O   0  0  0  0  0  0  0  0  0  0  0  0
   -8.3170    3.9595    0.0000 C   0  0  0  0  0  0  0  0  0  0  0  0
   -9.7436    3.4960    0.0000 Cl  0  0  0  0  0  0  0  0  0  0  0  0
   -7.2023    2.9558    0.0000 C   0  0  0  0  0  0  0  0  0  0  0  0
   -5.7757    3.4194    0.0000 C   0  0  0  0  0  0  0  0  0  0  0  0
   -5.4638    1.9521    0.0000 N   0  0  0  0  0  0  0  0  0  0  0  0
   -4.5821    0.7386    0.0000 C   0  0  0  0  0  0  0  0  0  0  0  0
   -5.5858   -0.3761    0.0000 O   0  0  0  0  0  0  0  0  0  0  0  0
   -3.2831   -0.0114    0.0000 N   0  0  0  0  0  0  0  0  0  0  0  0
  1  2  3  0
  2  3  1  0
  3  4  2  0
  4  5  1  0
  5  6  2  0
  6  7  1  0
  7  8  2  0
  8  9  1  0
  9 10  1  0
 10 11  1  0
 11 12  1  0
 12 13  1  0
 13 14  1  0
 14 15  1  0
 15 16  1  0
 16 17  2  0
 17 18  1  0
 18 19  1  0
 19 20  1  0
 20 21  1  0
 21 22  1  0
 18 23  2  0
 23 24  1  0
 23 25  1  0
 25 26  2  0
 26 27  1  0
 27 28  1  0
 28 29  2  0
 28 30  1  0
  8  3  1  0
 26 16  1  0
 30  6  1  0
M  END
>  <Affinity>  (15) 
2.0

>  <Affinity Type>  (15) 
IC50

>  <Affinity Unit>  (15) 
nM

>  <Scaffold>  (15) 
[#7&!R]#&!@[#6&!R]-&!@[#6&R]1:&@[#7&R]:&@[#6&R]:&@[#6&R]2:&@[#7&R]:&@[#6&R]:&@1-&@[#8&R]-&@[#6&R]-&@[#6&R]-&@[#6&R]-&@[#6&R]-&@[#6&R]-&@[#8&R]-&@[#6&R]1:&@[#6&R](-&@[#7&R]-&@[#6&R](-&@[#7&R]-&@2)=&!@[#8&!R]):&@[#6&R]:&@[#6&R](:&@[#6&R]:&@[#6&R]:&@1)-&!@[#17&!R]

$$$$
O14757_Sries14139_idx-in-all-actives-260
     RDKit          2D

 29 31  0  0  0  0  0  0  0  0999 V2000
   -2.4356  -11.5767    0.0000 C   0  0  0  0  0  0  0  0  0  0  0  0
   -1.0090  -11.1132    0.0000 N   0  0  0  0  0  0  0  0  0  0  0  0
    0.1057  -12.1169    0.0000 C   0  0  0  0  0  0  0  0  0  0  0  0
   -0.6972   -9.6460    0.0000 C   0  0  0  0  0  0  0  0  0  0  0  0
   -1.8119   -8.6423    0.0000 C   0  0  0  0  0  0  0  0  0  0  0  0
   -1.5000   -7.1751    0.0000 C   0  0  0  0  0  0  0  0  0  0  0  0
   -0.0734   -6.7116    0.0000 C   0  0  0  0  0  0  0  0  0  0  0  0
    1.0413   -7.7152    0.0000 C   0  0  0  0  0  0  0  0  0  0  0  0
    0.7294   -9.1825    0.0000 C   0  0  0  0  0  0  0  0  0  0  0  0
    1.8442  -10.1862    0.0000 Cl  0  0  0  0  0  0  0  0  0  0  0  0
    1.0413   -5.7079    0.0000 N   0  0  0  0  0  0  0  0  0  0  0  0
    1.6514   -4.3375    0.0000 C   0  0  0  0  0  0  0  0  0  0  0  0
    3.1186   -4.6494    0.0000 O   0  0  0  0  0  0  0  0  0  0  0  0
    1.6514   -2.8375    0.0000 N   0  0  0  0  0  0  0  0  0  0  0  0
    0.7500   -1.2990    0.0000 C   0  0  0  0  0  0  0  0  0  0  0  0
    1.5000    0.0000    0.0000 C   0  0  0  0  0  0  0  0  0  0  0  0
    0.7500    1.2990    0.0000 N   0  0  0  0  0  0  0  0  0  0  0  0
   -0.7500    1.2990    0.0000 C   0  0  0  0  0  0  0  0  0  0  0  0
   -1.5000    2.5981    0.0000 C   0  0  0  0  0  0  0  0  0  0  0  0
   -2.2500    3.8971    0.0000 N   0  0  0  0  0  0  0  0  0  0  0  0
   -1.5000    0.0000    0.0000 C   0  0  0  0  0  0  0  0  0  0  0  0
   -0.7500   -1.2990    0.0000 N   0  0  0  0  0  0  0  0  0  0  0  0
   -2.9918   -0.1568    0.0000 O   0  0  0  0  0  0  0  0  0  0  0  0
   -4.2908   -0.9068    0.0000 C   0  0  0  0  0  0  0  0  0  0  0  0
   -5.1725   -2.1203    0.0000 C   0  0  0  0  0  0  0  0  0  0  0  0
   -5.4844   -3.5875    0.0000 C   0  0  0  0  0  0  0  0  0  0  0  0
   -5.1725   -5.0548    0.0000 C   0  0  0  0  0  0  0  0  0  0  0  0
   -4.2908   -6.2683    0.0000 C   0  0  0  0  0  0  0  0  0  0  0  0
   -2.9918   -7.0183    0.0000 O   0  0  0  0  0  0  0  0  0  0  0  0
  1  2  1  0
  2  3  1  0
  2  4  1  0
  4  5  2  0
  5  6  1  0
  6  7  2  0
  7  8  1  0
  8  9  2  0
  9 10  1  0
  7 11  1  0
 11 12  1  0
 12 13  2  0
 12 14  1  0
 14 15  1  0
 15 16  1  0
 16 17  2  0
 17 18  1  0
 18 19  1  0
 19 20  3  0
 18 21  2  0
 21 22  1  0
 21 23  1  0
 23 24  1  0
 24 25  1  0
 25 26  1  0
 26 27  1  0
 27 28  1  0
 28 29  1  0
  9  4  1  0
 22 15  2  0
 29  6  1  0
M  END
>  <Affinity>  (16) 
7.0

>  <Affinity Type>  (16) 
IC50

>  <Affinity Unit>  (16) 
nM

>  <Scaffold>  (16) 
[#7&!R]#&!@[#6&!R]-&!@[#6&R]1:&@[#7&R]:&@[#6&R]:&@[#6&R]2:&@[#7&R]:&@[#6&R]:&@1-&@[#8&R]-&@[#6&R]-&@[#6&R]-&@[#6&R]-&@[#6&R]-&@[#6&R]-&@[#8&R]-&@[#6&R]1:&@[#6&R](-&@[#7&R]-&@[#6&R](-&@[#7&R]-&@2)=&!@[#8&!R]):&@[#6&R]:&@[#6&R](:&@[#6&R]:&@[#6&R]:&@1)-&!@[#17&!R]

$$$$
O14757_Sries14139_idx-in-all-actives-287
     RDKit          2D

 34 36  0  0  0  0  0  0  0  0999 V2000
   -7.6510  -17.3690    0.0000 C   0  0  0  0  0  0  0  0  0  0  0  0
   -6.2244  -16.9055    0.0000 O   0  0  0  0  0  0  0  0  0  0  0  0
   -5.9125  -15.4382    0.0000 C   0  0  0  0  0  0  0  0  0  0  0  0
   -4.4859  -14.9747    0.0000 C   0  0  0  0  0  0  0  0  0  0  0  0
   -4.1741  -13.5075    0.0000 O   0  0  0  0  0  0  0  0  0  0  0  0
   -2.7475  -13.0440    0.0000 C   0  0  0  0  0  0  0  0  0  0  0  0
   -2.4356  -11.5767    0.0000 C   0  0  0  0  0  0  0  0  0  0  0  0
   -1.0090  -11.1132    0.0000 O   0  0  0  0  0  0  0  0  0  0  0  0
   -0.6972   -9.6460    0.0000 C   0  0  0  0  0  0  0  0  0  0  0  0
   -1.8119   -8.6423    0.0000 C   0  0  0  0  0  0  0  0  0  0  0  0
   -1.5000   -7.1751    0.0000 C   0  0  0  0  0  0  0  0  0  0  0  0
   -0.0734   -6.7116    0.0000 C   0  0  0  0  0  0  0  0  0  0  0  0
    1.0413   -7.7152    0.0000 C   0  0  0  0  0  0  0  0  0  0  0  0
    0.7294   -9.1825    0.0000 C   0  0  0  0  0  0  0  0  0  0  0  0
    1.8442  -10.1862    0.0000 Cl  0  0  0  0  0  0  0  0  0  0  0  0
    1.0413   -5.7079    0.0000 N   0  0  0  0  0  0  0  0  0  0  0  0
    1.6514   -4.3375    0.0000 C   0  0  0  0  0  0  0  0  0  0  0  0
    3.1186   -4.6494    0.0000 O   0  0  0  0  0  0  0  0  0  0  0  0
    1.6514   -2.8375    0.0000 N   0  0  0  0  0  0  0  0  0  0  0  0
    0.7500   -1.2990    0.0000 C   0  0  0  0  0  0  0  0  0  0  0  0
    1.5000    0.0000    0.0000 C   0  0  0  0  0  0  0  0  0  0  0  0
    0.7500    1.2990    0.0000 N   0  0  0  0  0  0  0  0  0  0  0  0
   -0.7500    1.2990    0.0000 C   0  0  0  0  0  0  0  0  0  0  0  0
   -1.5000    2.5981    0.0000 C   0  0  0  0  0  0  0  0  0  0  0  0
   -2.2500    3.8971    0.0000 N   0  0  0  0  0  0  0  0  0  0  0  0
   -1.5000    0.0000    0.0000 C   0  0  0  0  0  0  0  0  0  0  0  0
   -0.7500   -1.2990    0.0000 N   0  0  0  0  0  0  0  0  0  0  0  0
   -2.9918   -0.1568    0.0000 O   0  0  0  0  0  0  0  0  0  0  0  0
   -4.2908   -0.9068    0.0000 C   0  0  0  0  0  0  0  0  0  0  0  0
   -5.1725   -2.1203    0.0000 C   0  0  0  0  0  0  0  0  0  0  0  0
   -5.4844   -3.5875    0.0000 C   0  0  0  0  0  0  0  0  0  0  0  0
   -5.1725   -5.0548    0.0000 C   0  0  0  0  0  0  0  0  0  0  0  0
   -4.2908   -6.2683    0.0000 C   0  0  0  0  0  0  0  0  0  0  0  0
   -2.9918   -7.0183    0.0000 O   0  0  0  0  0  0  0  0  0  0  0  0
  1  2  1  0
  2  3  1  0
  3  4  1  0
  4  5  1  0
  5  6  1  0
  6  7  1  0
  7  8  1  0
  8  9  1  0
  9 10  2  0
 10 11  1  0
 11 12  2  0
 12 13  1  0
 13 14  2  0
 14 15  1  0
 12 16  1  0
 16 17  1  0
 17 18  2  0
 17 19  1  0
 19 20  1  0
 20 21  1  0
 21 22  2  0
 22 23  1  0
 23 24  1  0
 24 25  3  0
 23 26  2  0
 26 27  1  0
 26 28  1  0
 28 29  1  0
 29 30  1  0
 30 31  1  0
 31 32  1  0
 32 33  1  0
 33 34  1  0
 14  9  1  0
 27 20  2  0
 34 11  1  0
M  END
>  <Affinity>  (17) 
9.0

>  <Affinity Type>  (17) 
IC50

>  <Affinity Unit>  (17) 
nM

>  <Scaffold>  (17) 
[#7&!R]#&!@[#6&!R]-&!@[#6&R]1:&@[#7&R]:&@[#6&R]:&@[#6&R]2:&@[#7&R]:&@[#6&R]:&@1-&@[#8&R]-&@[#6&R]-&@[#6&R]-&@[#6&R]-&@[#6&R]-&@[#6&R]-&@[#8&R]-&@[#6&R]1:&@[#6&R](-&@[#7&R]-&@[#6&R](-&@[#7&R]-&@2)=&!@[#8&!R]):&@[#6&R]:&@[#6&R](:&@[#6&R]:&@[#6&R]:&@1)-&!@[#17&!R]

$$$$
O14757_Sries14139_idx-in-all-actives-275
     RDKit          2D

 31 33  0  0  0  0  0  0  0  0999 V2000
   -4.4859  -14.9747    0.0000 C   0  0  0  0  0  0  0  0  0  0  0  0
   -4.1741  -13.5075    0.0000 C   0  0  0  0  0  0  0  0  0  0  0  0
   -2.7475  -13.0440    0.0000 C   0  0  0  0  0  0  0  0  0  0  0  0
   -2.4356  -11.5767    0.0000 C   0  0  0  0  0  0  0  0  0  0  0  0
   -1.0090  -11.1132    0.0000 N   0  0  0  0  0  0  0  0  0  0  0  0
   -0.6972   -9.6460    0.0000 C   0  0  0  0  0  0  0  0  0  0  0  0
   -1.8119   -8.6423    0.0000 C   0  0  0  0  0  0  0  0  0  0  0  0
   -1.5000   -7.1751    0.0000 C   0  0  0  0  0  0  0  0  0  0  0  0
   -0.0734   -6.7116    0.0000 C   0  0  0  0  0  0  0  0  0  0  0  0
    1.0413   -7.7152    0.0000 C   0  0  0  0  0  0  0  0  0  0  0  0
    0.7294   -9.1825    0.0000 C   0  0  0  0  0  0  0  0  0  0  0  0
    1.8442  -10.1862    0.0000 Cl  0  0  0  0  0  0  0  0  0  0  0  0
    1.0413   -5.7079    0.0000 N   0  0  0  0  0  0  0  0  0  0  0  0
    1.6514   -4.3375    0.0000 C   0  0  0  0  0  0  0  0  0  0  0  0
    3.1186   -4.6494    0.0000 O   0  0  0  0  0  0  0  0  0  0  0  0
    1.6514   -2.8375    0.0000 N   0  0  0  0  0  0  0  0  0  0  0  0
    0.7500   -1.2990    0.0000 C   0  0  0  0  0  0  0  0  0  0  0  0
    1.5000    0.0000    0.0000 C   0  0  0  0  0  0  0  0  0  0  0  0
    0.7500    1.2990    0.0000 N   0  0  0  0  0  0  0  0  0  0  0  0
   -0.7500    1.2990    0.0000 C   0  0  0  0  0  0  0  0  0  0  0  0
   -1.5000    2.5981    0.0000 C   0  0  0  0  0  0  0  0  0  0  0  0
   -2.2500    3.8971    0.0000 N   0  0  0  0  0  0  0  0  0  0  0  0
   -1.5000    0.0000    0.0000 C   0  0  0  0  0  0  0  0  0  0  0  0
   -0.7500   -1.2990    0.0000 N   0  0  0  0  0  0  0  0  0  0  0  0
   -2.9918   -0.1568    0.0000 O   0  0  0  0  0  0  0  0  0  0  0  0
   -4.2908   -0.9068    0.0000 C   0  0  0  0  0  0  0  0  0  0  0  0
   -5.1725   -2.1203    0.0000 C   0  0  0  0  0  0  0  0  0  0  0  0
   -5.4844   -3.5875    0.0000 C   0  0  0  0  0  0  0  0  0  0  0  0
   -5.1725   -5.0548    0.0000 C   0  0  0  0  0  0  0  0  0  0  0  0
   -4.2908   -6.2683    0.0000 C   0  0  0  0  0  0  0  0  0  0  0  0
   -2.9918   -7.0183    0.0000 O   0  0  0  0  0  0  0  0  0  0  0  0
  1  2  1  0
  2  3  1  0
  3  4  1  0
  4  5  1  0
  5  6  1  0
  6  7  2  0
  7  8  1  0
  8  9  2  0
  9 10  1  0
 10 11  2  0
 11 12  1  0
  9 13  1  0
 13 14  1  0
 14 15  2  0
 14 16  1  0
 16 17  1  0
 17 18  1  0
 18 19  2  0
 19 20  1  0
 20 21  1  0
 21 22  3  0
 20 23  2  0
 23 24  1  0
 23 25  1  0
 25 26  1  0
 26 27  1  0
 27 28  1  0
 28 29  1  0
 29 30  1  0
 30 31  1  0
 11  6  1  0
 24 17  2  0
 31  8  1  0
M  END
>  <Affinity>  (18) 
15.0

>  <Affinity Type>  (18) 
IC50

>  <Affinity Unit>  (18) 
nM

>  <Scaffold>  (18) 
[#7&!R]#&!@[#6&!R]-&!@[#6&R]1:&@[#7&R]:&@[#6&R]:&@[#6&R]2:&@[#7&R]:&@[#6&R]:&@1-&@[#8&R]-&@[#6&R]-&@[#6&R]-&@[#6&R]-&@[#6&R]-&@[#6&R]-&@[#8&R]-&@[#6&R]1:&@[#6&R](-&@[#7&R]-&@[#6&R](-&@[#7&R]-&@2)=&!@[#8&!R]):&@[#6&R]:&@[#6&R](:&@[#6&R]:&@[#6&R]:&@1)-&!@[#17&!R]

$$$$
O14757_Sries14139_idx-in-all-actives-261
     RDKit          2D

 31 33  0  0  0  0  0  0  0  0999 V2000
   -3.8622  -12.0403    0.0000 C   0  0  0  0  0  0  0  0  0  0  0  0
   -2.4356  -11.5767    0.0000 S   0  0  0  0  0  0  0  0  0  0  0  0
   -2.8991  -10.1502    0.0000 O   0  0  0  0  0  0  0  0  0  0  0  0
   -1.9721  -13.0033    0.0000 O   0  0  0  0  0  0  0  0  0  0  0  0
   -1.0090  -11.1132    0.0000 N   0  0  0  0  0  0  0  0  0  0  0  0
   -0.6972   -9.6460    0.0000 C   0  0  0  0  0  0  0  0  0  0  0  0
   -1.8119   -8.6423    0.0000 C   0  0  0  0  0  0  0  0  0  0  0  0
   -1.5000   -7.1751    0.0000 C   0  0  0  0  0  0  0  0  0  0  0  0
   -0.0734   -6.7116    0.0000 C   0  0  0  0  0  0  0  0  0  0  0  0
    1.0413   -7.7152    0.0000 C   0  0  0  0  0  0  0  0  0  0  0  0
    0.7294   -9.1825    0.0000 C   0  0  0  0  0  0  0  0  0  0  0  0
    1.8442  -10.1862    0.0000 Cl  0  0  0  0  0  0  0  0  0  0  0  0
    1.0413   -5.7079    0.0000 N   0  0  0  0  0  0  0  0  0  0  0  0
    1.6514   -4.3375    0.0000 C   0  0  0  0  0  0  0  0  0  0  0  0
    3.1186   -4.6494    0.0000 O   0  0  0  0  0  0  0  0  0  0  0  0
    1.6514   -2.8375    0.0000 N   0  0  0  0  0  0  0  0  0  0  0  0
    0.7500   -1.2990    0.0000 C   0  0  0  0  0  0  0  0  0  0  0  0
    1.5000    0.0000    0.0000 C   0  0  0  0  0  0  0  0  0  0  0  0
    0.7500    1.2990    0.0000 N   0  0  0  0  0  0  0  0  0  0  0  0
   -0.7500    1.2990    0.0000 C   0  0  0  0  0  0  0  0  0  0  0  0
   -1.5000    2.5981    0.0000 C   0  0  0  0  0  0  0  0  0  0  0  0
   -2.2500    3.8971    0.0000 N   0  0  0  0  0  0  0  0  0  0  0  0
   -1.5000    0.0000    0.0000 C   0  0  0  0  0  0  0  0  0  0  0  0
   -0.7500   -1.2990    0.0000 N   0  0  0  0  0  0  0  0  0  0  0  0
   -2.9918   -0.1568    0.0000 O   0  0  0  0  0  0  0  0  0  0  0  0
   -4.2908   -0.9068    0.0000 C   0  0  0  0  0  0  0  0  0  0  0  0
   -5.1725   -2.1203    0.0000 C   0  0  0  0  0  0  0  0  0  0  0  0
   -5.4844   -3.5875    0.0000 C   0  0  0  0  0  0  0  0  0  0  0  0
   -5.1725   -5.0548    0.0000 C   0  0  0  0  0  0  0  0  0  0  0  0
   -4.2908   -6.2683    0.0000 C   0  0  0  0  0  0  0  0  0  0  0  0
   -2.9918   -7.0183    0.0000 O   0  0  0  0  0  0  0  0  0  0  0  0
  1  2  1  0
  2  3  2  0
  2  4  2  0
  2  5  1  0
  5  6  1  0
  6  7  2  0
  7  8  1  0
  8  9  2  0
  9 10  1  0
 10 11  2  0
 11 12  1  0
  9 13  1  0
 13 14  1  0
 14 15  2  0
 14 16  1  0
 16 17  1  0
 17 18  1  0
 18 19  2  0
 19 20  1  0
 20 21  1  0
 21 22  3  0
 20 23  2  0
 23 24  1  0
 23 25  1  0
 25 26  1  0
 26 27  1  0
 27 28  1  0
 28 29  1  0
 29 30  1  0
 30 31  1  0
 11  6  1  0
 24 17  2  0
 31  8  1  0
M  END
>  <Affinity>  (19) 
15.0

>  <Affinity Type>  (19) 
IC50

>  <Affinity Unit>  (19) 
nM

>  <Scaffold>  (19) 
[#7&!R]#&!@[#6&!R]-&!@[#6&R]1:&@[#7&R]:&@[#6&R]:&@[#6&R]2:&@[#7&R]:&@[#6&R]:&@1-&@[#8&R]-&@[#6&R]-&@[#6&R]-&@[#6&R]-&@[#6&R]-&@[#6&R]-&@[#8&R]-&@[#6&R]1:&@[#6&R](-&@[#7&R]-&@[#6&R](-&@[#7&R]-&@2)=&!@[#8&!R]):&@[#6&R]:&@[#6&R](:&@[#6&R]:&@[#6&R]:&@1)-&!@[#17&!R]

$$$$
O14757_Sries14139_idx-in-all-actives-252
     RDKit          2D

 30 32  0  0  0  0  0  0  0  0999 V2000
    4.5000    0.0000    0.0000 N   0  0  0  0  0  0  0  0  0  0  0  0
    3.0000    0.0000    0.0000 C   0  0  0  0  0  0  0  0  0  0  0  0
    1.5000    0.0000    0.0000 C   0  0  0  0  0  0  0  0  0  0  0  0
    0.7500   -1.2990    0.0000 N   0  0  0  0  0  0  0  0  0  0  0  0
   -0.7500   -1.2990    0.0000 C   0  0  0  0  0  0  0  0  0  0  0  0
   -1.5000    0.0000    0.0000 C   0  0  0  0  0  0  0  0  0  0  0  0
   -0.7500    1.2990    0.0000 N   0  0  0  0  0  0  0  0  0  0  0  0
    0.7500    1.2990    0.0000 C   0  0  0  0  0  0  0  0  0  0  0  0
    1.3601    2.6694    0.0000 O   0  0  0  0  0  0  0  0  0  0  0  0
    1.3601    4.1694    0.0000 C   0  0  0  0  0  0  0  0  0  0  0  0
    0.7500    5.5397    0.0000 C   0  0  0  0  0  0  0  0  0  0  0  0
   -0.3647    6.5434    0.0000 C   0  0  0  0  0  0  0  0  0  0  0  0
   -1.7913    7.0069    0.0000 C   0  0  0  0  0  0  0  0  0  0  0  0
   -3.2831    6.8501    0.0000 C   0  0  0  0  0  0  0  0  0  0  0  0
   -4.5821    6.1001    0.0000 O   0  0  0  0  0  0  0  0  0  0  0  0
   -5.4638    4.8866    0.0000 C   0  0  0  0  0  0  0  0  0  0  0  0
   -6.5785    5.8903    0.0000 C   0  0  0  0  0  0  0  0  0  0  0  0
   -8.0051    5.4267    0.0000 C   0  0  0  0  0  0  0  0  0  0  0  0
   -9.1198    6.4304    0.0000 C   0  0  0  0  0  0  0  0  0  0  0  0
   -8.8080    7.8977    0.0000 C   0  0  0  0  0  0  0  0  0  0  0  0
   -9.9227    8.9014    0.0000 C   0  0  0  0  0  0  0  0  0  0  0  0
   -9.6108   10.3686    0.0000 O   0  0  0  0  0  0  0  0  0  0  0  0
   -8.3170    3.9595    0.0000 C   0  0  0  0  0  0  0  0  0  0  0  0
   -9.7436    3.4960    0.0000 Cl  0  0  0  0  0  0  0  0  0  0  0  0
   -7.2023    2.9558    0.0000 C   0  0  0  0  0  0  0  0  0  0  0  0
   -5.7757    3.4194    0.0000 C   0  0  0  0  0  0  0  0  0  0  0  0
   -5.4638    1.9521    0.0000 N   0  0  0  0  0  0  0  0  0  0  0  0
   -4.5821    0.7386    0.0000 C   0  0  0  0  0  0  0  0  0  0  0  0
   -5.5858   -0.3761    0.0000 O   0  0  0  0  0  0  0  0  0  0  0  0
   -3.2831   -0.0114    0.0000 N   0  0  0  0  0  0  0  0  0  0  0  0
  1  2  3  0
  2  3  1  0
  3  4  2  0
  4  5  1  0
  5  6  2  0
  6  7  1  0
  7  8  2  0
  8  9  1  0
  9 10  1  0
 10 11  1  0
 11 12  1  0
 12 13  1  0
 13 14  1  0
 14 15  1  0
 15 16  1  0
 16 17  2  0
 17 18  1  0
 18 19  1  0
 19 20  1  0
 20 21  1  0
 21 22  1  0
 18 23  2  0
 23 24  1  0
 23 25  1  0
 25 26  2  0
 26 27  1  0
 27 28  1  0
 28 29  2  0
 28 30  1  0
  8  3  1  0
 26 16  1  0
 30  6  1  0
M  END
>  <Affinity>  (20) 
5.0

>  <Affinity Type>  (20) 
IC50

>  <Affinity Unit>  (20) 
nM

>  <Scaffold>  (20) 
[#7&!R]#&!@[#6&!R]-&!@[#6&R]1:&@[#7&R]:&@[#6&R]:&@[#6&R]2:&@[#7&R]:&@[#6&R]:&@1-&@[#8&R]-&@[#6&R]-&@[#6&R]-&@[#6&R]-&@[#6&R]-&@[#6&R]-&@[#8&R]-&@[#6&R]1:&@[#6&R](-&@[#7&R]-&@[#6&R](-&@[#7&R]-&@2)=&!@[#8&!R]):&@[#6&R]:&@[#6&R](:&@[#6&R]:&@[#6&R]:&@1)-&!@[#17&!R]

$$$$
O14757_Sries14139_idx-in-all-actives-288
     RDKit          2D

 31 33  0  0  0  0  0  0  0  0999 V2000
   -4.4859  -14.9747    0.0000 C   0  0  0  0  0  0  0  0  0  0  0  0
   -4.1741  -13.5075    0.0000 O   0  0  0  0  0  0  0  0  0  0  0  0
   -2.7475  -13.0440    0.0000 C   0  0  0  0  0  0  0  0  0  0  0  0
   -2.4356  -11.5767    0.0000 C   0  0  0  0  0  0  0  0  0  0  0  0
   -1.0090  -11.1132    0.0000 O   0  0  0  0  0  0  0  0  0  0  0  0
   -0.6972   -9.6460    0.0000 C   0  0  0  0  0  0  0  0  0  0  0  0
   -1.8119   -8.6423    0.0000 C   0  0  0  0  0  0  0  0  0  0  0  0
   -1.5000   -7.1751    0.0000 C   0  0  0  0  0  0  0  0  0  0  0  0
   -0.0734   -6.7116    0.0000 C   0  0  0  0  0  0  0  0  0  0  0  0
    1.0413   -7.7152    0.0000 C   0  0  0  0  0  0  0  0  0  0  0  0
    0.7294   -9.1825    0.0000 C   0  0  0  0  0  0  0  0  0  0  0  0
    1.8442  -10.1862    0.0000 Cl  0  0  0  0  0  0  0  0  0  0  0  0
    1.0413   -5.7079    0.0000 N   0  0  0  0  0  0  0  0  0  0  0  0
    1.6514   -4.3375    0.0000 C   0  0  0  0  0  0  0  0  0  0  0  0
    3.1186   -4.6494    0.0000 O   0  0  0  0  0  0  0  0  0  0  0  0
    1.6514   -2.8375    0.0000 N   0  0  0  0  0  0  0  0  0  0  0  0
    0.7500   -1.2990    0.0000 C   0  0  0  0  0  0  0  0  0  0  0  0
    1.5000    0.0000    0.0000 C   0  0  0  0  0  0  0  0  0  0  0  0
    0.7500    1.2990    0.0000 N   0  0  0  0  0  0  0  0  0  0  0  0
   -0.7500    1.2990    0.0000 C   0  0  0  0  0  0  0  0  0  0  0  0
   -1.5000    2.5981    0.0000 C   0  0  0  0  0  0  0  0  0  0  0  0
   -2.2500    3.8971    0.0000 N   0  0  0  0  0  0  0  0  0  0  0  0
   -1.5000    0.0000    0.0000 C   0  0  0  0  0  0  0  0  0  0  0  0
   -0.7500   -1.2990    0.0000 N   0  0  0  0  0  0  0  0  0  0  0  0
   -2.9918   -0.1568    0.0000 O   0  0  0  0  0  0  0  0  0  0  0  0
   -4.2908   -0.9068    0.0000 C   0  0  0  0  0  0  0  0  0  0  0  0
   -5.1725   -2.1203    0.0000 C   0  0  0  0  0  0  0  0  0  0  0  0
   -5.4844   -3.5875    0.0000 C   0  0  0  0  0  0  0  0  0  0  0  0
   -5.1725   -5.0548    0.0000 C   0  0  0  0  0  0  0  0  0  0  0  0
   -4.2908   -6.2683    0.0000 C   0  0  0  0  0  0  0  0  0  0  0  0
   -2.9918   -7.0183    0.0000 O   0  0  0  0  0  0  0  0  0  0  0  0
  1  2  1  0
  2  3  1  0
  3  4  1  0
  4  5  1  0
  5  6  1  0
  6  7  2  0
  7  8  1  0
  8  9  2  0
  9 10  1  0
 10 11  2  0
 11 12  1  0
  9 13  1  0
 13 14  1  0
 14 15  2  0
 14 16  1  0
 16 17  1  0
 17 18  1  0
 18 19  2  0
 19 20  1  0
 20 21  1  0
 21 22  3  0
 20 23  2  0
 23 24  1  0
 23 25  1  0
 25 26  1  0
 26 27  1  0
 27 28  1  0
 28 29  1  0
 29 30  1  0
 30 31  1  0
 11  6  1  0
 24 17  2  0
 31  8  1  0
M  END
>  <Affinity>  (21) 
5.0

>  <Affinity Type>  (21) 
IC50

>  <Affinity Unit>  (21) 
nM

>  <Scaffold>  (21) 
[#7&!R]#&!@[#6&!R]-&!@[#6&R]1:&@[#7&R]:&@[#6&R]:&@[#6&R]2:&@[#7&R]:&@[#6&R]:&@1-&@[#8&R]-&@[#6&R]-&@[#6&R]-&@[#6&R]-&@[#6&R]-&@[#6&R]-&@[#8&R]-&@[#6&R]1:&@[#6&R](-&@[#7&R]-&@[#6&R](-&@[#7&R]-&@2)=&!@[#8&!R]):&@[#6&R]:&@[#6&R](:&@[#6&R]:&@[#6&R]:&@1)-&!@[#17&!R]

$$$$
O14757_Sries14139_idx-in-all-actives-276
     RDKit          2D

 29 31  0  0  0  0  0  0  0  0999 V2000
   -2.7475  -13.0440    0.0000 C   0  0  0  0  0  0  0  0  0  0  0  0
   -2.4356  -11.5767    0.0000 C   0  0  0  0  0  0  0  0  0  0  0  0
   -1.0090  -11.1132    0.0000 N   0  0  0  0  0  0  0  0  0  0  0  0
   -0.6972   -9.6460    0.0000 C   0  0  0  0  0  0  0  0  0  0  0  0
   -1.8119   -8.6423    0.0000 C   0  0  0  0  0  0  0  0  0  0  0  0
   -1.5000   -7.1751    0.0000 C   0  0  0  0  0  0  0  0  0  0  0  0
   -0.0734   -6.7116    0.0000 C   0  0  0  0  0  0  0  0  0  0  0  0
    1.0413   -7.7152    0.0000 C   0  0  0  0  0  0  0  0  0  0  0  0
    0.7294   -9.1825    0.0000 C   0  0  0  0  0  0  0  0  0  0  0  0
    1.8442  -10.1862    0.0000 Cl  0  0  0  0  0  0  0  0  0  0  0  0
    1.0413   -5.7079    0.0000 N   0  0  0  0  0  0  0  0  0  0  0  0
    1.6514   -4.3375    0.0000 C   0  0  0  0  0  0  0  0  0  0  0  0
    3.1186   -4.6494    0.0000 O   0  0  0  0  0  0  0  0  0  0  0  0
    1.6514   -2.8375    0.0000 N   0  0  0  0  0  0  0  0  0  0  0  0
    0.7500   -1.2990    0.0000 C   0  0  0  0  0  0  0  0  0  0  0  0
    1.5000    0.0000    0.0000 C   0  0  0  0  0  0  0  0  0  0  0  0
    0.7500    1.2990    0.0000 N   0  0  0  0  0  0  0  0  0  0  0  0
   -0.7500    1.2990    0.0000 C   0  0  0  0  0  0  0  0  0  0  0  0
   -1.5000    2.5981    0.0000 C   0  0  0  0  0  0  0  0  0  0  0  0
   -2.2500    3.8971    0.0000 N   0  0  0  0  0  0  0  0  0  0  0  0
   -1.5000    0.0000    0.0000 C   0  0  0  0  0  0  0  0  0  0  0  0
   -0.7500   -1.2990    0.0000 N   0  0  0  0  0  0  0  0  0  0  0  0
   -2.9918   -0.1568    0.0000 O   0  0  0  0  0  0  0  0  0  0  0  0
   -4.2908   -0.9068    0.0000 C   0  0  0  0  0  0  0  0  0  0  0  0
   -5.1725   -2.1203    0.0000 C   0  0  0  0  0  0  0  0  0  0  0  0
   -5.4844   -3.5875    0.0000 C   0  0  0  0  0  0  0  0  0  0  0  0
   -5.1725   -5.0548    0.0000 C   0  0  0  0  0  0  0  0  0  0  0  0
   -4.2908   -6.2683    0.0000 C   0  0  0  0  0  0  0  0  0  0  0  0
   -2.9918   -7.0183    0.0000 O   0  0  0  0  0  0  0  0  0  0  0  0
  1  2  1  0
  2  3  1  0
  3  4  1  0
  4  5  2  0
  5  6  1  0
  6  7  2  0
  7  8  1  0
  8  9  2  0
  9 10  1  0
  7 11  1  0
 11 12  1  0
 12 13  2  0
 12 14  1  0
 14 15  1  0
 15 16  1  0
 16 17  2  0
 17 18  1  0
 18 19  1  0
 19 20  3  0
 18 21  2  0
 21 22  1  0
 21 23  1  0
 23 24  1  0
 24 25  1  0
 25 26  1  0
 26 27  1  0
 27 28  1  0
 28 29  1  0
  9  4  1  0
 22 15  2  0
 29  6  1  0
M  END
>  <Affinity>  (22) 
4.0

>  <Affinity Type>  (22) 
IC50

>  <Affinity Unit>  (22) 
nM

>  <Scaffold>  (22) 
[#7&!R]#&!@[#6&!R]-&!@[#6&R]1:&@[#7&R]:&@[#6&R]:&@[#6&R]2:&@[#7&R]:&@[#6&R]:&@1-&@[#8&R]-&@[#6&R]-&@[#6&R]-&@[#6&R]-&@[#6&R]-&@[#6&R]-&@[#8&R]-&@[#6&R]1:&@[#6&R](-&@[#7&R]-&@[#6&R](-&@[#7&R]-&@2)=&!@[#8&!R]):&@[#6&R]:&@[#6&R](:&@[#6&R]:&@[#6&R]:&@1)-&!@[#17&!R]

$$$$
O14757_Sries14139_idx-in-all-actives-262
     RDKit          2D

 37 40  0  0  0  0  0  0  0  0999 V2000
    4.5000    0.0000    0.0000 N   0  0  0  0  0  0  0  0  0  0  0  0
    3.0000    0.0000    0.0000 C   0  0  0  0  0  0  0  0  0  0  0  0
    1.5000    0.0000    0.0000 C   0  0  0  0  0  0  0  0  0  0  0  0
    0.7500   -1.2990    0.0000 N   0  0  0  0  0  0  0  0  0  0  0  0
   -0.7500   -1.2990    0.0000 C   0  0  0  0  0  0  0  0  0  0  0  0
   -1.5000    0.0000    0.0000 C   0  0  0  0  0  0  0  0  0  0  0  0
   -0.7500    1.2990    0.0000 N   0  0  0  0  0  0  0  0  0  0  0  0
    0.7500    1.2990    0.0000 C   0  0  0  0  0  0  0  0  0  0  0  0
    1.3601    2.6694    0.0000 O   0  0  0  0  0  0  0  0  0  0  0  0
    1.3601    4.1694    0.0000 C   0  0  0  0  0  0  0  0  0  0  0  0
    0.7500    5.5397    0.0000 C   0  0  0  0  0  0  0  0  0  0  0  0
   -0.3647    6.5434    0.0000 C   0  0  0  0  0  0  0  0  0  0  0  0
   -1.7913    7.0069    0.0000 C   0  0  0  0  0  0  0  0  0  0  0  0
   -3.2831    6.8501    0.0000 C   0  0  0  0  0  0  0  0  0  0  0  0
   -4.5821    6.1001    0.0000 O   0  0  0  0  0  0  0  0  0  0  0  0
   -5.4638    4.8866    0.0000 C   0  0  0  0  0  0  0  0  0  0  0  0
   -6.5785    5.8903    0.0000 C   0  0  0  0  0  0  0  0  0  0  0  0
   -8.0051    5.4267    0.0000 C   0  0  0  0  0  0  0  0  0  0  0  0
   -9.1198    6.4304    0.0000 N   0  0  0  0  0  0  0  0  0  0  0  0
   -8.8080    7.8977    0.0000 C   0  0  0  0  0  0  0  0  0  0  0  0
   -7.3814    8.3612    0.0000 O   0  0  0  0  0  0  0  0  0  0  0  0
   -9.9227    8.9014    0.0000 C   0  0  0  0  0  0  0  0  0  0  0  0
   -9.6108   10.3686    0.0000 C   0  0  0  0  0  0  0  0  0  0  0  0
  -10.7255   11.3723    0.0000 N   0  0  0  0  0  0  0  0  0  0  0  0
  -10.4137   12.8395    0.0000 C   0  0  0  0  0  0  0  0  0  0  0  0
  -11.4173   13.9542    0.0000 C   0  0  0  0  0  0  0  0  0  0  0  0
  -10.6673   15.2533    0.0000 C   0  0  0  0  0  0  0  0  0  0  0  0
   -9.2001   14.9414    0.0000 C   0  0  0  0  0  0  0  0  0  0  0  0
   -9.0433   13.4496    0.0000 C   0  0  0  0  0  0  0  0  0  0  0  0
   -8.3170    3.9595    0.0000 C   0  0  0  0  0  0  0  0  0  0  0  0
   -9.7436    3.4960    0.0000 Cl  0  0  0  0  0  0  0  0  0  0  0  0
   -7.2023    2.9558    0.0000 C   0  0  0  0  0  0  0  0  0  0  0  0
   -5.7757    3.4194    0.0000 C   0  0  0  0  0  0  0  0  0  0  0  0
   -5.4638    1.9521    0.0000 N   0  0  0  0  0  0  0  0  0  0  0  0
   -4.5821    0.7386    0.0000 C   0  0  0  0  0  0  0  0  0  0  0  0
   -5.5858   -0.3761    0.0000 O   0  0  0  0  0  0  0  0  0  0  0  0
   -3.2831   -0.0114    0.0000 N   0  0  0  0  0  0  0  0  0  0  0  0
  1  2  3  0
  2  3  1  0
  3  4  2  0
  4  5  1  0
  5  6  2  0
  6  7  1  0
  7  8  2  0
  8  9  1  0
  9 10  1  0
 10 11  1  0
 11 12  1  0
 12 13  1  0
 13 14  1  0
 14 15  1  0
 15 16  1  0
 16 17  2  0
 17 18  1  0
 18 19  1  0
 19 20  1  0
 20 21  2  0
 20 22  1  0
 22 23  1  0
 23 24  1  0
 24 25  1  0
 25 26  1  0
 26 27  1  0
 27 28  1  0
 28 29  1  0
 18 30  2  0
 30 31  1  0
 30 32  1  0
 32 33  2  0
 33 34  1  0
 34 35  1  0
 35 36  2  0
 35 37  1  0
  8  3  1  0
 33 16  1  0
 37  6  1  0
 29 25  1  0
M  END
>  <Affinity>  (23) 
2.0

>  <Affinity Type>  (23) 
IC50

>  <Affinity Unit>  (23) 
nM

>  <Scaffold>  (23) 
[#7&!R]#&!@[#6&!R]-&!@[#6&R]1:&@[#7&R]:&@[#6&R]:&@[#6&R]2:&@[#7&R]:&@[#6&R]:&@1-&@[#8&R]-&@[#6&R]-&@[#6&R]-&@[#6&R]-&@[#6&R]-&@[#6&R]-&@[#8&R]-&@[#6&R]1:&@[#6&R](-&@[#7&R]-&@[#6&R](-&@[#7&R]-&@2)=&!@[#8&!R]):&@[#6&R]:&@[#6&R](:&@[#6&R]:&@[#6&R]:&@1)-&!@[#17&!R]

$$$$
O14757_Sries14139_idx-in-all-actives-289
     RDKit          2D

 30 32  0  0  0  0  0  0  0  0999 V2000
    4.5000    0.0000    0.0000 N   0  0  0  0  0  0  0  0  0  0  0  0
    3.0000    0.0000    0.0000 C   0  0  0  0  0  0  0  0  0  0  0  0
    1.5000    0.0000    0.0000 C   0  0  0  0  0  0  0  0  0  0  0  0
    0.7500   -1.2990    0.0000 N   0  0  0  0  0  0  0  0  0  0  0  0
   -0.7500   -1.2990    0.0000 C   0  0  0  0  0  0  0  0  0  0  0  0
   -1.5000    0.0000    0.0000 C   0  0  0  0  0  0  0  0  0  0  0  0
   -0.7500    1.2990    0.0000 N   0  0  0  0  0  0  0  0  0  0  0  0
    0.7500    1.2990    0.0000 C   0  0  0  0  0  0  0  0  0  0  0  0
    1.3601    2.6694    0.0000 O   0  0  0  0  0  0  0  0  0  0  0  0
    1.3601    4.1694    0.0000 C   0  0  0  0  0  0  0  0  0  0  0  0
    0.7500    5.5397    0.0000 C   0  0  0  0  0  0  0  0  0  0  0  0
   -0.3647    6.5434    0.0000 C   0  0  0  0  0  0  0  0  0  0  0  0
   -1.7913    7.0069    0.0000 C   0  0  0  0  0  0  0  0  0  0  0  0
   -3.2831    6.8501    0.0000 C   0  0  0  0  0  0  0  0  0  0  0  0
   -4.5821    6.1001    0.0000 O   0  0  0  0  0  0  0  0  0  0  0  0
   -5.4638    4.8866    0.0000 C   0  0  0  0  0  0  0  0  0  0  0  0
   -6.5785    5.8903    0.0000 C   0  0  0  0  0  0  0  0  0  0  0  0
   -8.0051    5.4267    0.0000 C   0  0  0  0  0  0  0  0  0  0  0  0
   -9.1198    6.4304    0.0000 O   0  0  0  0  0  0  0  0  0  0  0  0
   -8.8080    7.8977    0.0000 C   0  0  0  0  0  0  0  0  0  0  0  0
   -9.9227    8.9014    0.0000 C   0  0  0  0  0  0  0  0  0  0  0  0
   -9.6108   10.3686    0.0000 O   0  0  0  0  0  0  0  0  0  0  0  0
   -8.3170    3.9595    0.0000 C   0  0  0  0  0  0  0  0  0  0  0  0
   -9.7436    3.4960    0.0000 Cl  0  0  0  0  0  0  0  0  0  0  0  0
   -7.2023    2.9558    0.0000 C   0  0  0  0  0  0  0  0  0  0  0  0
   -5.7757    3.4194    0.0000 C   0  0  0  0  0  0  0  0  0  0  0  0
   -5.4638    1.9521    0.0000 N   0  0  0  0  0  0  0  0  0  0  0  0
   -4.5821    0.7386    0.0000 C   0  0  0  0  0  0  0  0  0  0  0  0
   -5.5858   -0.3761    0.0000 O   0  0  0  0  0  0  0  0  0  0  0  0
   -3.2831   -0.0114    0.0000 N   0  0  0  0  0  0  0  0  0  0  0  0
  1  2  3  0
  2  3  1  0
  3  4  2  0
  4  5  1  0
  5  6  2  0
  6  7  1  0
  7  8  2  0
  8  9  1  0
  9 10  1  0
 10 11  1  0
 11 12  1  0
 12 13  1  0
 13 14  1  0
 14 15  1  0
 15 16  1  0
 16 17  2  0
 17 18  1  0
 18 19  1  0
 19 20  1  0
 20 21  1  0
 21 22  1  0
 18 23  2  0
 23 24  1  0
 23 25  1  0
 25 26  2  0
 26 27  1  0
 27 28  1  0
 28 29  2  0
 28 30  1  0
  8  3  1  0
 26 16  1  0
 30  6  1  0
M  END
>  <Affinity>  (24) 
6.0

>  <Affinity Type>  (24) 
IC50

>  <Affinity Unit>  (24) 
nM

>  <Scaffold>  (24) 
[#7&!R]#&!@[#6&!R]-&!@[#6&R]1:&@[#7&R]:&@[#6&R]:&@[#6&R]2:&@[#7&R]:&@[#6&R]:&@1-&@[#8&R]-&@[#6&R]-&@[#6&R]-&@[#6&R]-&@[#6&R]-&@[#6&R]-&@[#8&R]-&@[#6&R]1:&@[#6&R](-&@[#7&R]-&@[#6&R](-&@[#7&R]-&@2)=&!@[#8&!R]):&@[#6&R]:&@[#6&R](:&@[#6&R]:&@[#6&R]:&@1)-&!@[#17&!R]

$$$$
O14757_Sries14139_idx-in-all-actives-277
     RDKit          2D

 28 30  0  0  0  0  0  0  0  0999 V2000
   -2.4356  -11.5767    0.0000 C   0  0  0  0  0  0  0  0  0  0  0  0
   -1.0090  -11.1132    0.0000 N   0  0  0  0  0  0  0  0  0  0  0  0
   -0.6972   -9.6460    0.0000 C   0  0  0  0  0  0  0  0  0  0  0  0
   -1.8119   -8.6423    0.0000 C   0  0  0  0  0  0  0  0  0  0  0  0
   -1.5000   -7.1751    0.0000 C   0  0  0  0  0  0  0  0  0  0  0  0
   -0.0734   -6.7116    0.0000 C   0  0  0  0  0  0  0  0  0  0  0  0
    1.0413   -7.7152    0.0000 C   0  0  0  0  0  0  0  0  0  0  0  0
    0.7294   -9.1825    0.0000 C   0  0  0  0  0  0  0  0  0  0  0  0
    1.8442  -10.1862    0.0000 Cl  0  0  0  0  0  0  0  0  0  0  0  0
    1.0413   -5.7079    0.0000 N   0  0  0  0  0  0  0  0  0  0  0  0
    1.6514   -4.3375    0.0000 C   0  0  0  0  0  0  0  0  0  0  0  0
    3.1186   -4.6494    0.0000 O   0  0  0  0  0  0  0  0  0  0  0  0
    1.6514   -2.8375    0.0000 N   0  0  0  0  0  0  0  0  0  0  0  0
    0.7500   -1.2990    0.0000 C   0  0  0  0  0  0  0  0  0  0  0  0
    1.5000    0.0000    0.0000 C   0  0  0  0  0  0  0  0  0  0  0  0
    0.7500    1.2990    0.0000 N   0  0  0  0  0  0  0  0  0  0  0  0
   -0.7500    1.2990    0.0000 C   0  0  0  0  0  0  0  0  0  0  0  0
   -1.5000    2.5981    0.0000 C   0  0  0  0  0  0  0  0  0  0  0  0
   -2.2500    3.8971    0.0000 N   0  0  0  0  0  0  0  0  0  0  0  0
   -1.5000    0.0000    0.0000 C   0  0  0  0  0  0  0  0  0  0  0  0
   -0.7500   -1.2990    0.0000 N   0  0  0  0  0  0  0  0  0  0  0  0
   -2.9918   -0.1568    0.0000 O   0  0  0  0  0  0  0  0  0  0  0  0
   -4.2908   -0.9068    0.0000 C   0  0  0  0  0  0  0  0  0  0  0  0
   -5.1725   -2.1203    0.0000 C   0  0  0  0  0  0  0  0  0  0  0  0
   -5.4844   -3.5875    0.0000 C   0  0  0  0  0  0  0  0  0  0  0  0
   -5.1725   -5.0548    0.0000 C   0  0  0  0  0  0  0  0  0  0  0  0
   -4.2908   -6.2683    0.0000 C   0  0  0  0  0  0  0  0  0  0  0  0
   -2.9918   -7.0183    0.0000 O   0  0  0  0  0  0  0  0  0  0  0  0
  1  2  1  0
  2  3  1  0
  3  4  2  0
  4  5  1  0
  5  6  2  0
  6  7  1  0
  7  8  2  0
  8  9  1  0
  6 10  1  0
 10 11  1  0
 11 12  2  0
 11 13  1  0
 13 14  1  0
 14 15  1  0
 15 16  2  0
 16 17  1  0
 17 18  1  0
 18 19  3  0
 17 20  2  0
 20 21  1  0
 20 22  1  0
 22 23  1  0
 23 24  1  0
 24 25  1  0
 25 26  1  0
 26 27  1  0
 27 28  1  0
  8  3  1  0
 21 14  2  0
 28  5  1  0
M  END
>  <Affinity>  (25) 
2.0

>  <Affinity Type>  (25) 
IC50

>  <Affinity Unit>  (25) 
nM

>  <Scaffold>  (25) 
[#7&!R]#&!@[#6&!R]-&!@[#6&R]1:&@[#7&R]:&@[#6&R]:&@[#6&R]2:&@[#7&R]:&@[#6&R]:&@1-&@[#8&R]-&@[#6&R]-&@[#6&R]-&@[#6&R]-&@[#6&R]-&@[#6&R]-&@[#8&R]-&@[#6&R]1:&@[#6&R](-&@[#7&R]-&@[#6&R](-&@[#7&R]-&@2)=&!@[#8&!R]):&@[#6&R]:&@[#6&R](:&@[#6&R]:&@[#6&R]:&@1)-&!@[#17&!R]

$$$$
O14757_Sries14139_idx-in-all-actives-263
     RDKit          2D

 33 35  0  0  0  0  0  0  0  0999 V2000
   -4.4859  -14.9747    0.0000 C   0  0  0  0  0  0  0  0  0  0  0  0
   -4.1741  -13.5075    0.0000 N   0  0  0  0  0  0  0  0  0  0  0  0
   -5.2888  -12.5038    0.0000 C   0  0  0  0  0  0  0  0  0  0  0  0
   -2.7475  -13.0440    0.0000 C   0  0  0  0  0  0  0  0  0  0  0  0
   -2.4356  -11.5767    0.0000 C   0  0  0  0  0  0  0  0  0  0  0  0
   -3.5503  -10.5730    0.0000 O   0  0  0  0  0  0  0  0  0  0  0  0
   -1.0090  -11.1132    0.0000 N   0  0  0  0  0  0  0  0  0  0  0  0
   -0.6972   -9.6460    0.0000 C   0  0  0  0  0  0  0  0  0  0  0  0
   -1.8119   -8.6423    0.0000 C   0  0  0  0  0  0  0  0  0  0  0  0
   -1.5000   -7.1751    0.0000 C   0  0  0  0  0  0  0  0  0  0  0  0
   -0.0734   -6.7116    0.0000 C   0  0  0  0  0  0  0  0  0  0  0  0
    1.0413   -7.7152    0.0000 C   0  0  0  0  0  0  0  0  0  0  0  0
    0.7294   -9.1825    0.0000 C   0  0  0  0  0  0  0  0  0  0  0  0
    1.8442  -10.1862    0.0000 Cl  0  0  0  0  0  0  0  0  0  0  0  0
    1.0413   -5.7079    0.0000 N   0  0  0  0  0  0  0  0  0  0  0  0
    1.6514   -4.3375    0.0000 C   0  0  0  0  0  0  0  0  0  0  0  0
    3.1186   -4.6494    0.0000 O   0  0  0  0  0  0  0  0  0  0  0  0
    1.6514   -2.8375    0.0000 N   0  0  0  0  0  0  0  0  0  0  0  0
    0.7500   -1.2990    0.0000 C   0  0  0  0  0  0  0  0  0  0  0  0
    1.5000    0.0000    0.0000 C   0  0  0  0  0  0  0  0  0  0  0  0
    0.7500    1.2990    0.0000 N   0  0  0  0  0  0  0  0  0  0  0  0
   -0.7500    1.2990    0.0000 C   0  0  0  0  0  0  0  0  0  0  0  0
   -1.5000    2.5981    0.0000 C   0  0  0  0  0  0  0  0  0  0  0  0
   -2.2500    3.8971    0.0000 N   0  0  0  0  0  0  0  0  0  0  0  0
   -1.5000    0.0000    0.0000 C   0  0  0  0  0  0  0  0  0  0  0  0
   -0.7500   -1.2990    0.0000 N   0  0  0  0  0  0  0  0  0  0  0  0
   -2.9918   -0.1568    0.0000 O   0  0  0  0  0  0  0  0  0  0  0  0
   -4.2908   -0.9068    0.0000 C   0  0  0  0  0  0  0  0  0  0  0  0
   -5.1725   -2.1203    0.0000 C   0  0  0  0  0  0  0  0  0  0  0  0
   -5.4844   -3.5875    0.0000 C   0  0  0  0  0  0  0  0  0  0  0  0
   -5.1725   -5.0548    0.0000 C   0  0  0  0  0  0  0  0  0  0  0  0
   -4.2908   -6.2683    0.0000 C   0  0  0  0  0  0  0  0  0  0  0  0
   -2.9918   -7.0183    0.0000 O   0  0  0  0  0  0  0  0  0  0  0  0
  1  2  1  0
  2  3  1  0
  2  4  1  0
  4  5  1  0
  5  6  2  0
  5  7  1  0
  7  8  1  0
  8  9  2  0
  9 10  1  0
 10 11  2  0
 11 12  1  0
 12 13  2  0
 13 14  1  0
 11 15  1  0
 15 16  1  0
 16 17  2  0
 16 18  1  0
 18 19  1  0
 19 20  1  0
 20 21  2  0
 21 22  1  0
 22 23  1  0
 23 24  3  0
 22 25  2  0
 25 26  1  0
 25 27  1  0
 27 28  1  0
 28 29  1  0
 29 30  1  0
 30 31  1  0
 31 32  1  0
 32 33  1  0
 13  8  1  0
 26 19  2  0
 33 10  1  0
M  END
>  <Affinity>  (26) 
1.0

>  <Affinity Type>  (26) 
IC50

>  <Affinity Unit>  (26) 
nM

>  <Scaffold>  (26) 
[#7&!R]#&!@[#6&!R]-&!@[#6&R]1:&@[#7&R]:&@[#6&R]:&@[#6&R]2:&@[#7&R]:&@[#6&R]:&@1-&@[#8&R]-&@[#6&R]-&@[#6&R]-&@[#6&R]-&@[#6&R]-&@[#6&R]-&@[#8&R]-&@[#6&R]1:&@[#6&R](-&@[#7&R]-&@[#6&R](-&@[#7&R]-&@2)=&!@[#8&!R]):&@[#6&R]:&@[#6&R](:&@[#6&R]:&@[#6&R]:&@1)-&!@[#17&!R]

$$$$
O14757_Sries14139_idx-in-all-actives-253
     RDKit          2D

 34 36  0  0  0  0  0  0  0  0999 V2000
   -4.7978  -16.4419    0.0000 C   0  0  0  0  0  0  0  0  0  0  0  0
   -3.3712  -15.9784    0.0000 C   0  0  0  0  0  0  0  0  0  0  0  0
   -3.0593  -14.5112    0.0000 N   0  0  0  0  0  0  0  0  0  0  0  0
   -4.1741  -13.5075    0.0000 C   0  0  0  0  0  0  0  0  0  0  0  0
   -5.6006  -13.9710    0.0000 C   0  0  0  0  0  0  0  0  0  0  0  0
   -1.6328  -14.0477    0.0000 C   0  0  0  0  0  0  0  0  0  0  0  0
   -1.3209  -12.5804    0.0000 C   0  0  0  0  0  0  0  0  0  0  0  0
   -1.0090  -11.1132    0.0000 C   0  0  0  0  0  0  0  0  0  0  0  0
   -0.6972   -9.6460    0.0000 C   0  0  0  0  0  0  0  0  0  0  0  0
   -1.8119   -8.6423    0.0000 C   0  0  0  0  0  0  0  0  0  0  0  0
   -1.5000   -7.1751    0.0000 C   0  0  0  0  0  0  0  0  0  0  0  0
   -0.0734   -6.7116    0.0000 C   0  0  0  0  0  0  0  0  0  0  0  0
    1.0413   -7.7152    0.0000 C   0  0  0  0  0  0  0  0  0  0  0  0
    0.7294   -9.1825    0.0000 C   0  0  0  0  0  0  0  0  0  0  0  0
    1.8442  -10.1862    0.0000 Cl  0  0  0  0  0  0  0  0  0  0  0  0
    1.0413   -5.7079    0.0000 N   0  0  0  0  0  0  0  0  0  0  0  0
    1.6514   -4.3375    0.0000 C   0  0  0  0  0  0  0  0  0  0  0  0
    3.1186   -4.6494    0.0000 O   0  0  0  0  0  0  0  0  0  0  0  0
    1.6514   -2.8375    0.0000 N   0  0  0  0  0  0  0  0  0  0  0  0
    0.7500   -1.2990    0.0000 C   0  0  0  0  0  0  0  0  0  0  0  0
    1.5000    0.0000    0.0000 C   0  0  0  0  0  0  0  0  0  0  0  0
    0.7500    1.2990    0.0000 N   0  0  0  0  0  0  0  0  0  0  0  0
   -0.7500    1.2990    0.0000 C   0  0  0  0  0  0  0  0  0  0  0  0
   -1.5000    2.5981    0.0000 C   0  0  0  0  0  0  0  0  0  0  0  0
   -2.2500    3.8971    0.0000 N   0  0  0  0  0  0  0  0  0  0  0  0
   -1.5000    0.0000    0.0000 C   0  0  0  0  0  0  0  0  0  0  0  0
   -0.7500   -1.2990    0.0000 N   0  0  0  0  0  0  0  0  0  0  0  0
   -2.9918   -0.1568    0.0000 O   0  0  0  0  0  0  0  0  0  0  0  0
   -4.2908   -0.9068    0.0000 C   0  0  0  0  0  0  0  0  0  0  0  0
   -5.1725   -2.1203    0.0000 C   0  0  0  0  0  0  0  0  0  0  0  0
   -5.4844   -3.5875    0.0000 C   0  0  0  0  0  0  0  0  0  0  0  0
   -5.1725   -5.0548    0.0000 C   0  0  0  0  0  0  0  0  0  0  0  0
   -4.2908   -6.2683    0.0000 C   0  0  0  0  0  0  0  0  0  0  0  0
   -2.9918   -7.0183    0.0000 O   0  0  0  0  0  0  0  0  0  0  0  0
  1  2  1  0
  2  3  1  0
  3  4  1  0
  4  5  1  0
  3  6  1  0
  6  7  1  0
  7  8  3  0
  8  9  1  0
  9 10  2  0
 10 11  1  0
 11 12  2  0
 12 13  1  0
 13 14  2  0
 14 15  1  0
 12 16  1  0
 16 17  1  0
 17 18  2  0
 17 19  1  0
 19 20  1  0
 20 21  1  0
 21 22  2  0
 22 23  1  0
 23 24  1  0
 24 25  3  0
 23 26  2  0
 26 27  1  0
 26 28  1  0
 28 29  1  0
 29 30  1  0
 30 31  1  0
 31 32  1  0
 32 33  1  0
 33 34  1  0
 14  9  1  0
 27 20  2  0
 34 11  1  0
M  END
>  <Affinity>  (27) 
2.0

>  <Affinity Type>  (27) 
IC50

>  <Affinity Unit>  (27) 
nM

>  <Scaffold>  (27) 
[#7&!R]#&!@[#6&!R]-&!@[#6&R]1:&@[#7&R]:&@[#6&R]:&@[#6&R]2:&@[#7&R]:&@[#6&R]:&@1-&@[#8&R]-&@[#6&R]-&@[#6&R]-&@[#6&R]-&@[#6&R]-&@[#6&R]-&@[#8&R]-&@[#6&R]1:&@[#6&R](-&@[#7&R]-&@[#6&R](-&@[#7&R]-&@2)=&!@[#8&!R]):&@[#6&R]:&@[#6&R](:&@[#6&R]:&@[#6&R]:&@1)-&!@[#17&!R]

$$$$
O14757_Sries14139_idx-in-all-actives-290
     RDKit          2D

 32 34  0  0  0  0  0  0  0  0999 V2000
    4.5000    0.0000    0.0000 N   0  0  0  0  0  0  0  0  0  0  0  0
    3.0000    0.0000    0.0000 C   0  0  0  0  0  0  0  0  0  0  0  0
    1.5000    0.0000    0.0000 C   0  0  0  0  0  0  0  0  0  0  0  0
    0.7500   -1.2990    0.0000 N   0  0  0  0  0  0  0  0  0  0  0  0
   -0.7500   -1.2990    0.0000 C   0  0  0  0  0  0  0  0  0  0  0  0
   -1.5000    0.0000    0.0000 C   0  0  0  0  0  0  0  0  0  0  0  0
   -0.7500    1.2990    0.0000 N   0  0  0  0  0  0  0  0  0  0  0  0
    0.7500    1.2990    0.0000 C   0  0  0  0  0  0  0  0  0  0  0  0
    1.3601    2.6694    0.0000 O   0  0  0  0  0  0  0  0  0  0  0  0
    1.3601    4.1694    0.0000 C   0  0  0  0  0  0  0  0  0  0  0  0
    0.7500    5.5397    0.0000 C   0  0  0  0  0  0  0  0  0  0  0  0
   -0.3647    6.5434    0.0000 C   0  0  0  0  0  0  0  0  0  0  0  0
   -1.7913    7.0069    0.0000 C   0  0  0  0  0  0  0  0  0  0  0  0
   -3.2831    6.8501    0.0000 C   0  0  0  0  0  0  0  0  0  0  0  0
   -4.5821    6.1001    0.0000 O   0  0  0  0  0  0  0  0  0  0  0  0
   -5.4638    4.8866    0.0000 C   0  0  0  0  0  0  0  0  0  0  0  0
   -6.5785    5.8903    0.0000 C   0  0  0  0  0  0  0  0  0  0  0  0
   -8.0051    5.4267    0.0000 C   0  0  0  0  0  0  0  0  0  0  0  0
   -9.1198    6.4304    0.0000 O   0  0  0  0  0  0  0  0  0  0  0  0
   -8.8080    7.8977    0.0000 C   0  0  0  0  0  0  0  0  0  0  0  0
   -9.9227    8.9014    0.0000 C   0  0  0  0  0  0  0  0  0  0  0  0
  -11.3493    8.4378    0.0000 O   0  0  0  0  0  0  0  0  0  0  0  0
   -9.6108   10.3686    0.0000 C   0  0  0  0  0  0  0  0  0  0  0  0
  -10.7255   11.3723    0.0000 O   0  0  0  0  0  0  0  0  0  0  0  0
   -8.3170    3.9595    0.0000 C   0  0  0  0  0  0  0  0  0  0  0  0
   -9.7436    3.4960    0.0000 Cl  0  0  0  0  0  0  0  0  0  0  0  0
   -7.2023    2.9558    0.0000 C   0  0  0  0  0  0  0  0  0  0  0  0
   -5.7757    3.4194    0.0000 C   0  0  0  0  0  0  0  0  0  0  0  0
   -5.4638    1.9521    0.0000 N   0  0  0  0  0  0  0  0  0  0  0  0
   -4.5821    0.7386    0.0000 C   0  0  0  0  0  0  0  0  0  0  0  0
   -5.5858   -0.3761    0.0000 O   0  0  0  0  0  0  0  0  0  0  0  0
   -3.2831   -0.0114    0.0000 N   0  0  0  0  0  0  0  0  0  0  0  0
  1  2  3  0
  2  3  1  0
  3  4  2  0
  4  5  1  0
  5  6  2  0
  6  7  1  0
  7  8  2  0
  8  9  1  0
  9 10  1  0
 10 11  1  0
 11 12  1  0
 12 13  1  0
 13 14  1  0
 14 15  1  0
 15 16  1  0
 16 17  2  0
 17 18  1  0
 18 19  1  0
 19 20  1  0
 20 21  1  0
 21 22  1  0
 21 23  1  0
 23 24  1  0
 18 25  2  0
 25 26  1  0
 25 27  1  0
 27 28  2  0
 28 29  1  0
 29 30  1  0
 30 31  2  0
 30 32  1  0
  8  3  1  0
 28 16  1  0
 32  6  1  0
M  END
>  <Affinity>  (28) 
3.0

>  <Affinity Type>  (28) 
IC50

>  <Affinity Unit>  (28) 
nM

>  <Scaffold>  (28) 
[#7&!R]#&!@[#6&!R]-&!@[#6&R]1:&@[#7&R]:&@[#6&R]:&@[#6&R]2:&@[#7&R]:&@[#6&R]:&@1-&@[#8&R]-&@[#6&R]-&@[#6&R]-&@[#6&R]-&@[#6&R]-&@[#6&R]-&@[#8&R]-&@[#6&R]1:&@[#6&R](-&@[#7&R]-&@[#6&R](-&@[#7&R]-&@2)=&!@[#8&!R]):&@[#6&R]:&@[#6&R](:&@[#6&R]:&@[#6&R]:&@1)-&!@[#17&!R]

$$$$
O14757_Sries14139_idx-in-all-actives-264
     RDKit          2D

 34 37  0  0  0  0  0  0  0  0999 V2000
   -5.4168  -12.9041    0.0000 C   0  0  0  0  0  0  0  0  0  0  0  0
   -4.1178  -13.6541    0.0000 N   0  0  0  0  0  0  0  0  0  0  0  0
   -3.9610  -15.1459    0.0000 C   0  0  0  0  0  0  0  0  0  0  0  0
   -2.4938  -15.4577    0.0000 N   0  0  0  0  0  0  0  0  0  0  0  0
   -1.7438  -14.1587    0.0000 C   0  0  0  0  0  0  0  0  0  0  0  0
   -2.7475  -13.0440    0.0000 C   0  0  0  0  0  0  0  0  0  0  0  0
   -2.4356  -11.5767    0.0000 C   0  0  0  0  0  0  0  0  0  0  0  0
   -1.0090  -11.1132    0.0000 N   0  0  0  0  0  0  0  0  0  0  0  0
   -0.6972   -9.6460    0.0000 C   0  0  0  0  0  0  0  0  0  0  0  0
   -1.8119   -8.6423    0.0000 C   0  0  0  0  0  0  0  0  0  0  0  0
   -1.5000   -7.1751    0.0000 C   0  0  0  0  0  0  0  0  0  0  0  0
   -0.0734   -6.7116    0.0000 C   0  0  0  0  0  0  0  0  0  0  0  0
    1.0413   -7.7152    0.0000 C   0  0  0  0  0  0  0  0  0  0  0  0
    0.7294   -9.1825    0.0000 C   0  0  0  0  0  0  0  0  0  0  0  0
    1.8442  -10.1862    0.0000 Cl  0  0  0  0  0  0  0  0  0  0  0  0
    1.0413   -5.7079    0.0000 N   0  0  0  0  0  0  0  0  0  0  0  0
    1.6514   -4.3375    0.0000 C   0  0  0  0  0  0  0  0  0  0  0  0
    3.1186   -4.6494    0.0000 O   0  0  0  0  0  0  0  0  0  0  0  0
    1.6514   -2.8375    0.0000 N   0  0  0  0  0  0  0  0  0  0  0  0
    0.7500   -1.2990    0.0000 C   0  0  0  0  0  0  0  0  0  0  0  0
    1.5000    0.0000    0.0000 C   0  0  0  0  0  0  0  0  0  0  0  0
    0.7500    1.2990    0.0000 N   0  0  0  0  0  0  0  0  0  0  0  0
   -0.7500    1.2990    0.0000 C   0  0  0  0  0  0  0  0  0  0  0  0
   -1.5000    2.5981    0.0000 C   0  0  0  0  0  0  0  0  0  0  0  0
   -2.2500    3.8971    0.0000 N   0  0  0  0  0  0  0  0  0  0  0  0
   -1.5000    0.0000    0.0000 C   0  0  0  0  0  0  0  0  0  0  0  0
   -0.7500   -1.2990    0.0000 N   0  0  0  0  0  0  0  0  0  0  0  0
   -2.9918   -0.1568    0.0000 O   0  0  0  0  0  0  0  0  0  0  0  0
   -4.2908   -0.9068    0.0000 C   0  0  0  0  0  0  0  0  0  0  0  0
   -5.1725   -2.1203    0.0000 C   0  0  0  0  0  0  0  0  0  0  0  0
   -5.4844   -3.5875    0.0000 C   0  0  0  0  0  0  0  0  0  0  0  0
   -5.1725   -5.0548    0.0000 C   0  0  0  0  0  0  0  0  0  0  0  0
   -4.2908   -6.2683    0.0000 C   0  0  0  0  0  0  0  0  0  0  0  0
   -2.9918   -7.0183    0.0000 O   0  0  0  0  0  0  0  0  0  0  0  0
  1  2  1  0
  2  3  1  0
  3  4  2  0
  4  5  1  0
  5  6  2  0
  6  7  1  0
  7  8  1  0
  8  9  1  0
  9 10  2  0
 10 11  1  0
 11 12  2  0
 12 13  1  0
 13 14  2  0
 14 15  1  0
 12 16  1  0
 16 17  1  0
 17 18  2  0
 17 19  1  0
 19 20  1  0
 20 21  1  0
 21 22  2  0
 22 23  1  0
 23 24  1  0
 24 25  3  0
 23 26  2  0
 26 27  1  0
 26 28  1  0
 28 29  1  0
 29 30  1  0
 30 31  1  0
 31 32  1  0
 32 33  1  0
 33 34  1  0
  6  2  1  0
 14  9  1  0
 27 20  2  0
 34 11  1  0
M  END
>  <Affinity>  (29) 
2.0

>  <Affinity Type>  (29) 
IC50

>  <Affinity Unit>  (29) 
nM

>  <Scaffold>  (29) 
[#7&!R]#&!@[#6&!R]-&!@[#6&R]1:&@[#7&R]:&@[#6&R]:&@[#6&R]2:&@[#7&R]:&@[#6&R]:&@1-&@[#8&R]-&@[#6&R]-&@[#6&R]-&@[#6&R]-&@[#6&R]-&@[#6&R]-&@[#8&R]-&@[#6&R]1:&@[#6&R](-&@[#7&R]-&@[#6&R](-&@[#7&R]-&@2)=&!@[#8&!R]):&@[#6&R]:&@[#6&R](:&@[#6&R]:&@[#6&R]:&@1)-&!@[#17&!R]

$$$$
O14757_Sries14139_idx-in-all-actives-278
     RDKit          2D

 27 29  0  0  0  0  0  0  0  0999 V2000
    4.5000    0.0000    0.0000 N   0  0  0  0  0  0  0  0  0  0  0  0
    3.0000    0.0000    0.0000 C   0  0  0  0  0  0  0  0  0  0  0  0
    1.5000    0.0000    0.0000 C   0  0  0  0  0  0  0  0  0  0  0  0
    0.7500   -1.2990    0.0000 N   0  0  0  0  0  0  0  0  0  0  0  0
   -0.7500   -1.2990    0.0000 C   0  0  0  0  0  0  0  0  0  0  0  0
   -1.5000    0.0000    0.0000 C   0  0  0  0  0  0  0  0  0  0  0  0
   -0.7500    1.2990    0.0000 N   0  0  0  0  0  0  0  0  0  0  0  0
    0.7500    1.2990    0.0000 C   0  0  0  0  0  0  0  0  0  0  0  0
    1.3601    2.6694    0.0000 O   0  0  0  0  0  0  0  0  0  0  0  0
    1.3601    4.1694    0.0000 C   0  0  0  0  0  0  0  0  0  0  0  0
    0.7500    5.5397    0.0000 C   0  0  0  0  0  0  0  0  0  0  0  0
   -0.3647    6.5434    0.0000 C   0  0  0  0  0  0  0  0  0  0  0  0
   -1.7913    7.0069    0.0000 C   0  0  0  0  0  0  0  0  0  0  0  0
   -3.2831    6.8501    0.0000 C   0  0  0  0  0  0  0  0  0  0  0  0
   -4.5821    6.1001    0.0000 O   0  0  0  0  0  0  0  0  0  0  0  0
   -5.4638    4.8866    0.0000 C   0  0  0  0  0  0  0  0  0  0  0  0
   -6.5785    5.8903    0.0000 C   0  0  0  0  0  0  0  0  0  0  0  0
   -8.0051    5.4267    0.0000 C   0  0  0  0  0  0  0  0  0  0  0  0
   -9.1198    6.4304    0.0000 N   0  0  0  0  0  0  0  0  0  0  0  0
   -8.3170    3.9595    0.0000 C   0  0  0  0  0  0  0  0  0  0  0  0
   -9.7436    3.4960    0.0000 Cl  0  0  0  0  0  0  0  0  0  0  0  0
   -7.2023    2.9558    0.0000 C   0  0  0  0  0  0  0  0  0  0  0  0
   -5.7757    3.4194    0.0000 C   0  0  0  0  0  0  0  0  0  0  0  0
   -5.4638    1.9521    0.0000 N   0  0  0  0  0  0  0  0  0  0  0  0
   -4.5821    0.7386    0.0000 C   0  0  0  0  0  0  0  0  0  0  0  0
   -5.5858   -0.3761    0.0000 O   0  0  0  0  0  0  0  0  0  0  0  0
   -3.2831   -0.0114    0.0000 N   0  0  0  0  0  0  0  0  0  0  0  0
  1  2  3  0
  2  3  1  0
  3  4  2  0
  4  5  1  0
  5  6  2  0
  6  7  1  0
  7  8  2  0
  8  9  1  0
  9 10  1  0
 10 11  1  0
 11 12  1  0
 12 13  1  0
 13 14  1  0
 14 15  1  0
 15 16  1  0
 16 17  2  0
 17 18  1  0
 18 19  1  0
 18 20  2  0
 20 21  1  0
 20 22  1  0
 22 23  2  0
 23 24  1  0
 24 25  1  0
 25 26  2  0
 25 27  1  0
  8  3  1  0
 23 16  1  0
 27  6  1  0
M  END
>  <Affinity>  (30) 
3.0

>  <Affinity Type>  (30) 
IC50

>  <Affinity Unit>  (30) 
nM

>  <Scaffold>  (30) 
[#7&!R]#&!@[#6&!R]-&!@[#6&R]1:&@[#7&R]:&@[#6&R]:&@[#6&R]2:&@[#7&R]:&@[#6&R]:&@1-&@[#8&R]-&@[#6&R]-&@[#6&R]-&@[#6&R]-&@[#6&R]-&@[#6&R]-&@[#8&R]-&@[#6&R]1:&@[#6&R](-&@[#7&R]-&@[#6&R](-&@[#7&R]-&@2)=&!@[#8&!R]):&@[#6&R]:&@[#6&R](:&@[#6&R]:&@[#6&R]:&@1)-&!@[#17&!R]

$$$$
O14757_Sries14139_idx-in-all-actives-291
     RDKit          2D

 31 33  0  0  0  0  0  0  0  0999 V2000
    4.5000    0.0000    0.0000 N   0  0  0  0  0  0  0  0  0  0  0  0
    3.0000    0.0000    0.0000 C   0  0  0  0  0  0  0  0  0  0  0  0
    1.5000    0.0000    0.0000 C   0  0  0  0  0  0  0  0  0  0  0  0
    0.7500   -1.2990    0.0000 N   0  0  0  0  0  0  0  0  0  0  0  0
   -0.7500   -1.2990    0.0000 C   0  0  0  0  0  0  0  0  0  0  0  0
   -1.5000    0.0000    0.0000 C   0  0  0  0  0  0  0  0  0  0  0  0
   -0.7500    1.2990    0.0000 N   0  0  0  0  0  0  0  0  0  0  0  0
    0.7500    1.2990    0.0000 C   0  0  0  0  0  0  0  0  0  0  0  0
    1.3601    2.6694    0.0000 O   0  0  0  0  0  0  0  0  0  0  0  0
    1.3601    4.1694    0.0000 C   0  0  0  0  0  0  0  0  0  0  0  0
    0.7500    5.5397    0.0000 C   0  0  0  0  0  0  0  0  0  0  0  0
   -0.3647    6.5434    0.0000 C   0  0  0  0  0  0  0  0  0  0  0  0
   -1.7913    7.0069    0.0000 C   0  0  0  0  0  0  0  0  0  0  0  0
   -3.2831    6.8501    0.0000 C   0  0  0  0  0  0  0  0  0  0  0  0
   -4.5821    6.1001    0.0000 O   0  0  0  0  0  0  0  0  0  0  0  0
   -5.4638    4.8866    0.0000 C   0  0  0  0  0  0  0  0  0  0  0  0
   -6.5785    5.8903    0.0000 C   0  0  0  0  0  0  0  0  0  0  0  0
   -8.0051    5.4267    0.0000 C   0  0  0  0  0  0  0  0  0  0  0  0
   -9.1198    6.4304    0.0000 O   0  0  0  0  0  0  0  0  0  0  0  0
   -8.8080    7.8977    0.0000 C   0  0  0  0  0  0  0  0  0  0  0  0
   -9.9227    8.9014    0.0000 C   0  0  0  0  0  0  0  0  0  0  0  0
   -9.6108   10.3686    0.0000 C   0  0  0  0  0  0  0  0  0  0  0  0
  -10.7255   11.3723    0.0000 N   0  0  0  0  0  0  0  0  0  0  0  0
   -8.3170    3.9595    0.0000 C   0  0  0  0  0  0  0  0  0  0  0  0
   -9.7436    3.4960    0.0000 Cl  0  0  0  0  0  0  0  0  0  0  0  0
   -7.2023    2.9558    0.0000 C   0  0  0  0  0  0  0  0  0  0  0  0
   -5.7757    3.4194    0.0000 C   0  0  0  0  0  0  0  0  0  0  0  0
   -5.4638    1.9521    0.0000 N   0  0  0  0  0  0  0  0  0  0  0  0
   -4.5821    0.7386    0.0000 C   0  0  0  0  0  0  0  0  0  0  0  0
   -5.5858   -0.3761    0.0000 O   0  0  0  0  0  0  0  0  0  0  0  0
   -3.2831   -0.0114    0.0000 N   0  0  0  0  0  0  0  0  0  0  0  0
  1  2  3  0
  2  3  1  0
  3  4  2  0
  4  5  1  0
  5  6  2  0
  6  7  1  0
  7  8  2  0
  8  9  1  0
  9 10  1  0
 10 11  1  0
 11 12  1  0
 12 13  1  0
 13 14  1  0
 14 15  1  0
 15 16  1  0
 16 17  2  0
 17 18  1  0
 18 19  1  0
 19 20  1  0
 20 21  1  0
 21 22  1  0
 22 23  1  0
 18 24  2  0
 24 25  1  0
 24 26  1  0
 26 27  2  0
 27 28  1  0
 28 29  1  0
 29 30  2  0
 29 31  1  0
  8  3  1  0
 27 16  1  0
 31  6  1  0
M  END
>  <Affinity>  (31) 
1.0

>  <Affinity Type>  (31) 
IC50

>  <Affinity Unit>  (31) 
nM

>  <Scaffold>  (31) 
[#7&!R]#&!@[#6&!R]-&!@[#6&R]1:&@[#7&R]:&@[#6&R]:&@[#6&R]2:&@[#7&R]:&@[#6&R]:&@1-&@[#8&R]-&@[#6&R]-&@[#6&R]-&@[#6&R]-&@[#6&R]-&@[#6&R]-&@[#8&R]-&@[#6&R]1:&@[#6&R](-&@[#7&R]-&@[#6&R](-&@[#7&R]-&@2)=&!@[#8&!R]):&@[#6&R]:&@[#6&R](:&@[#6&R]:&@[#6&R]:&@1)-&!@[#17&!R]

$$$$
O14757_Sries14139_idx-in-all-actives-265
     RDKit          2D

 33 36  0  0  0  0  0  0  0  0999 V2000
    4.5000    0.0000    0.0000 N   0  0  0  0  0  0  0  0  0  0  0  0
    3.0000    0.0000    0.0000 C   0  0  0  0  0  0  0  0  0  0  0  0
    1.5000    0.0000    0.0000 C   0  0  0  0  0  0  0  0  0  0  0  0
    0.7500   -1.2990    0.0000 N   0  0  0  0  0  0  0  0  0  0  0  0
   -0.7500   -1.2990    0.0000 C   0  0  0  0  0  0  0  0  0  0  0  0
   -1.5000    0.0000    0.0000 C   0  0  0  0  0  0  0  0  0  0  0  0
   -0.7500    1.2990    0.0000 N   0  0  0  0  0  0  0  0  0  0  0  0
    0.7500    1.2990    0.0000 C   0  0  0  0  0  0  0  0  0  0  0  0
    1.3601    2.6694    0.0000 O   0  0  0  0  0  0  0  0  0  0  0  0
    1.3601    4.1694    0.0000 C   0  0  0  0  0  0  0  0  0  0  0  0
    0.7500    5.5397    0.0000 C   0  0  0  0  0  0  0  0  0  0  0  0
   -0.3647    6.5434    0.0000 C   0  0  0  0  0  0  0  0  0  0  0  0
   -1.7913    7.0069    0.0000 C   0  0  0  0  0  0  0  0  0  0  0  0
   -3.2831    6.8501    0.0000 C   0  0  0  0  0  0  0  0  0  0  0  0
   -4.5821    6.1001    0.0000 O   0  0  0  0  0  0  0  0  0  0  0  0
   -5.4638    4.8866    0.0000 C   0  0  0  0  0  0  0  0  0  0  0  0
   -6.5785    5.8903    0.0000 C   0  0  0  0  0  0  0  0  0  0  0  0
   -8.0051    5.4267    0.0000 C   0  0  0  0  0  0  0  0  0  0  0  0
   -9.1198    6.4304    0.0000 N   0  0  0  0  0  0  0  0  0  0  0  0
   -8.8080    7.8977    0.0000 C   0  0  0  0  0  0  0  0  0  0  0  0
   -9.9227    8.9014    0.0000 C   0  0  0  0  0  0  0  0  0  0  0  0
  -11.3899    8.5895    0.0000 C   0  0  0  0  0  0  0  0  0  0  0  0
  -12.1399    9.8885    0.0000 C   0  0  0  0  0  0  0  0  0  0  0  0
  -11.1362   11.0032    0.0000 S   0  0  0  0  0  0  0  0  0  0  0  0
   -9.7659   10.3931    0.0000 C   0  0  0  0  0  0  0  0  0  0  0  0
   -8.3170    3.9595    0.0000 C   0  0  0  0  0  0  0  0  0  0  0  0
   -9.7436    3.4960    0.0000 Cl  0  0  0  0  0  0  0  0  0  0  0  0
   -7.2023    2.9558    0.0000 C   0  0  0  0  0  0  0  0  0  0  0  0
   -5.7757    3.4194    0.0000 C   0  0  0  0  0  0  0  0  0  0  0  0
   -5.4638    1.9521    0.0000 N   0  0  0  0  0  0  0  0  0  0  0  0
   -4.5821    0.7386    0.0000 C   0  0  0  0  0  0  0  0  0  0  0  0
   -5.5858   -0.3761    0.0000 O   0  0  0  0  0  0  0  0  0  0  0  0
   -3.2831   -0.0114    0.0000 N   0  0  0  0  0  0  0  0  0  0  0  0
  1  2  3  0
  2  3  1  0
  3  4  2  0
  4  5  1  0
  5  6  2  0
  6  7  1  0
  7  8  2  0
  8  9  1  0
  9 10  1  0
 10 11  1  0
 11 12  1  0
 12 13  1  0
 13 14  1  0
 14 15  1  0
 15 16  1  0
 16 17  2  0
 17 18  1  0
 18 19  1  0
 19 20  1  0
 20 21  1  0
 21 22  1  0
 22 23  2  0
 23 24  1  0
 24 25  1  0
 18 26  2  0
 26 27  1  0
 26 28  1  0
 28 29  2  0
 29 30  1  0
 30 31  1  0
 31 32  2  0
 31 33  1  0
  8  3  1  0
 29 16  1  0
 33  6  1  0
 25 21  2  0
M  END
>  <Affinity>  (32) 
162.0

>  <Affinity Type>  (32) 
IC50

>  <Affinity Unit>  (32) 
nM

>  <Scaffold>  (32) 
[#7&!R]#&!@[#6&!R]-&!@[#6&R]1:&@[#7&R]:&@[#6&R]:&@[#6&R]2:&@[#7&R]:&@[#6&R]:&@1-&@[#8&R]-&@[#6&R]-&@[#6&R]-&@[#6&R]-&@[#6&R]-&@[#6&R]-&@[#8&R]-&@[#6&R]1:&@[#6&R](-&@[#7&R]-&@[#6&R](-&@[#7&R]-&@2)=&!@[#8&!R]):&@[#6&R]:&@[#6&R](:&@[#6&R]:&@[#6&R]:&@1)-&!@[#17&!R]

$$$$
O14757_Sries14139_idx-in-all-actives-279
     RDKit          2D

 34 37  0  0  0  0  0  0  0  0999 V2000
    4.5000    0.0000    0.0000 N   0  0  0  0  0  0  0  0  0  0  0  0
    3.0000    0.0000    0.0000 C   0  0  0  0  0  0  0  0  0  0  0  0
    1.5000    0.0000    0.0000 C   0  0  0  0  0  0  0  0  0  0  0  0
    0.7500   -1.2990    0.0000 N   0  0  0  0  0  0  0  0  0  0  0  0
   -0.7500   -1.2990    0.0000 C   0  0  0  0  0  0  0  0  0  0  0  0
   -1.5000    0.0000    0.0000 C   0  0  0  0  0  0  0  0  0  0  0  0
   -0.7500    1.2990    0.0000 N   0  0  0  0  0  0  0  0  0  0  0  0
    0.7500    1.2990    0.0000 C   0  0  0  0  0  0  0  0  0  0  0  0
    1.3601    2.6694    0.0000 O   0  0  0  0  0  0  0  0  0  0  0  0
    1.3601    4.1694    0.0000 C   0  0  0  0  0  0  0  0  0  0  0  0
    0.7500    5.5397    0.0000 C   0  0  0  0  0  0  0  0  0  0  0  0
   -0.3647    6.5434    0.0000 C   0  0  0  0  0  0  0  0  0  0  0  0
   -1.7913    7.0069    0.0000 C   0  0  0  0  0  0  0  0  0  0  0  0
   -3.2831    6.8501    0.0000 C   0  0  0  0  0  0  0  0  0  0  0  0
   -4.5821    6.1001    0.0000 O   0  0  0  0  0  0  0  0  0  0  0  0
   -5.4638    4.8866    0.0000 C   0  0  0  0  0  0  0  0  0  0  0  0
   -6.5785    5.8903    0.0000 C   0  0  0  0  0  0  0  0  0  0  0  0
   -8.0051    5.4267    0.0000 C   0  0  0  0  0  0  0  0  0  0  0  0
   -9.1198    6.4304    0.0000 O   0  0  0  0  0  0  0  0  0  0  0  0
   -8.8080    7.8977    0.0000 C   0  0  0  0  0  0  0  0  0  0  0  0
   -9.9227    8.9014    0.0000 C   0  0  0  0  0  0  0  0  0  0  0  0
   -9.6108   10.3686    0.0000 N   0  0  0  0  0  0  0  0  0  0  0  0
  -10.6145   11.4833    0.0000 C   0  0  0  0  0  0  0  0  0  0  0  0
   -9.8645   12.7823    0.0000 C   0  0  0  0  0  0  0  0  0  0  0  0
   -8.3973   12.4705    0.0000 N   0  0  0  0  0  0  0  0  0  0  0  0
   -8.2405   10.9787    0.0000 C   0  0  0  0  0  0  0  0  0  0  0  0
   -8.3170    3.9595    0.0000 C   0  0  0  0  0  0  0  0  0  0  0  0
   -9.7436    3.4960    0.0000 Cl  0  0  0  0  0  0  0  0  0  0  0  0
   -7.2023    2.9558    0.0000 C   0  0  0  0  0  0  0  0  0  0  0  0
   -5.7757    3.4194    0.0000 C   0  0  0  0  0  0  0  0  0  0  0  0
   -5.4638    1.9521    0.0000 N   0  0  0  0  0  0  0  0  0  0  0  0
   -4.5821    0.7386    0.0000 C   0  0  0  0  0  0  0  0  0  0  0  0
   -5.5858   -0.3761    0.0000 O   0  0  0  0  0  0  0  0  0  0  0  0
   -3.2831   -0.0114    0.0000 N   0  0  0  0  0  0  0  0  0  0  0  0
  1  2  3  0
  2  3  1  0
  3  4  2  0
  4  5  1  0
  5  6  2  0
  6  7  1  0
  7  8  2  0
  8  9  1  0
  9 10  1  0
 10 11  1  0
 11 12  1  0
 12 13  1  0
 13 14  1  0
 14 15  1  0
 15 16  1  0
 16 17  2  0
 17 18  1  0
 18 19  1  0
 19 20  1  0
 20 21  1  0
 21 22  1  0
 22 23  1  0
 23 24  2  0
 24 25  1  0
 25 26  2  0
 18 27  2  0
 27 28  1  0
 27 29  1  0
 29 30  2  0
 30 31  1  0
 31 32  1  0
 32 33  2  0
 32 34  1  0
  8  3  1  0
 30 16  1  0
 34  6  1  0
 26 22  1  0
M  END
>  <Affinity>  (33) 
3.0

>  <Affinity Type>  (33) 
IC50

>  <Affinity Unit>  (33) 
nM

>  <Scaffold>  (33) 
[#7&!R]#&!@[#6&!R]-&!@[#6&R]1:&@[#7&R]:&@[#6&R]:&@[#6&R]2:&@[#7&R]:&@[#6&R]:&@1-&@[#8&R]-&@[#6&R]-&@[#6&R]-&@[#6&R]-&@[#6&R]-&@[#6&R]-&@[#8&R]-&@[#6&R]1:&@[#6&R](-&@[#7&R]-&@[#6&R](-&@[#7&R]-&@2)=&!@[#8&!R]):&@[#6&R]:&@[#6&R](:&@[#6&R]:&@[#6&R]:&@1)-&!@[#17&!R]

$$$$
O14757_Sries14139_idx-in-all-actives-254
     RDKit          2D

 32 34  0  0  0  0  0  0  0  0999 V2000
   -0.1655  -14.3595    0.0000 C   0  0  0  0  0  0  0  0  0  0  0  0
   -1.6328  -14.0477    0.0000 C   0  0  0  0  0  0  0  0  0  0  0  0
   -3.1000  -13.7358    0.0000 C   0  0  0  0  0  0  0  0  0  0  0  0
   -1.9446  -15.5149    0.0000 O   0  0  0  0  0  0  0  0  0  0  0  0
   -1.3209  -12.5804    0.0000 C   0  0  0  0  0  0  0  0  0  0  0  0
   -1.0090  -11.1132    0.0000 C   0  0  0  0  0  0  0  0  0  0  0  0
   -0.6972   -9.6460    0.0000 C   0  0  0  0  0  0  0  0  0  0  0  0
   -1.8119   -8.6423    0.0000 C   0  0  0  0  0  0  0  0  0  0  0  0
   -1.5000   -7.1751    0.0000 C   0  0  0  0  0  0  0  0  0  0  0  0
   -0.0734   -6.7116    0.0000 C   0  0  0  0  0  0  0  0  0  0  0  0
    1.0413   -7.7152    0.0000 C   0  0  0  0  0  0  0  0  0  0  0  0
    0.7294   -9.1825    0.0000 C   0  0  0  0  0  0  0  0  0  0  0  0
    1.8442  -10.1862    0.0000 Cl  0  0  0  0  0  0  0  0  0  0  0  0
    1.0413   -5.7079    0.0000 N   0  0  0  0  0  0  0  0  0  0  0  0
    1.6514   -4.3375    0.0000 C   0  0  0  0  0  0  0  0  0  0  0  0
    3.1186   -4.6494    0.0000 O   0  0  0  0  0  0  0  0  0  0  0  0
    1.6514   -2.8375    0.0000 N   0  0  0  0  0  0  0  0  0  0  0  0
    0.7500   -1.2990    0.0000 C   0  0  0  0  0  0  0  0  0  0  0  0
    1.5000    0.0000    0.0000 C   0  0  0  0  0  0  0  0  0  0  0  0
    0.7500    1.2990    0.0000 N   0  0  0  0  0  0  0  0  0  0  0  0
   -0.7500    1.2990    0.0000 C   0  0  0  0  0  0  0  0  0  0  0  0
   -1.5000    2.5981    0.0000 C   0  0  0  0  0  0  0  0  0  0  0  0
   -2.2500    3.8971    0.0000 N   0  0  0  0  0  0  0  0  0  0  0  0
   -1.5000    0.0000    0.0000 C   0  0  0  0  0  0  0  0  0  0  0  0
   -0.7500   -1.2990    0.0000 N   0  0  0  0  0  0  0  0  0  0  0  0
   -2.9918   -0.1568    0.0000 O   0  0  0  0  0  0  0  0  0  0  0  0
   -4.2908   -0.9068    0.0000 C   0  0  0  0  0  0  0  0  0  0  0  0
   -5.1725   -2.1203    0.0000 C   0  0  0  0  0  0  0  0  0  0  0  0
   -5.4844   -3.5875    0.0000 C   0  0  0  0  0  0  0  0  0  0  0  0
   -5.1725   -5.0548    0.0000 C   0  0  0  0  0  0  0  0  0  0  0  0
   -4.2908   -6.2683    0.0000 C   0  0  0  0  0  0  0  0  0  0  0  0
   -2.9918   -7.0183    0.0000 O   0  0  0  0  0  0  0  0  0  0  0  0
  1  2  1  0
  2  3  1  0
  2  4  1  0
  2  5  1  0
  5  6  3  0
  6  7  1  0
  7  8  2  0
  8  9  1  0
  9 10  2  0
 10 11  1  0
 11 12  2  0
 12 13  1  0
 10 14  1  0
 14 15  1  0
 15 16  2  0
 15 17  1  0
 17 18  1  0
 18 19  1  0
 19 20  2  0
 20 21  1  0
 21 22  1  0
 22 23  3  0
 21 24  2  0
 24 25  1  0
 24 26  1  0
 26 27  1  0
 27 28  1  0
 28 29  1  0
 29 30  1  0
 30 31  1  0
 31 32  1  0
 12  7  1  0
 25 18  2  0
 32  9  1  0
M  END
>  <Affinity>  (34) 
109.0

>  <Affinity Type>  (34) 
IC50

>  <Affinity Unit>  (34) 
nM

>  <Scaffold>  (34) 
[#7&!R]#&!@[#6&!R]-&!@[#6&R]1:&@[#7&R]:&@[#6&R]:&@[#6&R]2:&@[#7&R]:&@[#6&R]:&@1-&@[#8&R]-&@[#6&R]-&@[#6&R]-&@[#6&R]-&@[#6&R]-&@[#6&R]-&@[#8&R]-&@[#6&R]1:&@[#6&R](-&@[#7&R]-&@[#6&R](-&@[#7&R]-&@2)=&!@[#8&!R]):&@[#6&R]:&@[#6&R](:&@[#6&R]:&@[#6&R]:&@1)-&!@[#17&!R]

$$$$
O14757_Sries14139_idx-in-all-actives-292
     RDKit          2D

 31 33  0  0  0  0  0  0  0  0999 V2000
    4.5000    0.0000    0.0000 N   0  0  0  0  0  0  0  0  0  0  0  0
    3.0000    0.0000    0.0000 C   0  0  0  0  0  0  0  0  0  0  0  0
    1.5000    0.0000    0.0000 C   0  0  0  0  0  0  0  0  0  0  0  0
    0.7500   -1.2990    0.0000 N   0  0  0  0  0  0  0  0  0  0  0  0
   -0.7500   -1.2990    0.0000 C   0  0  0  0  0  0  0  0  0  0  0  0
   -1.5000    0.0000    0.0000 C   0  0  0  0  0  0  0  0  0  0  0  0
   -0.7500    1.2990    0.0000 N   0  0  0  0  0  0  0  0  0  0  0  0
    0.7500    1.2990    0.0000 C   0  0  0  0  0  0  0  0  0  0  0  0
    1.3601    2.6694    0.0000 O   0  0  0  0  0  0  0  0  0  0  0  0
    1.3601    4.1694    0.0000 C   0  0  0  0  0  0  0  0  0  0  0  0
    0.7500    5.5397    0.0000 C   0  0  0  0  0  0  0  0  0  0  0  0
   -0.3647    6.5434    0.0000 C   0  0  0  0  0  0  0  0  0  0  0  0
   -1.7913    7.0069    0.0000 C   0  0  0  0  0  0  0  0  0  0  0  0
   -3.2831    6.8501    0.0000 C   0  0  0  0  0  0  0  0  0  0  0  0
   -4.5821    6.1001    0.0000 O   0  0  0  0  0  0  0  0  0  0  0  0
   -5.4638    4.8866    0.0000 C   0  0  0  0  0  0  0  0  0  0  0  0
   -6.5785    5.8903    0.0000 C   0  0  0  0  0  0  0  0  0  0  0  0
   -8.0051    5.4267    0.0000 C   0  0  0  0  0  0  0  0  0  0  0  0
   -9.1198    6.4304    0.0000 O   0  0  0  0  0  0  0  0  0  0  0  0
   -8.8080    7.8977    0.0000 C   0  0  0  0  0  0  0  0  0  0  0  0
   -9.9227    8.9014    0.0000 C   0  0  0  0  0  0  0  0  0  0  0  0
   -9.6108   10.3686    0.0000 C   0  0  0  0  0  0  0  0  0  0  0  0
  -10.7255   11.3723    0.0000 O   0  0  0  0  0  0  0  0  0  0  0  0
   -8.3170    3.9595    0.0000 C   0  0  0  0  0  0  0  0  0  0  0  0
   -9.7436    3.4960    0.0000 Cl  0  0  0  0  0  0  0  0  0  0  0  0
   -7.2023    2.9558    0.0000 C   0  0  0  0  0  0  0  0  0  0  0  0
   -5.7757    3.4194    0.0000 C   0  0  0  0  0  0  0  0  0  0  0  0
   -5.4638    1.9521    0.0000 N   0  0  0  0  0  0  0  0  0  0  0  0
   -4.5821    0.7386    0.0000 C   0  0  0  0  0  0  0  0  0  0  0  0
   -5.5858   -0.3761    0.0000 O   0  0  0  0  0  0  0  0  0  0  0  0
   -3.2831   -0.0114    0.0000 N   0  0  0  0  0  0  0  0  0  0  0  0
  1  2  3  0
  2  3  1  0
  3  4  2  0
  4  5  1  0
  5  6  2  0
  6  7  1  0
  7  8  2  0
  8  9  1  0
  9 10  1  0
 10 11  1  0
 11 12  1  0
 12 13  1  0
 13 14  1  0
 14 15  1  0
 15 16  1  0
 16 17  2  0
 17 18  1  0
 18 19  1  0
 19 20  1  0
 20 21  1  0
 21 22  1  0
 22 23  1  0
 18 24  2  0
 24 25  1  0
 24 26  1  0
 26 27  2  0
 27 28  1  0
 28 29  1  0
 29 30  2  0
 29 31  1  0
  8  3  1  0
 27 16  1  0
 31  6  1  0
M  END
>  <Affinity>  (35) 
2.0

>  <Affinity Type>  (35) 
IC50

>  <Affinity Unit>  (35) 
nM

>  <Scaffold>  (35) 
[#7&!R]#&!@[#6&!R]-&!@[#6&R]1:&@[#7&R]:&@[#6&R]:&@[#6&R]2:&@[#7&R]:&@[#6&R]:&@1-&@[#8&R]-&@[#6&R]-&@[#6&R]-&@[#6&R]-&@[#6&R]-&@[#6&R]-&@[#8&R]-&@[#6&R]1:&@[#6&R](-&@[#7&R]-&@[#6&R](-&@[#7&R]-&@2)=&!@[#8&!R]):&@[#6&R]:&@[#6&R](:&@[#6&R]:&@[#6&R]:&@1)-&!@[#17&!R]

$$$$
O14757_Sries14139_idx-in-all-actives-266
     RDKit          2D

 33 36  0  0  0  0  0  0  0  0999 V2000
    4.5000    0.0000    0.0000 N   0  0  0  0  0  0  0  0  0  0  0  0
    3.0000    0.0000    0.0000 C   0  0  0  0  0  0  0  0  0  0  0  0
    1.5000    0.0000    0.0000 C   0  0  0  0  0  0  0  0  0  0  0  0
    0.7500   -1.2990    0.0000 N   0  0  0  0  0  0  0  0  0  0  0  0
   -0.7500   -1.2990    0.0000 C   0  0  0  0  0  0  0  0  0  0  0  0
   -1.5000    0.0000    0.0000 C   0  0  0  0  0  0  0  0  0  0  0  0
   -0.7500    1.2990    0.0000 N   0  0  0  0  0  0  0  0  0  0  0  0
    0.7500    1.2990    0.0000 C   0  0  0  0  0  0  0  0  0  0  0  0
    1.3601    2.6694    0.0000 O   0  0  0  0  0  0  0  0  0  0  0  0
    1.3601    4.1694    0.0000 C   0  0  0  0  0  0  0  0  0  0  0  0
    0.7500    5.5397    0.0000 C   0  0  0  0  0  0  0  0  0  0  0  0
   -0.3647    6.5434    0.0000 C   0  0  0  0  0  0  0  0  0  0  0  0
   -1.7913    7.0069    0.0000 C   0  0  0  0  0  0  0  0  0  0  0  0
   -3.2831    6.8501    0.0000 C   0  0  0  0  0  0  0  0  0  0  0  0
   -4.5821    6.1001    0.0000 O   0  0  0  0  0  0  0  0  0  0  0  0
   -5.4638    4.8866    0.0000 C   0  0  0  0  0  0  0  0  0  0  0  0
   -6.5785    5.8903    0.0000 C   0  0  0  0  0  0  0  0  0  0  0  0
   -8.0051    5.4267    0.0000 C   0  0  0  0  0  0  0  0  0  0  0  0
   -9.1198    6.4304    0.0000 N   0  0  0  0  0  0  0  0  0  0  0  0
   -8.8080    7.8977    0.0000 C   0  0  0  0  0  0  0  0  0  0  0  0
   -9.9227    8.9014    0.0000 C   0  0  0  0  0  0  0  0  0  0  0  0
  -11.3899    8.5895    0.0000 C   0  0  0  0  0  0  0  0  0  0  0  0
  -12.1399    9.8885    0.0000 N   0  0  0  0  0  0  0  0  0  0  0  0
  -11.1362   11.0032    0.0000 C   0  0  0  0  0  0  0  0  0  0  0  0
   -9.7659   10.3931    0.0000 O   0  0  0  0  0  0  0  0  0  0  0  0
   -8.3170    3.9595    0.0000 C   0  0  0  0  0  0  0  0  0  0  0  0
   -9.7436    3.4960    0.0000 Cl  0  0  0  0  0  0  0  0  0  0  0  0
   -7.2023    2.9558    0.0000 C   0  0  0  0  0  0  0  0  0  0  0  0
   -5.7757    3.4194    0.0000 C   0  0  0  0  0  0  0  0  0  0  0  0
   -5.4638    1.9521    0.0000 N   0  0  0  0  0  0  0  0  0  0  0  0
   -4.5821    0.7386    0.0000 C   0  0  0  0  0  0  0  0  0  0  0  0
   -5.5858   -0.3761    0.0000 O   0  0  0  0  0  0  0  0  0  0  0  0
   -3.2831   -0.0114    0.0000 N   0  0  0  0  0  0  0  0  0  0  0  0
  1  2  3  0
  2  3  1  0
  3  4  2  0
  4  5  1  0
  5  6  2  0
  6  7  1  0
  7  8  2  0
  8  9  1  0
  9 10  1  0
 10 11  1  0
 11 12  1  0
 12 13  1  0
 13 14  1  0
 14 15  1  0
 15 16  1  0
 16 17  2  0
 17 18  1  0
 18 19  1  0
 19 20  1  0
 20 21  1  0
 21 22  2  0
 22 23  1  0
 23 24  2  0
 24 25  1  0
 18 26  2  0
 26 27  1  0
 26 28  1  0
 28 29  2  0
 29 30  1  0
 30 31  1  0
 31 32  2  0
 31 33  1  0
  8  3  1  0
 29 16  1  0
 33  6  1  0
 25 21  1  0
M  END
>  <Affinity>  (36) 
7.0

>  <Affinity Type>  (36) 
IC50

>  <Affinity Unit>  (36) 
nM

>  <Scaffold>  (36) 
[#7&!R]#&!@[#6&!R]-&!@[#6&R]1:&@[#7&R]:&@[#6&R]:&@[#6&R]2:&@[#7&R]:&@[#6&R]:&@1-&@[#8&R]-&@[#6&R]-&@[#6&R]-&@[#6&R]-&@[#6&R]-&@[#6&R]-&@[#8&R]-&@[#6&R]1:&@[#6&R](-&@[#7&R]-&@[#6&R](-&@[#7&R]-&@2)=&!@[#8&!R]):&@[#6&R]:&@[#6&R](:&@[#6&R]:&@[#6&R]:&@1)-&!@[#17&!R]

$$$$
O14757_Sries14139_idx-in-all-actives-280
     RDKit          2D

 34 37  0  0  0  0  0  0  0  0999 V2000
    4.5000    0.0000    0.0000 N   0  0  0  0  0  0  0  0  0  0  0  0
    3.0000    0.0000    0.0000 C   0  0  0  0  0  0  0  0  0  0  0  0
    1.5000    0.0000    0.0000 C   0  0  0  0  0  0  0  0  0  0  0  0
    0.7500   -1.2990    0.0000 N   0  0  0  0  0  0  0  0  0  0  0  0
   -0.7500   -1.2990    0.0000 C   0  0  0  0  0  0  0  0  0  0  0  0
   -1.5000    0.0000    0.0000 C   0  0  0  0  0  0  0  0  0  0  0  0
   -0.7500    1.2990    0.0000 N   0  0  0  0  0  0  0  0  0  0  0  0
    0.7500    1.2990    0.0000 C   0  0  0  0  0  0  0  0  0  0  0  0
    1.3601    2.6694    0.0000 O   0  0  0  0  0  0  0  0  0  0  0  0
    1.3601    4.1694    0.0000 C   0  0  0  0  0  0  0  0  0  0  0  0
    0.7500    5.5397    0.0000 C   0  0  0  0  0  0  0  0  0  0  0  0
   -0.3647    6.5434    0.0000 C   0  0  0  0  0  0  0  0  0  0  0  0
   -1.7913    7.0069    0.0000 C   0  0  0  0  0  0  0  0  0  0  0  0
   -3.2831    6.8501    0.0000 C   0  0  0  0  0  0  0  0  0  0  0  0
   -4.5821    6.1001    0.0000 O   0  0  0  0  0  0  0  0  0  0  0  0
   -5.4638    4.8866    0.0000 C   0  0  0  0  0  0  0  0  0  0  0  0
   -6.5785    5.8903    0.0000 C   0  0  0  0  0  0  0  0  0  0  0  0
   -8.0051    5.4267    0.0000 C   0  0  0  0  0  0  0  0  0  0  0  0
   -9.1198    6.4304    0.0000 O   0  0  0  0  0  0  0  0  0  0  0  0
   -8.8080    7.8977    0.0000 C   0  0  0  0  0  0  0  0  0  0  0  0
   -9.9227    8.9014    0.0000 C   0  0  0  0  0  0  0  0  0  0  0  0
   -9.6108   10.3686    0.0000 C   0  0  0  0  0  0  0  0  0  0  0  0
  -10.7255   11.3723    0.0000 C   0  0  0  0  0  0  0  0  0  0  0  0
  -12.1521   10.9088    0.0000 C   0  0  0  0  0  0  0  0  0  0  0  0
  -12.4640    9.4415    0.0000 C   0  0  0  0  0  0  0  0  0  0  0  0
  -11.3493    8.4378    0.0000 N   0  0  0  0  0  0  0  0  0  0  0  0
   -8.3170    3.9595    0.0000 C   0  0  0  0  0  0  0  0  0  0  0  0
   -9.7436    3.4960    0.0000 Cl  0  0  0  0  0  0  0  0  0  0  0  0
   -7.2023    2.9558    0.0000 C   0  0  0  0  0  0  0  0  0  0  0  0
   -5.7757    3.4194    0.0000 C   0  0  0  0  0  0  0  0  0  0  0  0
   -5.4638    1.9521    0.0000 N   0  0  0  0  0  0  0  0  0  0  0  0
   -4.5821    0.7386    0.0000 C   0  0  0  0  0  0  0  0  0  0  0  0
   -5.5858   -0.3761    0.0000 O   0  0  0  0  0  0  0  0  0  0  0  0
   -3.2831   -0.0114    0.0000 N   0  0  0  0  0  0  0  0  0  0  0  0
  1  2  3  0
  2  3  1  0
  3  4  2  0
  4  5  1  0
  5  6  2  0
  6  7  1  0
  7  8  2  0
  8  9  1  0
  9 10  1  0
 10 11  1  0
 11 12  1  0
 12 13  1  0
 13 14  1  0
 14 15  1  0
 15 16  1  0
 16 17  2  0
 17 18  1  0
 18 19  1  0
 19 20  1  0
 20 21  1  0
 21 22  2  0
 22 23  1  0
 23 24  2  0
 24 25  1  0
 25 26  2  0
 18 27  2  0
 27 28  1  0
 27 29  1  0
 29 30  2  0
 30 31  1  0
 31 32  1  0
 32 33  2  0
 32 34  1  0
  8  3  1  0
 30 16  1  0
 34  6  1  0
 26 21  1  0
M  END
>  <Affinity>  (37) 
63.0

>  <Affinity Type>  (37) 
IC50

>  <Affinity Unit>  (37) 
nM

>  <Scaffold>  (37) 
[#7&!R]#&!@[#6&!R]-&!@[#6&R]1:&@[#7&R]:&@[#6&R]:&@[#6&R]2:&@[#7&R]:&@[#6&R]:&@1-&@[#8&R]-&@[#6&R]-&@[#6&R]-&@[#6&R]-&@[#6&R]-&@[#6&R]-&@[#8&R]-&@[#6&R]1:&@[#6&R](-&@[#7&R]-&@[#6&R](-&@[#7&R]-&@2)=&!@[#8&!R]):&@[#6&R]:&@[#6&R](:&@[#6&R]:&@[#6&R]:&@1)-&!@[#17&!R]

$$$$
O14757_Sries14139_idx-in-all-actives-293
     RDKit          2D

 27 29  0  0  0  0  0  0  0  0999 V2000
    4.5000    0.0000    0.0000 N   0  0  0  0  0  0  0  0  0  0  0  0
    3.0000    0.0000    0.0000 C   0  0  0  0  0  0  0  0  0  0  0  0
    1.5000    0.0000    0.0000 C   0  0  0  0  0  0  0  0  0  0  0  0
    0.7500   -1.2990    0.0000 N   0  0  0  0  0  0  0  0  0  0  0  0
   -0.7500   -1.2990    0.0000 C   0  0  0  0  0  0  0  0  0  0  0  0
   -1.5000    0.0000    0.0000 C   0  0  0  0  0  0  0  0  0  0  0  0
   -0.7500    1.2990    0.0000 N   0  0  0  0  0  0  0  0  0  0  0  0
    0.7500    1.2990    0.0000 C   0  0  0  0  0  0  0  0  0  0  0  0
    1.3601    2.6694    0.0000 O   0  0  0  0  0  0  0  0  0  0  0  0
    1.3601    4.1694    0.0000 C   0  0  0  0  0  0  0  0  0  0  0  0
    0.7500    5.5397    0.0000 C   0  0  0  0  0  0  0  0  0  0  0  0
   -0.3647    6.5434    0.0000 C   0  0  0  0  0  0  0  0  0  0  0  0
   -1.7913    7.0069    0.0000 C   0  0  0  0  0  0  0  0  0  0  0  0
   -3.2831    6.8501    0.0000 C   0  0  0  0  0  0  0  0  0  0  0  0
   -4.5821    6.1001    0.0000 O   0  0  0  0  0  0  0  0  0  0  0  0
   -5.4638    4.8866    0.0000 C   0  0  0  0  0  0  0  0  0  0  0  0
   -6.5785    5.8903    0.0000 C   0  0  0  0  0  0  0  0  0  0  0  0
   -8.0051    5.4267    0.0000 C   0  0  0  0  0  0  0  0  0  0  0  0
   -9.1198    6.4304    0.0000 O   0  0  0  0  0  0  0  0  0  0  0  0
   -8.3170    3.9595    0.0000 C   0  0  0  0  0  0  0  0  0  0  0  0
   -9.7436    3.4960    0.0000 Cl  0  0  0  0  0  0  0  0  0  0  0  0
   -7.2023    2.9558    0.0000 C   0  0  0  0  0  0  0  0  0  0  0  0
   -5.7757    3.4194    0.0000 C   0  0  0  0  0  0  0  0  0  0  0  0
   -5.4638    1.9521    0.0000 N   0  0  0  0  0  0  0  0  0  0  0  0
   -4.5821    0.7386    0.0000 C   0  0  0  0  0  0  0  0  0  0  0  0
   -5.5858   -0.3761    0.0000 O   0  0  0  0  0  0  0  0  0  0  0  0
   -3.2831   -0.0114    0.0000 N   0  0  0  0  0  0  0  0  0  0  0  0
  1  2  3  0
  2  3  1  0
  3  4  2  0
  4  5  1  0
  5  6  2  0
  6  7  1  0
  7  8  2  0
  8  9  1  0
  9 10  1  0
 10 11  1  0
 11 12  1  0
 12 13  1  0
 13 14  1  0
 14 15  1  0
 15 16  1  0
 16 17  2  0
 17 18  1  0
 18 19  1  0
 18 20  2  0
 20 21  1  0
 20 22  1  0
 22 23  2  0
 23 24  1  0
 24 25  1  0
 25 26  2  0
 25 27  1  0
  8  3  1  0
 23 16  1  0
 27  6  1  0
M  END
>  <Affinity>  (38) 
6.0

>  <Affinity Type>  (38) 
IC50

>  <Affinity Unit>  (38) 
nM

>  <Scaffold>  (38) 
[#7&!R]#&!@[#6&!R]-&!@[#6&R]1:&@[#7&R]:&@[#6&R]:&@[#6&R]2:&@[#7&R]:&@[#6&R]:&@1-&@[#8&R]-&@[#6&R]-&@[#6&R]-&@[#6&R]-&@[#6&R]-&@[#6&R]-&@[#8&R]-&@[#6&R]1:&@[#6&R](-&@[#7&R]-&@[#6&R](-&@[#7&R]-&@2)=&!@[#8&!R]):&@[#6&R]:&@[#6&R](:&@[#6&R]:&@[#6&R]:&@1)-&!@[#17&!R]

$$$$
O14757_Sries14139_idx-in-all-actives-267
     RDKit          2D

 33 36  0  0  0  0  0  0  0  0999 V2000
    4.5000    0.0000    0.0000 N   0  0  0  0  0  0  0  0  0  0  0  0
    3.0000    0.0000    0.0000 C   0  0  0  0  0  0  0  0  0  0  0  0
    1.5000    0.0000    0.0000 C   0  0  0  0  0  0  0  0  0  0  0  0
    0.7500   -1.2990    0.0000 N   0  0  0  0  0  0  0  0  0  0  0  0
   -0.7500   -1.2990    0.0000 C   0  0  0  0  0  0  0  0  0  0  0  0
   -1.5000    0.0000    0.0000 C   0  0  0  0  0  0  0  0  0  0  0  0
   -0.7500    1.2990    0.0000 N   0  0  0  0  0  0  0  0  0  0  0  0
    0.7500    1.2990    0.0000 C   0  0  0  0  0  0  0  0  0  0  0  0
    1.3601    2.6694    0.0000 O   0  0  0  0  0  0  0  0  0  0  0  0
    1.3601    4.1694    0.0000 C   0  0  0  0  0  0  0  0  0  0  0  0
    0.7500    5.5397    0.0000 C   0  0  0  0  0  0  0  0  0  0  0  0
   -0.3647    6.5434    0.0000 C   0  0  0  0  0  0  0  0  0  0  0  0
   -1.7913    7.0069    0.0000 C   0  0  0  0  0  0  0  0  0  0  0  0
   -3.2831    6.8501    0.0000 C   0  0  0  0  0  0  0  0  0  0  0  0
   -4.5821    6.1001    0.0000 O   0  0  0  0  0  0  0  0  0  0  0  0
   -5.4638    4.8866    0.0000 C   0  0  0  0  0  0  0  0  0  0  0  0
   -6.5785    5.8903    0.0000 C   0  0  0  0  0  0  0  0  0  0  0  0
   -8.0051    5.4267    0.0000 C   0  0  0  0  0  0  0  0  0  0  0  0
   -9.1198    6.4304    0.0000 N   0  0  0  0  0  0  0  0  0  0  0  0
   -8.8080    7.8977    0.0000 C   0  0  0  0  0  0  0  0  0  0  0  0
   -9.9227    8.9014    0.0000 C   0  0  0  0  0  0  0  0  0  0  0  0
  -11.3899    8.5895    0.0000 C   0  0  0  0  0  0  0  0  0  0  0  0
  -12.1399    9.8885    0.0000 N   0  0  0  0  0  0  0  0  0  0  0  0
  -11.1362   11.0032    0.0000 C   0  0  0  0  0  0  0  0  0  0  0  0
   -9.7659   10.3931    0.0000 S   0  0  0  0  0  0  0  0  0  0  0  0
   -8.3170    3.9595    0.0000 C   0  0  0  0  0  0  0  0  0  0  0  0
   -9.7436    3.4960    0.0000 Cl  0  0  0  0  0  0  0  0  0  0  0  0
   -7.2023    2.9558    0.0000 C   0  0  0  0  0  0  0  0  0  0  0  0
   -5.7757    3.4194    0.0000 C   0  0  0  0  0  0  0  0  0  0  0  0
   -5.4638    1.9521    0.0000 N   0  0  0  0  0  0  0  0  0  0  0  0
   -4.5821    0.7386    0.0000 C   0  0  0  0  0  0  0  0  0  0  0  0
   -5.5858   -0.3761    0.0000 O   0  0  0  0  0  0  0  0  0  0  0  0
   -3.2831   -0.0114    0.0000 N   0  0  0  0  0  0  0  0  0  0  0  0
  1  2  3  0
  2  3  1  0
  3  4  2  0
  4  5  1  0
  5  6  2  0
  6  7  1  0
  7  8  2  0
  8  9  1  0
  9 10  1  0
 10 11  1  0
 11 12  1  0
 12 13  1  0
 13 14  1  0
 14 15  1  0
 15 16  1  0
 16 17  2  0
 17 18  1  0
 18 19  1  0
 19 20  1  0
 20 21  1  0
 21 22  2  0
 22 23  1  0
 23 24  2  0
 24 25  1  0
 18 26  2  0
 26 27  1  0
 26 28  1  0
 28 29  2  0
 29 30  1  0
 30 31  1  0
 31 32  2  0
 31 33  1  0
  8  3  1  0
 29 16  1  0
 33  6  1  0
 25 21  1  0
M  END
>  <Affinity>  (39) 
6.0

>  <Affinity Type>  (39) 
IC50

>  <Affinity Unit>  (39) 
nM

>  <Scaffold>  (39) 
[#7&!R]#&!@[#6&!R]-&!@[#6&R]1:&@[#7&R]:&@[#6&R]:&@[#6&R]2:&@[#7&R]:&@[#6&R]:&@1-&@[#8&R]-&@[#6&R]-&@[#6&R]-&@[#6&R]-&@[#6&R]-&@[#6&R]-&@[#8&R]-&@[#6&R]1:&@[#6&R](-&@[#7&R]-&@[#6&R](-&@[#7&R]-&@2)=&!@[#8&!R]):&@[#6&R]:&@[#6&R](:&@[#6&R]:&@[#6&R]:&@1)-&!@[#17&!R]

$$$$
O14757_Sries14139_idx-in-all-actives-281
     RDKit          2D

 34 37  0  0  0  0  0  0  0  0999 V2000
    4.5000    0.0000    0.0000 N   0  0  0  0  0  0  0  0  0  0  0  0
    3.0000    0.0000    0.0000 C   0  0  0  0  0  0  0  0  0  0  0  0
    1.5000    0.0000    0.0000 C   0  0  0  0  0  0  0  0  0  0  0  0
    0.7500   -1.2990    0.0000 N   0  0  0  0  0  0  0  0  0  0  0  0
   -0.7500   -1.2990    0.0000 C   0  0  0  0  0  0  0  0  0  0  0  0
   -1.5000    0.0000    0.0000 C   0  0  0  0  0  0  0  0  0  0  0  0
   -0.7500    1.2990    0.0000 N   0  0  0  0  0  0  0  0  0  0  0  0
    0.7500    1.2990    0.0000 C   0  0  0  0  0  0  0  0  0  0  0  0
    1.3601    2.6694    0.0000 O   0  0  0  0  0  0  0  0  0  0  0  0
    1.3601    4.1694    0.0000 C   0  0  0  0  0  0  0  0  0  0  0  0
    0.7500    5.5397    0.0000 C   0  0  0  0  0  0  0  0  0  0  0  0
   -0.3647    6.5434    0.0000 C   0  0  0  0  0  0  0  0  0  0  0  0
   -1.7913    7.0069    0.0000 C   0  0  0  0  0  0  0  0  0  0  0  0
   -3.2831    6.8501    0.0000 C   0  0  0  0  0  0  0  0  0  0  0  0
   -4.5821    6.1001    0.0000 O   0  0  0  0  0  0  0  0  0  0  0  0
   -5.4638    4.8866    0.0000 C   0  0  0  0  0  0  0  0  0  0  0  0
   -6.5785    5.8903    0.0000 C   0  0  0  0  0  0  0  0  0  0  0  0
   -8.0051    5.4267    0.0000 C   0  0  0  0  0  0  0  0  0  0  0  0
   -9.1198    6.4304    0.0000 O   0  0  0  0  0  0  0  0  0  0  0  0
   -8.8080    7.8977    0.0000 C   0  0  0  0  0  0  0  0  0  0  0  0
   -9.9227    8.9014    0.0000 C   0  0  0  0  0  0  0  0  0  0  0  0
   -9.6108   10.3686    0.0000 C   0  0  0  0  0  0  0  0  0  0  0  0
  -10.7255   11.3723    0.0000 C   0  0  0  0  0  0  0  0  0  0  0  0
  -12.1521   10.9088    0.0000 C   0  0  0  0  0  0  0  0  0  0  0  0
  -12.4640    9.4415    0.0000 N   0  0  0  0  0  0  0  0  0  0  0  0
  -11.3493    8.4378    0.0000 C   0  0  0  0  0  0  0  0  0  0  0  0
   -8.3170    3.9595    0.0000 C   0  0  0  0  0  0  0  0  0  0  0  0
   -9.7436    3.4960    0.0000 Cl  0  0  0  0  0  0  0  0  0  0  0  0
   -7.2023    2.9558    0.0000 C   0  0  0  0  0  0  0  0  0  0  0  0
   -5.7757    3.4194    0.0000 C   0  0  0  0  0  0  0  0  0  0  0  0
   -5.4638    1.9521    0.0000 N   0  0  0  0  0  0  0  0  0  0  0  0
   -4.5821    0.7386    0.0000 C   0  0  0  0  0  0  0  0  0  0  0  0
   -5.5858   -0.3761    0.0000 O   0  0  0  0  0  0  0  0  0  0  0  0
   -3.2831   -0.0114    0.0000 N   0  0  0  0  0  0  0  0  0  0  0  0
  1  2  3  0
  2  3  1  0
  3  4  2  0
  4  5  1  0
  5  6  2  0
  6  7  1  0
  7  8  2  0
  8  9  1  0
  9 10  1  0
 10 11  1  0
 11 12  1  0
 12 13  1  0
 13 14  1  0
 14 15  1  0
 15 16  1  0
 16 17  2  0
 17 18  1  0
 18 19  1  0
 19 20  1  0
 20 21  1  0
 21 22  2  0
 22 23  1  0
 23 24  2  0
 24 25  1  0
 25 26  2  0
 18 27  2  0
 27 28  1  0
 27 29  1  0
 29 30  2  0
 30 31  1  0
 31 32  1  0
 32 33  2  0
 32 34  1  0
  8  3  1  0
 30 16  1  0
 34  6  1  0
 26 21  1  0
M  END
>  <Affinity>  (40) 
9.0

>  <Affinity Type>  (40) 
IC50

>  <Affinity Unit>  (40) 
nM

>  <Scaffold>  (40) 
[#7&!R]#&!@[#6&!R]-&!@[#6&R]1:&@[#7&R]:&@[#6&R]:&@[#6&R]2:&@[#7&R]:&@[#6&R]:&@1-&@[#8&R]-&@[#6&R]-&@[#6&R]-&@[#6&R]-&@[#6&R]-&@[#6&R]-&@[#8&R]-&@[#6&R]1:&@[#6&R](-&@[#7&R]-&@[#6&R](-&@[#7&R]-&@2)=&!@[#8&!R]):&@[#6&R]:&@[#6&R](:&@[#6&R]:&@[#6&R]:&@1)-&!@[#17&!R]

$$$$
O14757_Sries14139_idx-in-all-actives-251
     RDKit          2D

 31 33  0  0  0  0  0  0  0  0999 V2000
    4.5000    0.0000    0.0000 N   0  0  0  0  0  0  0  0  0  0  0  0
    3.0000    0.0000    0.0000 C   0  0  0  0  0  0  0  0  0  0  0  0
    1.5000    0.0000    0.0000 C   0  0  0  0  0  0  0  0  0  0  0  0
    0.7500   -1.2990    0.0000 N   0  0  0  0  0  0  0  0  0  0  0  0
   -0.7500   -1.2990    0.0000 C   0  0  0  0  0  0  0  0  0  0  0  0
   -1.5000    0.0000    0.0000 C   0  0  0  0  0  0  0  0  0  0  0  0
   -0.7500    1.2990    0.0000 N   0  0  0  0  0  0  0  0  0  0  0  0
    0.7500    1.2990    0.0000 C   0  0  0  0  0  0  0  0  0  0  0  0
    1.3601    2.6694    0.0000 O   0  0  0  0  0  0  0  0  0  0  0  0
    1.3601    4.1694    0.0000 C   0  0  0  0  0  0  0  0  0  0  0  0
    0.7500    5.5397    0.0000 C   0  0  0  0  0  0  0  0  0  0  0  0
   -0.3647    6.5434    0.0000 C   0  0  0  0  0  0  0  0  0  0  0  0
   -1.7913    7.0069    0.0000 C   0  0  0  0  0  0  0  0  0  0  0  0
   -3.2831    6.8501    0.0000 C   0  0  0  0  0  0  0  0  0  0  0  0
   -4.5821    6.1001    0.0000 O   0  0  0  0  0  0  0  0  0  0  0  0
   -5.4638    4.8866    0.0000 C   0  0  0  0  0  0  0  0  0  0  0  0
   -6.5785    5.8903    0.0000 C   0  0  0  0  0  0  0  0  0  0  0  0
   -8.0051    5.4267    0.0000 C   0  0  0  0  0  0  0  0  0  0  0  0
   -9.1198    6.4304    0.0000 C   0  0  0  0  0  0  0  0  0  0  0  0
   -8.8080    7.8977    0.0000 C   0  0  0  0  0  0  0  0  0  0  0  0
   -7.3814    8.3612    0.0000 O   0  0  0  0  0  0  0  0  0  0  0  0
   -9.9227    8.9014    0.0000 C   0  0  0  0  0  0  0  0  0  0  0  0
   -9.6108   10.3686    0.0000 O   0  0  0  0  0  0  0  0  0  0  0  0
   -8.3170    3.9595    0.0000 C   0  0  0  0  0  0  0  0  0  0  0  0
   -9.7436    3.4960    0.0000 Cl  0  0  0  0  0  0  0  0  0  0  0  0
   -7.2023    2.9558    0.0000 C   0  0  0  0  0  0  0  0  0  0  0  0
   -5.7757    3.4194    0.0000 C   0  0  0  0  0  0  0  0  0  0  0  0
   -5.4638    1.9521    0.0000 N   0  0  0  0  0  0  0  0  0  0  0  0
   -4.5821    0.7386    0.0000 C   0  0  0  0  0  0  0  0  0  0  0  0
   -5.5858   -0.3761    0.0000 O   0  0  0  0  0  0  0  0  0  0  0  0
   -3.2831   -0.0114    0.0000 N   0  0  0  0  0  0  0  0  0  0  0  0
  1  2  3  0
  2  3  1  0
  3  4  2  0
  4  5  1  0
  5  6  2  0
  6  7  1  0
  7  8  2  0
  8  9  1  0
  9 10  1  0
 10 11  1  0
 11 12  1  0
 12 13  1  0
 13 14  1  0
 14 15  1  0
 15 16  1  0
 16 17  2  0
 17 18  1  0
 18 19  1  0
 19 20  1  0
 20 21  1  0
 20 22  1  0
 22 23  1  0
 18 24  2  0
 24 25  1  0
 24 26  1  0
 26 27  2  0
 27 28  1  0
 28 29  1  0
 29 30  2  0
 29 31  1  0
  8  3  1  0
 27 16  1  0
 31  6  1  0
M  END
>  <Affinity>  (41) 
5.0

>  <Affinity Type>  (41) 
IC50

>  <Affinity Unit>  (41) 
nM

>  <Scaffold>  (41) 
[#7&!R]#&!@[#6&!R]-&!@[#6&R]1:&@[#7&R]:&@[#6&R]:&@[#6&R]2:&@[#7&R]:&@[#6&R]:&@1-&@[#8&R]-&@[#6&R]-&@[#6&R]-&@[#6&R]-&@[#6&R]-&@[#6&R]-&@[#8&R]-&@[#6&R]1:&@[#6&R](-&@[#7&R]-&@[#6&R](-&@[#7&R]-&@2)=&!@[#8&!R]):&@[#6&R]:&@[#6&R](:&@[#6&R]:&@[#6&R]:&@1)-&!@[#17&!R]

$$$$
O14757_Sries14139_idx-in-all-actives-255
     RDKit          2D

 31 33  0  0  0  0  0  0  0  0999 V2000
   -3.0593  -14.5112    0.0000 C   0  0  0  0  0  0  0  0  0  0  0  0
   -1.6328  -14.0477    0.0000 C   0  0  0  0  0  0  0  0  0  0  0  0
   -0.5180  -15.0514    0.0000 O   0  0  0  0  0  0  0  0  0  0  0  0
   -1.3209  -12.5804    0.0000 C   0  0  0  0  0  0  0  0  0  0  0  0
   -1.0090  -11.1132    0.0000 C   0  0  0  0  0  0  0  0  0  0  0  0
   -0.6972   -9.6460    0.0000 C   0  0  0  0  0  0  0  0  0  0  0  0
   -1.8119   -8.6423    0.0000 C   0  0  0  0  0  0  0  0  0  0  0  0
   -1.5000   -7.1751    0.0000 C   0  0  0  0  0  0  0  0  0  0  0  0
   -0.0734   -6.7116    0.0000 C   0  0  0  0  0  0  0  0  0  0  0  0
    1.0413   -7.7152    0.0000 C   0  0  0  0  0  0  0  0  0  0  0  0
    0.7294   -9.1825    0.0000 C   0  0  0  0  0  0  0  0  0  0  0  0
    1.8442  -10.1862    0.0000 Cl  0  0  0  0  0  0  0  0  0  0  0  0
    1.0413   -5.7079    0.0000 N   0  0  0  0  0  0  0  0  0  0  0  0
    1.6514   -4.3375    0.0000 C   0  0  0  0  0  0  0  0  0  0  0  0
    3.1186   -4.6494    0.0000 O   0  0  0  0  0  0  0  0  0  0  0  0
    1.6514   -2.8375    0.0000 N   0  0  0  0  0  0  0  0  0  0  0  0
    0.7500   -1.2990    0.0000 C   0  0  0  0  0  0  0  0  0  0  0  0
    1.5000    0.0000    0.0000 C   0  0  0  0  0  0  0  0  0  0  0  0
    0.7500    1.2990    0.0000 N   0  0  0  0  0  0  0  0  0  0  0  0
   -0.7500    1.2990    0.0000 C   0  0  0  0  0  0  0  0  0  0  0  0
   -1.5000    2.5981    0.0000 C   0  0  0  0  0  0  0  0  0  0  0  0
   -2.2500    3.8971    0.0000 N   0  0  0  0  0  0  0  0  0  0  0  0
   -1.5000    0.0000    0.0000 C   0  0  0  0  0  0  0  0  0  0  0  0
   -0.7500   -1.2990    0.0000 N   0  0  0  0  0  0  0  0  0  0  0  0
   -2.9918   -0.1568    0.0000 O   0  0  0  0  0  0  0  0  0  0  0  0
   -4.2908   -0.9068    0.0000 C   0  0  0  0  0  0  0  0  0  0  0  0
   -5.1725   -2.1203    0.0000 C   0  0  0  0  0  0  0  0  0  0  0  0
   -5.4844   -3.5875    0.0000 C   0  0  0  0  0  0  0  0  0  0  0  0
   -5.1725   -5.0548    0.0000 C   0  0  0  0  0  0  0  0  0  0  0  0
   -4.2908   -6.2683    0.0000 C   0  0  0  0  0  0  0  0  0  0  0  0
   -2.9918   -7.0183    0.0000 O   0  0  0  0  0  0  0  0  0  0  0  0
  1  2  1  0
  2  3  1  0
  2  4  1  0
  4  5  3  0
  5  6  1  0
  6  7  2  0
  7  8  1  0
  8  9  2  0
  9 10  1  0
 10 11  2  0
 11 12  1  0
  9 13  1  0
 13 14  1  0
 14 15  2  0
 14 16  1  0
 16 17  1  0
 17 18  1  0
 18 19  2  0
 19 20  1  0
 20 21  1  0
 21 22  3  0
 20 23  2  0
 23 24  1  0
 23 25  1  0
 25 26  1  0
 26 27  1  0
 27 28  1  0
 28 29  1  0
 29 30  1  0
 30 31  1  0
 11  6  1  0
 24 17  2  0
 31  8  1  0
M  END
>  <Affinity>  (42) 
26.0

>  <Affinity Type>  (42) 
IC50

>  <Affinity Unit>  (42) 
nM

>  <Scaffold>  (42) 
[#7&!R]#&!@[#6&!R]-&!@[#6&R]1:&@[#7&R]:&@[#6&R]:&@[#6&R]2:&@[#7&R]:&@[#6&R]:&@1-&@[#8&R]-&@[#6&R]-&@[#6&R]-&@[#6&R]-&@[#6&R]-&@[#6&R]-&@[#8&R]-&@[#6&R]1:&@[#6&R](-&@[#7&R]-&@[#6&R](-&@[#7&R]-&@2)=&!@[#8&!R]):&@[#6&R]:&@[#6&R](:&@[#6&R]:&@[#6&R]:&@1)-&!@[#17&!R]

$$$$
O14757_Sries14139_idx-in-all-actives-268
     RDKit          2D

 33 36  0  0  0  0  0  0  0  0999 V2000
    4.5000    0.0000    0.0000 N   0  0  0  0  0  0  0  0  0  0  0  0
    3.0000    0.0000    0.0000 C   0  0  0  0  0  0  0  0  0  0  0  0
    1.5000    0.0000    0.0000 C   0  0  0  0  0  0  0  0  0  0  0  0
    0.7500   -1.2990    0.0000 N   0  0  0  0  0  0  0  0  0  0  0  0
   -0.7500   -1.2990    0.0000 C   0  0  0  0  0  0  0  0  0  0  0  0
   -1.5000    0.0000    0.0000 C   0  0  0  0  0  0  0  0  0  0  0  0
   -0.7500    1.2990    0.0000 N   0  0  0  0  0  0  0  0  0  0  0  0
    0.7500    1.2990    0.0000 C   0  0  0  0  0  0  0  0  0  0  0  0
    1.3601    2.6694    0.0000 O   0  0  0  0  0  0  0  0  0  0  0  0
    1.3601    4.1694    0.0000 C   0  0  0  0  0  0  0  0  0  0  0  0
    0.7500    5.5397    0.0000 C   0  0  0  0  0  0  0  0  0  0  0  0
   -0.3647    6.5434    0.0000 C   0  0  0  0  0  0  0  0  0  0  0  0
   -1.7913    7.0069    0.0000 C   0  0  0  0  0  0  0  0  0  0  0  0
   -3.2831    6.8501    0.0000 C   0  0  0  0  0  0  0  0  0  0  0  0
   -4.5821    6.1001    0.0000 O   0  0  0  0  0  0  0  0  0  0  0  0
   -5.4638    4.8866    0.0000 C   0  0  0  0  0  0  0  0  0  0  0  0
   -6.5785    5.8903    0.0000 C   0  0  0  0  0  0  0  0  0  0  0  0
   -8.0051    5.4267    0.0000 C   0  0  0  0  0  0  0  0  0  0  0  0
   -9.1198    6.4304    0.0000 N   0  0  0  0  0  0  0  0  0  0  0  0
   -8.8080    7.8977    0.0000 C   0  0  0  0  0  0  0  0  0  0  0  0
   -9.9227    8.9014    0.0000 C   0  0  0  0  0  0  0  0  0  0  0  0
  -11.3899    8.5895    0.0000 C   0  0  0  0  0  0  0  0  0  0  0  0
  -12.1399    9.8885    0.0000 N   0  0  0  0  0  0  0  0  0  0  0  0
  -11.1362   11.0032    0.0000 C   0  0  0  0  0  0  0  0  0  0  0  0
   -9.7659   10.3931    0.0000 N   0  0  0  0  0  0  0  0  0  0  0  0
   -8.3170    3.9595    0.0000 C   0  0  0  0  0  0  0  0  0  0  0  0
   -9.7436    3.4960    0.0000 Cl  0  0  0  0  0  0  0  0  0  0  0  0
   -7.2023    2.9558    0.0000 C   0  0  0  0  0  0  0  0  0  0  0  0
   -5.7757    3.4194    0.0000 C   0  0  0  0  0  0  0  0  0  0  0  0
   -5.4638    1.9521    0.0000 N   0  0  0  0  0  0  0  0  0  0  0  0
   -4.5821    0.7386    0.0000 C   0  0  0  0  0  0  0  0  0  0  0  0
   -5.5858   -0.3761    0.0000 O   0  0  0  0  0  0  0  0  0  0  0  0
   -3.2831   -0.0114    0.0000 N   0  0  0  0  0  0  0  0  0  0  0  0
  1  2  3  0
  2  3  1  0
  3  4  2  0
  4  5  1  0
  5  6  2  0
  6  7  1  0
  7  8  2  0
  8  9  1  0
  9 10  1  0
 10 11  1  0
 11 12  1  0
 12 13  1  0
 13 14  1  0
 14 15  1  0
 15 16  1  0
 16 17  2  0
 17 18  1  0
 18 19  1  0
 19 20  1  0
 20 21  1  0
 21 22  2  0
 22 23  1  0
 23 24  1  0
 24 25  2  0
 18 26  2  0
 26 27  1  0
 26 28  1  0
 28 29  2  0
 29 30  1  0
 30 31  1  0
 31 32  2  0
 31 33  1  0
  8  3  1  0
 29 16  1  0
 33  6  1  0
 25 21  1  0
M  END
>  <Affinity>  (43) 
231.0

>  <Affinity Type>  (43) 
IC50

>  <Affinity Unit>  (43) 
nM

>  <Scaffold>  (43) 
[#7&!R]#&!@[#6&!R]-&!@[#6&R]1:&@[#7&R]:&@[#6&R]:&@[#6&R]2:&@[#7&R]:&@[#6&R]:&@1-&@[#8&R]-&@[#6&R]-&@[#6&R]-&@[#6&R]-&@[#6&R]-&@[#6&R]-&@[#8&R]-&@[#6&R]1:&@[#6&R](-&@[#7&R]-&@[#6&R](-&@[#7&R]-&@2)=&!@[#8&!R]):&@[#6&R]:&@[#6&R](:&@[#6&R]:&@[#6&R]:&@1)-&!@[#17&!R]

$$$$
O14757_Sries14139_idx-in-all-actives-282
     RDKit          2D

 34 37  0  0  0  0  0  0  0  0999 V2000
    4.5000    0.0000    0.0000 N   0  0  0  0  0  0  0  0  0  0  0  0
    3.0000    0.0000    0.0000 C   0  0  0  0  0  0  0  0  0  0  0  0
    1.5000    0.0000    0.0000 C   0  0  0  0  0  0  0  0  0  0  0  0
    0.7500   -1.2990    0.0000 N   0  0  0  0  0  0  0  0  0  0  0  0
   -0.7500   -1.2990    0.0000 C   0  0  0  0  0  0  0  0  0  0  0  0
   -1.5000    0.0000    0.0000 C   0  0  0  0  0  0  0  0  0  0  0  0
   -0.7500    1.2990    0.0000 N   0  0  0  0  0  0  0  0  0  0  0  0
    0.7500    1.2990    0.0000 C   0  0  0  0  0  0  0  0  0  0  0  0
    1.3601    2.6694    0.0000 O   0  0  0  0  0  0  0  0  0  0  0  0
    1.3601    4.1694    0.0000 C   0  0  0  0  0  0  0  0  0  0  0  0
    0.7500    5.5397    0.0000 C   0  0  0  0  0  0  0  0  0  0  0  0
   -0.3647    6.5434    0.0000 C   0  0  0  0  0  0  0  0  0  0  0  0
   -1.7913    7.0069    0.0000 C   0  0  0  0  0  0  0  0  0  0  0  0
   -3.2831    6.8501    0.0000 C   0  0  0  0  0  0  0  0  0  0  0  0
   -4.5821    6.1001    0.0000 O   0  0  0  0  0  0  0  0  0  0  0  0
   -5.4638    4.8866    0.0000 C   0  0  0  0  0  0  0  0  0  0  0  0
   -6.5785    5.8903    0.0000 C   0  0  0  0  0  0  0  0  0  0  0  0
   -8.0051    5.4267    0.0000 C   0  0  0  0  0  0  0  0  0  0  0  0
   -9.1198    6.4304    0.0000 O   0  0  0  0  0  0  0  0  0  0  0  0
   -8.8080    7.8977    0.0000 C   0  0  0  0  0  0  0  0  0  0  0  0
   -9.9227    8.9014    0.0000 C   0  0  0  0  0  0  0  0  0  0  0  0
   -9.6108   10.3686    0.0000 C   0  0  0  0  0  0  0  0  0  0  0  0
  -10.7255   11.3723    0.0000 C   0  0  0  0  0  0  0  0  0  0  0  0
  -12.1521   10.9088    0.0000 N   0  0  0  0  0  0  0  0  0  0  0  0
  -12.4640    9.4415    0.0000 C   0  0  0  0  0  0  0  0  0  0  0  0
  -11.3493    8.4378    0.0000 C   0  0  0  0  0  0  0  0  0  0  0  0
   -8.3170    3.9595    0.0000 C   0  0  0  0  0  0  0  0  0  0  0  0
   -9.7436    3.4960    0.0000 Cl  0  0  0  0  0  0  0  0  0  0  0  0
   -7.2023    2.9558    0.0000 C   0  0  0  0  0  0  0  0  0  0  0  0
   -5.7757    3.4194    0.0000 C   0  0  0  0  0  0  0  0  0  0  0  0
   -5.4638    1.9521    0.0000 N   0  0  0  0  0  0  0  0  0  0  0  0
   -4.5821    0.7386    0.0000 C   0  0  0  0  0  0  0  0  0  0  0  0
   -5.5858   -0.3761    0.0000 O   0  0  0  0  0  0  0  0  0  0  0  0
   -3.2831   -0.0114    0.0000 N   0  0  0  0  0  0  0  0  0  0  0  0
  1  2  3  0
  2  3  1  0
  3  4  2  0
  4  5  1  0
  5  6  2  0
  6  7  1  0
  7  8  2  0
  8  9  1  0
  9 10  1  0
 10 11  1  0
 11 12  1  0
 12 13  1  0
 13 14  1  0
 14 15  1  0
 15 16  1  0
 16 17  2  0
 17 18  1  0
 18 19  1  0
 19 20  1  0
 20 21  1  0
 21 22  2  0
 22 23  1  0
 23 24  2  0
 24 25  1  0
 25 26  2  0
 18 27  2  0
 27 28  1  0
 27 29  1  0
 29 30  2  0
 30 31  1  0
 31 32  1  0
 32 33  2  0
 32 34  1  0
  8  3  1  0
 30 16  1  0
 34  6  1  0
 26 21  1  0
M  END
>  <Affinity>  (44) 
12.0

>  <Affinity Type>  (44) 
IC50

>  <Affinity Unit>  (44) 
nM

>  <Scaffold>  (44) 
[#7&!R]#&!@[#6&!R]-&!@[#6&R]1:&@[#7&R]:&@[#6&R]:&@[#6&R]2:&@[#7&R]:&@[#6&R]:&@1-&@[#8&R]-&@[#6&R]-&@[#6&R]-&@[#6&R]-&@[#6&R]-&@[#6&R]-&@[#8&R]-&@[#6&R]1:&@[#6&R](-&@[#7&R]-&@[#6&R](-&@[#7&R]-&@2)=&!@[#8&!R]):&@[#6&R]:&@[#6&R](:&@[#6&R]:&@[#6&R]:&@1)-&!@[#17&!R]

$$$$
O14757_Sries14139_idx-in-all-actives-269
     RDKit          2D

 34 37  0  0  0  0  0  0  0  0999 V2000
    4.5000    0.0000    0.0000 N   0  0  0  0  0  0  0  0  0  0  0  0
    3.0000    0.0000    0.0000 C   0  0  0  0  0  0  0  0  0  0  0  0
    1.5000    0.0000    0.0000 C   0  0  0  0  0  0  0  0  0  0  0  0
    0.7500   -1.2990    0.0000 N   0  0  0  0  0  0  0  0  0  0  0  0
   -0.7500   -1.2990    0.0000 C   0  0  0  0  0  0  0  0  0  0  0  0
   -1.5000    0.0000    0.0000 C   0  0  0  0  0  0  0  0  0  0  0  0
   -0.7500    1.2990    0.0000 N   0  0  0  0  0  0  0  0  0  0  0  0
    0.7500    1.2990    0.0000 C   0  0  0  0  0  0  0  0  0  0  0  0
    1.3601    2.6694    0.0000 O   0  0  0  0  0  0  0  0  0  0  0  0
    1.3601    4.1694    0.0000 C   0  0  0  0  0  0  0  0  0  0  0  0
    0.7500    5.5397    0.0000 C   0  0  0  0  0  0  0  0  0  0  0  0
   -0.3647    6.5434    0.0000 C   0  0  0  0  0  0  0  0  0  0  0  0
   -1.7913    7.0069    0.0000 C   0  0  0  0  0  0  0  0  0  0  0  0
   -3.2831    6.8501    0.0000 C   0  0  0  0  0  0  0  0  0  0  0  0
   -4.5821    6.1001    0.0000 O   0  0  0  0  0  0  0  0  0  0  0  0
   -5.4638    4.8866    0.0000 C   0  0  0  0  0  0  0  0  0  0  0  0
   -6.5785    5.8903    0.0000 C   0  0  0  0  0  0  0  0  0  0  0  0
   -8.0051    5.4267    0.0000 C   0  0  0  0  0  0  0  0  0  0  0  0
   -9.1198    6.4304    0.0000 N   0  0  0  0  0  0  0  0  0  0  0  0
   -8.8080    7.8977    0.0000 C   0  0  0  0  0  0  0  0  0  0  0  0
   -9.9227    8.9014    0.0000 C   0  0  0  0  0  0  0  0  0  0  0  0
   -9.6108   10.3686    0.0000 C   0  0  0  0  0  0  0  0  0  0  0  0
  -10.7255   11.3723    0.0000 C   0  0  0  0  0  0  0  0  0  0  0  0
  -12.1521   10.9088    0.0000 C   0  0  0  0  0  0  0  0  0  0  0  0
  -12.4640    9.4415    0.0000 C   0  0  0  0  0  0  0  0  0  0  0  0
  -11.3493    8.4378    0.0000 C   0  0  0  0  0  0  0  0  0  0  0  0
   -8.3170    3.9595    0.0000 C   0  0  0  0  0  0  0  0  0  0  0  0
   -9.7436    3.4960    0.0000 Cl  0  0  0  0  0  0  0  0  0  0  0  0
   -7.2023    2.9558    0.0000 C   0  0  0  0  0  0  0  0  0  0  0  0
   -5.7757    3.4194    0.0000 C   0  0  0  0  0  0  0  0  0  0  0  0
   -5.4638    1.9521    0.0000 N   0  0  0  0  0  0  0  0  0  0  0  0
   -4.5821    0.7386    0.0000 C   0  0  0  0  0  0  0  0  0  0  0  0
   -5.5858   -0.3761    0.0000 O   0  0  0  0  0  0  0  0  0  0  0  0
   -3.2831   -0.0114    0.0000 N   0  0  0  0  0  0  0  0  0  0  0  0
  1  2  3  0
  2  3  1  0
  3  4  2  0
  4  5  1  0
  5  6  2  0
  6  7  1  0
  7  8  2  0
  8  9  1  0
  9 10  1  0
 10 11  1  0
 11 12  1  0
 12 13  1  0
 13 14  1  0
 14 15  1  0
 15 16  1  0
 16 17  2  0
 17 18  1  0
 18 19  1  0
 19 20  1  0
 20 21  1  0
 21 22  2  0
 22 23  1  0
 23 24  2  0
 24 25  1  0
 25 26  2  0
 18 27  2  0
 27 28  1  0
 27 29  1  0
 29 30  2  0
 30 31  1  0
 31 32  1  0
 32 33  2  0
 32 34  1  0
  8  3  1  0
 30 16  1  0
 34  6  1  0
 26 21  1  0
M  END
>  <Affinity>  (45) 
266.0

>  <Affinity Type>  (45) 
IC50

>  <Affinity Unit>  (45) 
nM

>  <Scaffold>  (45) 
[#7&!R]#&!@[#6&!R]-&!@[#6&R]1:&@[#7&R]:&@[#6&R]:&@[#6&R]2:&@[#7&R]:&@[#6&R]:&@1-&@[#8&R]-&@[#6&R]-&@[#6&R]-&@[#6&R]-&@[#6&R]-&@[#6&R]-&@[#8&R]-&@[#6&R]1:&@[#6&R](-&@[#7&R]-&@[#6&R](-&@[#7&R]-&@2)=&!@[#8&!R]):&@[#6&R]:&@[#6&R](:&@[#6&R]:&@[#6&R]:&@1)-&!@[#17&!R]

$$$$
