Q92769_Sries56686_idx-in-all-actives-162
     RDKit          2D

 39 42  0  0  0  0  0  0  0  0999 V2000
   14.7990   -8.5442    0.0000 C   0  0  0  0  0  0  0  0  0  0  0  0
   13.2990   -8.5442    0.0000 C   0  0  0  0  0  0  0  0  0  0  0  0
   12.5490   -7.2452    0.0000 C   0  0  0  0  0  0  0  0  0  0  0  0
   13.2990   -5.9462    0.0000 O   0  0  0  0  0  0  0  0  0  0  0  0
   11.0490   -7.2452    0.0000 C   0  0  0  0  0  0  0  0  0  0  0  0
   10.2990   -5.9462    0.0000 C   0  0  0  0  0  0  0  0  0  0  0  0
    8.7990   -5.9462    0.0000 C   0  0  0  0  0  0  0  0  0  0  0  0
    8.0490   -4.6471    0.0000 C   0  0  0  0  0  0  0  0  0  0  0  0
    6.5490   -4.6471    0.0000 C   0  0  0  0  0  0  0  0  0  0  0  0
    5.7990   -3.3481    0.0000 C   0  0  0  0  0  0  0  0  0  0  0  0
    4.2990   -3.3481    0.0000 N   0  0  0  0  0  0  0  0  0  0  0  0
    3.5490   -2.0490    0.0000 C   0  0  0  0  0  0  0  0  0  0  0  0
    4.2990   -0.7500    0.0000 O   0  0  0  0  0  0  0  0  0  0  0  0
    2.0490   -2.0490    0.0000 C   0  0  0  0  0  0  0  0  0  0  0  0
    0.7500   -2.7990    0.0000 C   0  0  0  0  0  0  0  0  0  0  0  0
    0.7500   -1.2990    0.0000 C   0  0  0  0  0  0  0  0  0  0  0  0
    1.5000    0.0000    0.0000 C   0  0  0  0  0  0  0  0  0  0  0  0
    0.7500    1.2990    0.0000 C   0  0  0  0  0  0  0  0  0  0  0  0
   -0.7500    1.2990    0.0000 N   0  0  0  0  0  0  0  0  0  0  0  0
   -1.5000    2.5981    0.0000 C   0  0  0  0  0  0  0  0  0  0  0  0
   -1.5000    0.0000    0.0000 C   0  0  0  0  0  0  0  0  0  0  0  0
   -0.7500   -1.2990    0.0000 C   0  0  0  0  0  0  0  0  0  0  0  0
    6.5490   -2.0490    0.0000 C   0  0  0  0  0  0  0  0  0  0  0  0
    5.9389   -0.6787    0.0000 N   0  0  0  0  0  0  0  0  0  0  0  0
    7.0537    0.3250    0.0000 C   0  0  0  0  0  0  0  0  0  0  0  0
    6.8969    1.8168    0.0000 C   0  0  0  0  0  0  0  0  0  0  0  0
    8.1104    2.6984    0.0000 C   0  0  0  0  0  0  0  0  0  0  0  0
    7.9536    4.1902    0.0000 C   0  0  0  0  0  0  0  0  0  0  0  0
    6.5833    4.8003    0.0000 C   0  0  0  0  0  0  0  0  0  0  0  0
    6.4265    6.2921    0.0000 C   0  0  0  0  0  0  0  0  0  0  0  0
    6.2697    7.7839    0.0000 F   0  0  0  0  0  0  0  0  0  0  0  0
    7.9183    6.4489    0.0000 F   0  0  0  0  0  0  0  0  0  0  0  0
    4.9347    6.1353    0.0000 F   0  0  0  0  0  0  0  0  0  0  0  0
    5.3697    3.9186    0.0000 C   0  0  0  0  0  0  0  0  0  0  0  0
    5.5265    2.4269    0.0000 C   0  0  0  0  0  0  0  0  0  0  0  0
    8.3527   -0.4250    0.0000 N   0  0  0  0  0  0  0  0  0  0  0  0
    8.0408   -1.8922    0.0000 C   0  0  0  0  0  0  0  0  0  0  0  0
    9.0445   -3.0070    0.0000 C   0  0  0  0  0  0  0  0  0  0  0  0
   10.0482   -4.1217    0.0000 N   0  0  0  0  0  0  0  0  0  0  0  0
  1  2  1  0
  2  3  1  0
  3  4  2  0
  3  5  1  0
  5  6  1  0
  6  7  1  0
  7  8  1  0
  8  9  1  0
 10  9  1  6
 10 11  1  0
 11 12  1  0
 12 13  2  0
 14 12  1  1
 14 15  1  0
 15 16  1  0
 16 17  1  0
 17 18  1  0
 18 19  1  0
 19 20  1  0
 19 21  1  0
 21 22  1  0
 10 23  1  0
 23 24  1  0
 24 25  1  0
 25 26  1  0
 26 27  2  0
 27 28  1  0
 28 29  2  0
 29 30  1  0
 30 31  1  0
 30 32  1  0
 30 33  1  0
 29 34  1  0
 34 35  2  0
 25 36  2  0
 36 37  1  0
 37 38  1  0
 38 39  3  0
 16 14  1  0
 37 23  2  0
 22 16  1  0
 35 26  1  0
M  END
>  <Affinity>  (1) 
15.6

>  <Affinity Type>  (1) 
IC50

>  <Affinity Unit>  (1) 
nM

>  <Scaffold>  (1) 
[#6&!R]-&!@[#6&!R]-&!@[#6&!R](=&!@[#8&!R])-&!@[#6&!R]-&!@[#6&!R]-&!@[#6&!R]-&!@[#6&!R]-&!@[#6&!R]-&!@[#6&!R](-&!@[#7&!R]-&!@[#6&!R]=&!@[#8&!R])-&!@[#6&R]1:&@[#7&R]:&@[#6&R](:&@[#7&R]:&@[#6&R]:&@1-&!@[#6&!R])-&!@[#6&R]

$$$$
Q92769_Sries56686_idx-in-all-actives-175
     RDKit          2D

 33 35  0  0  0  0  0  0  0  0999 V2000
   -4.2606  -14.8714    0.0000 C   0  0  0  0  0  0  0  0  0  0  0  0
   -4.1038  -13.3796    0.0000 C   0  0  0  0  0  0  0  0  0  0  0  0
   -2.7335  -12.7695    0.0000 C   0  0  0  0  0  0  0  0  0  0  0  0
   -1.5200  -13.6512    0.0000 O   0  0  0  0  0  0  0  0  0  0  0  0
   -2.5767  -11.2778    0.0000 C   0  0  0  0  0  0  0  0  0  0  0  0
   -1.2064  -10.6676    0.0000 C   0  0  0  0  0  0  0  0  0  0  0  0
   -1.0496   -9.1759    0.0000 C   0  0  0  0  0  0  0  0  0  0  0  0
    0.3207   -8.5658    0.0000 C   0  0  0  0  0  0  0  0  0  0  0  0
    0.4775   -7.0740    0.0000 C   0  0  0  0  0  0  0  0  0  0  0  0
    1.8478   -6.4639    0.0000 C   0  0  0  0  0  0  0  0  0  0  0  0
    3.0613   -7.3456    0.0000 N   0  0  0  0  0  0  0  0  0  0  0  0
    2.9046   -8.8373    0.0000 C   0  0  0  0  0  0  0  0  0  0  0  0
    1.5342   -9.4474    0.0000 O   0  0  0  0  0  0  0  0  0  0  0  0
    4.1181   -9.7190    0.0000 C   0  0  0  0  0  0  0  0  0  0  0  0
    4.3527  -11.2005    0.0000 C   0  0  0  0  0  0  0  0  0  0  0  0
    5.8343  -10.9659    0.0000 N   0  0  0  0  0  0  0  0  0  0  0  0
    7.0478  -11.8476    0.0000 C   0  0  0  0  0  0  0  0  0  0  0  0
    5.5996   -9.4844    0.0000 C   0  0  0  0  0  0  0  0  0  0  0  0
    2.0046   -4.9721    0.0000 C   0  0  0  0  0  0  0  0  0  0  0  0
    0.8899   -3.9684    0.0000 N   0  0  0  0  0  0  0  0  0  0  0  0
    1.5000   -2.5981    0.0000 C   0  0  0  0  0  0  0  0  0  0  0  0
    0.7500   -1.2990    0.0000 C   0  0  0  0  0  0  0  0  0  0  0  0
    1.5000    0.0000    0.0000 C   0  0  0  0  0  0  0  0  0  0  0  0
    0.7500    1.2990    0.0000 C   0  0  0  0  0  0  0  0  0  0  0  0
   -0.7500    1.2990    0.0000 C   0  0  0  0  0  0  0  0  0  0  0  0
   -1.5000    2.5981    0.0000 F   0  0  0  0  0  0  0  0  0  0  0  0
   -1.5000    0.0000    0.0000 C   0  0  0  0  0  0  0  0  0  0  0  0
   -0.7500   -1.2990    0.0000 C   0  0  0  0  0  0  0  0  0  0  0  0
    2.9918   -2.7549    0.0000 N   0  0  0  0  0  0  0  0  0  0  0  0
    3.3037   -4.2221    0.0000 C   0  0  0  0  0  0  0  0  0  0  0  0
    4.6740   -4.8322    0.0000 C   0  0  0  0  0  0  0  0  0  0  0  0
    5.8875   -3.9505    0.0000 N   0  0  0  0  0  0  0  0  0  0  0  0
    4.8308   -6.3240    0.0000 O   0  0  0  0  0  0  0  0  0  0  0  0
  1  2  1  0
  2  3  1  0
  3  4  2  0
  3  5  1  0
  5  6  1  0
  6  7  1  0
  7  8  1  0
  8  9  1  0
 10  9  1  1
 10 11  1  0
 11 12  1  0
 12 13  2  0
 12 14  1  0
 14 15  1  0
 15 16  1  0
 16 17  1  0
 16 18  1  0
 10 19  1  0
 19 20  1  0
 20 21  1  0
 21 22  1  0
 22 23  2  0
 23 24  1  0
 24 25  2  0
 25 26  1  0
 25 27  1  0
 27 28  2  0
 21 29  2  0
 29 30  1  0
 30 31  1  0
 31 32  1  0
 31 33  2  0
 18 14  1  0
 30 19  2  0
 28 22  1  0
M  END
>  <Affinity>  (2) 
34.4

>  <Affinity Type>  (2) 
IC50

>  <Affinity Unit>  (2) 
nM

>  <Scaffold>  (2) 
[#6&!R]-&!@[#6&!R]-&!@[#6&!R](=&!@[#8&!R])-&!@[#6&!R]-&!@[#6&!R]-&!@[#6&!R]-&!@[#6&!R]-&!@[#6&!R]-&!@[#6&!R](-&!@[#7&!R]-&!@[#6&!R]=&!@[#8&!R])-&!@[#6&R]1:&@[#7&R]:&@[#6&R](:&@[#7&R]:&@[#6&R]:&@1-&!@[#6&!R])-&!@[#6&R]

$$$$
Q92769_Sries56686_idx-in-all-actives-169
     RDKit          2D

 31 32  0  0  0  0  0  0  0  0999 V2000
   10.7824  -13.2397    0.0000 C   0  0  0  0  0  0  0  0  0  0  0  0
    9.4121  -12.6296    0.0000 C   0  0  0  0  0  0  0  0  0  0  0  0
    9.2553  -11.1379    0.0000 C   0  0  0  0  0  0  0  0  0  0  0  0
   10.4688  -10.2562    0.0000 O   0  0  0  0  0  0  0  0  0  0  0  0
    7.8850  -10.5278    0.0000 C   0  0  0  0  0  0  0  0  0  0  0  0
    7.7282   -9.0360    0.0000 C   0  0  0  0  0  0  0  0  0  0  0  0
    6.3579   -8.4259    0.0000 C   0  0  0  0  0  0  0  0  0  0  0  0
    6.2011   -6.9341    0.0000 C   0  0  0  0  0  0  0  0  0  0  0  0
    4.8308   -6.3240    0.0000 C   0  0  0  0  0  0  0  0  0  0  0  0
    4.6740   -4.8322    0.0000 C   0  0  0  0  0  0  0  0  0  0  0  0
    5.8875   -3.9505    0.0000 N   0  0  0  0  0  0  0  0  0  0  0  0
    7.2578   -4.5606    0.0000 C   0  0  0  0  0  0  0  0  0  0  0  0
    7.4146   -6.0524    0.0000 O   0  0  0  0  0  0  0  0  0  0  0  0
    8.4713   -3.6789    0.0000 C   0  0  0  0  0  0  0  0  0  0  0  0
    9.8417   -4.2890    0.0000 N   0  0  0  0  0  0  0  0  0  0  0  0
   11.0552   -3.4074    0.0000 C   0  0  0  0  0  0  0  0  0  0  0  0
    9.9984   -5.7808    0.0000 C   0  0  0  0  0  0  0  0  0  0  0  0
    3.3037   -4.2221    0.0000 C   0  0  0  0  0  0  0  0  0  0  0  0
    2.9918   -2.7549    0.0000 N   0  0  0  0  0  0  0  0  0  0  0  0
    1.5000   -2.5981    0.0000 C   0  0  0  0  0  0  0  0  0  0  0  0
    0.7500   -1.2990    0.0000 C   0  0  0  0  0  0  0  0  0  0  0  0
    1.5000    0.0000    0.0000 C   0  0  0  0  0  0  0  0  0  0  0  0
    0.7500    1.2990    0.0000 C   0  0  0  0  0  0  0  0  0  0  0  0
   -0.7500    1.2990    0.0000 C   0  0  0  0  0  0  0  0  0  0  0  0
   -1.5000    2.5981    0.0000 F   0  0  0  0  0  0  0  0  0  0  0  0
   -1.5000    0.0000    0.0000 C   0  0  0  0  0  0  0  0  0  0  0  0
   -0.7500   -1.2990    0.0000 C   0  0  0  0  0  0  0  0  0  0  0  0
    0.8899   -3.9684    0.0000 N   0  0  0  0  0  0  0  0  0  0  0  0
    2.0046   -4.9721    0.0000 C   0  0  0  0  0  0  0  0  0  0  0  0
    1.8478   -6.4639    0.0000 C   0  0  0  0  0  0  0  0  0  0  0  0
    1.6910   -7.9557    0.0000 N   0  0  0  0  0  0  0  0  0  0  0  0
  1  2  1  0
  2  3  1  0
  3  4  2  0
  3  5  1  0
  5  6  1  0
  6  7  1  0
  7  8  1  0
  8  9  1  0
 10  9  1  1
 10 11  1  0
 11 12  1  0
 12 13  2  0
 12 14  1  0
 14 15  1  0
 15 16  1  0
 15 17  1  0
 10 18  1  0
 18 19  1  0
 19 20  1  0
 20 21  1  0
 21 22  2  0
 22 23  1  0
 23 24  2  0
 24 25  1  0
 24 26  1  0
 26 27  2  0
 20 28  2  0
 28 29  1  0
 29 30  1  0
 30 31  3  0
 29 18  2  0
 27 21  1  0
M  END
>  <Affinity>  (3) 
219.0

>  <Affinity Type>  (3) 
IC50

>  <Affinity Unit>  (3) 
nM

>  <Scaffold>  (3) 
[#6&!R]-&!@[#6&!R]-&!@[#6&!R](=&!@[#8&!R])-&!@[#6&!R]-&!@[#6&!R]-&!@[#6&!R]-&!@[#6&!R]-&!@[#6&!R]-&!@[#6&!R](-&!@[#7&!R]-&!@[#6&!R]=&!@[#8&!R])-&!@[#6&R]1:&@[#7&R]:&@[#6&R](:&@[#7&R]:&@[#6&R]:&@1-&!@[#6&!R])-&!@[#6&R]

$$$$
Q92769_Sries56686_idx-in-all-actives-163
     RDKit          2D

 36 39  0  0  0  0  0  0  0  0999 V2000
   14.7990   -8.5442    0.0000 C   0  0  0  0  0  0  0  0  0  0  0  0
   13.2990   -8.5442    0.0000 C   0  0  0  0  0  0  0  0  0  0  0  0
   12.5490   -7.2452    0.0000 C   0  0  0  0  0  0  0  0  0  0  0  0
   13.2990   -5.9462    0.0000 O   0  0  0  0  0  0  0  0  0  0  0  0
   11.0490   -7.2452    0.0000 C   0  0  0  0  0  0  0  0  0  0  0  0
   10.2990   -5.9462    0.0000 C   0  0  0  0  0  0  0  0  0  0  0  0
    8.7990   -5.9462    0.0000 C   0  0  0  0  0  0  0  0  0  0  0  0
    8.0490   -4.6471    0.0000 C   0  0  0  0  0  0  0  0  0  0  0  0
    6.5490   -4.6471    0.0000 C   0  0  0  0  0  0  0  0  0  0  0  0
    5.7990   -3.3481    0.0000 C   0  0  0  0  0  0  0  0  0  0  0  0
    4.2990   -3.3481    0.0000 N   0  0  0  0  0  0  0  0  0  0  0  0
    3.5490   -2.0490    0.0000 C   0  0  0  0  0  0  0  0  0  0  0  0
    4.2990   -0.7500    0.0000 O   0  0  0  0  0  0  0  0  0  0  0  0
    2.0490   -2.0490    0.0000 C   0  0  0  0  0  0  0  0  0  0  0  0
    0.7500   -2.7990    0.0000 C   0  0  0  0  0  0  0  0  0  0  0  0
    0.7500   -1.2990    0.0000 C   0  0  0  0  0  0  0  0  0  0  0  0
    1.5000    0.0000    0.0000 C   0  0  0  0  0  0  0  0  0  0  0  0
    0.7500    1.2990    0.0000 C   0  0  0  0  0  0  0  0  0  0  0  0
   -0.7500    1.2990    0.0000 N   0  0  0  0  0  0  0  0  0  0  0  0
   -1.5000    2.5981    0.0000 C   0  0  0  0  0  0  0  0  0  0  0  0
   -1.5000    0.0000    0.0000 C   0  0  0  0  0  0  0  0  0  0  0  0
   -0.7500   -1.2990    0.0000 C   0  0  0  0  0  0  0  0  0  0  0  0
    6.5490   -2.0490    0.0000 C   0  0  0  0  0  0  0  0  0  0  0  0
    5.9389   -0.6787    0.0000 N   0  0  0  0  0  0  0  0  0  0  0  0
    7.0537    0.3250    0.0000 C   0  0  0  0  0  0  0  0  0  0  0  0
    6.8969    1.8168    0.0000 C   0  0  0  0  0  0  0  0  0  0  0  0
    8.1104    2.6984    0.0000 C   0  0  0  0  0  0  0  0  0  0  0  0
    7.9536    4.1902    0.0000 C   0  0  0  0  0  0  0  0  0  0  0  0
    6.5833    4.8003    0.0000 C   0  0  0  0  0  0  0  0  0  0  0  0
    5.3697    3.9186    0.0000 C   0  0  0  0  0  0  0  0  0  0  0  0
    5.5265    2.4269    0.0000 C   0  0  0  0  0  0  0  0  0  0  0  0
    4.3130    1.5452    0.0000 F   0  0  0  0  0  0  0  0  0  0  0  0
    8.3527   -0.4250    0.0000 N   0  0  0  0  0  0  0  0  0  0  0  0
    8.0408   -1.8922    0.0000 C   0  0  0  0  0  0  0  0  0  0  0  0
    9.0445   -3.0070    0.0000 C   0  0  0  0  0  0  0  0  0  0  0  0
   10.0482   -4.1217    0.0000 N   0  0  0  0  0  0  0  0  0  0  0  0
  1  2  1  0
  2  3  1  0
  3  4  2  0
  3  5  1  0
  5  6  1  0
  6  7  1  0
  7  8  1  0
  8  9  1  0
 10  9  1  6
 10 11  1  0
 11 12  1  0
 12 13  2  0
 14 12  1  1
 14 15  1  0
 15 16  1  0
 16 17  1  0
 17 18  1  0
 18 19  1  0
 19 20  1  0
 19 21  1  0
 21 22  1  0
 10 23  1  0
 23 24  1  0
 24 25  1  0
 25 26  1  0
 26 27  2  0
 27 28  1  0
 28 29  2  0
 29 30  1  0
 30 31  2  0
 31 32  1  0
 25 33  2  0
 33 34  1  0
 34 35  1  0
 35 36  3  0
 16 14  1  0
 34 23  2  0
 22 16  1  0
 31 26  1  0
M  END
>  <Affinity>  (4) 
96.0

>  <Affinity Type>  (4) 
IC50

>  <Affinity Unit>  (4) 
nM

>  <Scaffold>  (4) 
[#6&!R]-&!@[#6&!R]-&!@[#6&!R](=&!@[#8&!R])-&!@[#6&!R]-&!@[#6&!R]-&!@[#6&!R]-&!@[#6&!R]-&!@[#6&!R]-&!@[#6&!R](-&!@[#7&!R]-&!@[#6&!R]=&!@[#8&!R])-&!@[#6&R]1:&@[#7&R]:&@[#6&R](:&@[#7&R]:&@[#6&R]:&@1-&!@[#6&!R])-&!@[#6&R]

$$$$
Q92769_Sries56686_idx-in-all-actives-176
     RDKit          2D

 32 34  0  0  0  0  0  0  0  0999 V2000
   -4.2606  -14.8714    0.0000 C   0  0  0  0  0  0  0  0  0  0  0  0
   -4.1038  -13.3796    0.0000 C   0  0  0  0  0  0  0  0  0  0  0  0
   -2.7335  -12.7695    0.0000 C   0  0  0  0  0  0  0  0  0  0  0  0
   -1.5200  -13.6512    0.0000 O   0  0  0  0  0  0  0  0  0  0  0  0
   -2.5767  -11.2778    0.0000 C   0  0  0  0  0  0  0  0  0  0  0  0
   -1.2064  -10.6676    0.0000 C   0  0  0  0  0  0  0  0  0  0  0  0
   -1.0496   -9.1759    0.0000 C   0  0  0  0  0  0  0  0  0  0  0  0
    0.3207   -8.5658    0.0000 C   0  0  0  0  0  0  0  0  0  0  0  0
    0.4775   -7.0740    0.0000 C   0  0  0  0  0  0  0  0  0  0  0  0
    1.8478   -6.4639    0.0000 C   0  0  0  0  0  0  0  0  0  0  0  0
    3.0613   -7.3456    0.0000 N   0  0  0  0  0  0  0  0  0  0  0  0
    2.9046   -8.8373    0.0000 C   0  0  0  0  0  0  0  0  0  0  0  0
    1.5342   -9.4474    0.0000 O   0  0  0  0  0  0  0  0  0  0  0  0
    4.1181   -9.7190    0.0000 C   0  0  0  0  0  0  0  0  0  0  0  0
    4.3527  -11.2005    0.0000 C   0  0  0  0  0  0  0  0  0  0  0  0
    5.8343  -10.9659    0.0000 N   0  0  0  0  0  0  0  0  0  0  0  0
    7.0478  -11.8476    0.0000 C   0  0  0  0  0  0  0  0  0  0  0  0
    5.5996   -9.4844    0.0000 C   0  0  0  0  0  0  0  0  0  0  0  0
    2.0046   -4.9721    0.0000 C   0  0  0  0  0  0  0  0  0  0  0  0
    0.8899   -3.9684    0.0000 N   0  0  0  0  0  0  0  0  0  0  0  0
    1.5000   -2.5981    0.0000 C   0  0  0  0  0  0  0  0  0  0  0  0
    0.7500   -1.2990    0.0000 C   0  0  0  0  0  0  0  0  0  0  0  0
    1.5000    0.0000    0.0000 C   0  0  0  0  0  0  0  0  0  0  0  0
    0.7500    1.2990    0.0000 C   0  0  0  0  0  0  0  0  0  0  0  0
   -0.7500    1.2990    0.0000 C   0  0  0  0  0  0  0  0  0  0  0  0
   -1.5000    0.0000    0.0000 C   0  0  0  0  0  0  0  0  0  0  0  0
   -0.7500   -1.2990    0.0000 C   0  0  0  0  0  0  0  0  0  0  0  0
    2.9918   -2.7549    0.0000 N   0  0  0  0  0  0  0  0  0  0  0  0
    3.3037   -4.2221    0.0000 C   0  0  0  0  0  0  0  0  0  0  0  0
    4.6740   -4.8322    0.0000 C   0  0  0  0  0  0  0  0  0  0  0  0
    5.8875   -3.9505    0.0000 N   0  0  0  0  0  0  0  0  0  0  0  0
    4.8308   -6.3240    0.0000 O   0  0  0  0  0  0  0  0  0  0  0  0
  1  2  1  0
  2  3  1  0
  3  4  2  0
  3  5  1  0
  5  6  1  0
  6  7  1  0
  7  8  1  0
  8  9  1  0
 10  9  1  1
 10 11  1  0
 11 12  1  0
 12 13  2  0
 12 14  1  0
 14 15  1  0
 15 16  1  0
 16 17  1  0
 16 18  1  0
 10 19  1  0
 19 20  1  0
 20 21  1  0
 21 22  1  0
 22 23  2  0
 23 24  1  0
 24 25  2  0
 25 26  1  0
 26 27  2  0
 21 28  2  0
 28 29  1  0
 29 30  1  0
 30 31  1  0
 30 32  2  0
 18 14  1  0
 29 19  2  0
 27 22  1  0
M  END
>  <Affinity>  (5) 
18.1

>  <Affinity Type>  (5) 
IC50

>  <Affinity Unit>  (5) 
nM

>  <Scaffold>  (5) 
[#6&!R]-&!@[#6&!R]-&!@[#6&!R](=&!@[#8&!R])-&!@[#6&!R]-&!@[#6&!R]-&!@[#6&!R]-&!@[#6&!R]-&!@[#6&!R]-&!@[#6&!R](-&!@[#7&!R]-&!@[#6&!R]=&!@[#8&!R])-&!@[#6&R]1:&@[#7&R]:&@[#6&R](:&@[#7&R]:&@[#6&R]:&@1-&!@[#6&!R])-&!@[#6&R]

$$$$
Q92769_Sries56686_idx-in-all-actives-159
     RDKit          2D

 40 44  0  0  0  0  0  0  0  0999 V2000
   -4.2606  -14.8714    0.0000 C   0  0  0  0  0  0  0  0  0  0  0  0
   -4.1038  -13.3796    0.0000 C   0  0  0  0  0  0  0  0  0  0  0  0
   -2.7335  -12.7695    0.0000 C   0  0  0  0  0  0  0  0  0  0  0  0
   -1.5200  -13.6512    0.0000 O   0  0  0  0  0  0  0  0  0  0  0  0
   -2.5767  -11.2778    0.0000 C   0  0  0  0  0  0  0  0  0  0  0  0
   -1.2064  -10.6676    0.0000 C   0  0  0  0  0  0  0  0  0  0  0  0
   -1.0496   -9.1759    0.0000 C   0  0  0  0  0  0  0  0  0  0  0  0
    0.3207   -8.5658    0.0000 C   0  0  0  0  0  0  0  0  0  0  0  0
    0.4775   -7.0740    0.0000 C   0  0  0  0  0  0  0  0  0  0  0  0
    1.8478   -6.4639    0.0000 C   0  0  0  0  0  0  0  0  0  0  0  0
    3.0613   -7.3456    0.0000 N   0  0  0  0  0  0  0  0  0  0  0  0
    2.9046   -8.8373    0.0000 C   0  0  0  0  0  0  0  0  0  0  0  0
    1.5342   -9.4474    0.0000 O   0  0  0  0  0  0  0  0  0  0  0  0
    4.1181   -9.7190    0.0000 C   0  0  0  0  0  0  0  0  0  0  0  0
    5.6099   -9.8758    0.0000 C   0  0  0  0  0  0  0  0  0  0  0  0
    4.7282  -11.0893    0.0000 C   0  0  0  0  0  0  0  0  0  0  0  0
    3.3579  -11.6994    0.0000 C   0  0  0  0  0  0  0  0  0  0  0  0
    3.2011  -13.1912    0.0000 C   0  0  0  0  0  0  0  0  0  0  0  0
    4.4146  -14.0729    0.0000 N   0  0  0  0  0  0  0  0  0  0  0  0
    4.2578  -15.5647    0.0000 C   0  0  0  0  0  0  0  0  0  0  0  0
    5.7849  -13.4628    0.0000 C   0  0  0  0  0  0  0  0  0  0  0  0
    5.9417  -11.9710    0.0000 C   0  0  0  0  0  0  0  0  0  0  0  0
    2.0046   -4.9721    0.0000 C   0  0  0  0  0  0  0  0  0  0  0  0
    0.8899   -3.9684    0.0000 N   0  0  0  0  0  0  0  0  0  0  0  0
    1.5000   -2.5981    0.0000 C   0  0  0  0  0  0  0  0  0  0  0  0
    0.7500   -1.2990    0.0000 C   0  0  0  0  0  0  0  0  0  0  0  0
    1.5000    0.0000    0.0000 C   0  0  0  0  0  0  0  0  0  0  0  0
    0.7500    1.2990    0.0000 C   0  0  0  0  0  0  0  0  0  0  0  0
   -0.7500    1.2990    0.0000 C   0  0  0  0  0  0  0  0  0  0  0  0
   -1.5000    2.5981    0.0000 N   0  0  0  0  0  0  0  0  0  0  0  0
   -3.0000    2.5981    0.0000 C   0  0  0  0  0  0  0  0  0  0  0  0
   -3.7500    3.8971    0.0000 C   0  0  0  0  0  0  0  0  0  0  0  0
   -3.7500    1.2990    0.0000 C   0  0  0  0  0  0  0  0  0  0  0  0
   -3.0000    0.0000    0.0000 C   0  0  0  0  0  0  0  0  0  0  0  0
   -1.5000    0.0000    0.0000 C   0  0  0  0  0  0  0  0  0  0  0  0
   -0.7500   -1.2990    0.0000 C   0  0  0  0  0  0  0  0  0  0  0  0
    2.9918   -2.7549    0.0000 N   0  0  0  0  0  0  0  0  0  0  0  0
    3.3037   -4.2221    0.0000 C   0  0  0  0  0  0  0  0  0  0  0  0
    4.6740   -4.8322    0.0000 C   0  0  0  0  0  0  0  0  0  0  0  0
    6.0443   -5.4423    0.0000 N   0  0  0  0  0  0  0  0  0  0  0  0
  1  2  1  0
  2  3  1  0
  3  4  2  0
  3  5  1  0
  5  6  1  0
  6  7  1  0
  7  8  1  0
  8  9  1  0
 10  9  1  1
 10 11  1  0
 11 12  1  0
 12 13  2  0
 14 12  1  1
 14 15  1  0
 15 16  1  0
 16 17  1  0
 17 18  1  0
 18 19  1  0
 19 20  1  0
 19 21  1  0
 21 22  1  0
 10 23  1  0
 23 24  1  0
 24 25  1  0
 25 26  1  0
 26 27  2  0
 27 28  1  0
 28 29  2  0
 29 30  1  0
 30 31  2  0
 31 32  1  0
 31 33  1  0
 33 34  2  0
 34 35  1  0
 35 36  2  0
 25 37  2  0
 37 38  1  0
 38 39  1  0
 39 40  3  0
 16 14  1  0
 38 23  2  0
 22 16  1  0
 36 26  1  0
 35 29  1  0
M  END
>  <Affinity>  (6) 
1.5

>  <Affinity Type>  (6) 
IC50

>  <Affinity Unit>  (6) 
nM

>  <Scaffold>  (6) 
[#6&!R]-&!@[#6&!R]-&!@[#6&!R](=&!@[#8&!R])-&!@[#6&!R]-&!@[#6&!R]-&!@[#6&!R]-&!@[#6&!R]-&!@[#6&!R]-&!@[#6&!R](-&!@[#7&!R]-&!@[#6&!R]=&!@[#8&!R])-&!@[#6&R]1:&@[#7&R]:&@[#6&R](:&@[#7&R]:&@[#6&R]:&@1-&!@[#6&!R])-&!@[#6&R]

$$$$
Q92769_Sries56686_idx-in-all-actives-170
     RDKit          2D

 35 38  0  0  0  0  0  0  0  0999 V2000
   12.7500   -9.0933    0.0000 C   0  0  0  0  0  0  0  0  0  0  0  0
   12.0000   -7.7942    0.0000 C   0  0  0  0  0  0  0  0  0  0  0  0
   10.5000   -7.7942    0.0000 C   0  0  0  0  0  0  0  0  0  0  0  0
    9.7500   -9.0933    0.0000 O   0  0  0  0  0  0  0  0  0  0  0  0
    9.7500   -6.4952    0.0000 C   0  0  0  0  0  0  0  0  0  0  0  0
    8.2500   -6.4952    0.0000 C   0  0  0  0  0  0  0  0  0  0  0  0
    7.5000   -5.1962    0.0000 C   0  0  0  0  0  0  0  0  0  0  0  0
    6.0000   -5.1962    0.0000 C   0  0  0  0  0  0  0  0  0  0  0  0
    5.2500   -3.8971    0.0000 C   0  0  0  0  0  0  0  0  0  0  0  0
    3.7500   -3.8971    0.0000 C   0  0  0  0  0  0  0  0  0  0  0  0
    3.0000   -2.5981    0.0000 N   0  0  0  0  0  0  0  0  0  0  0  0
    1.5000   -2.5981    0.0000 C   0  0  0  0  0  0  0  0  0  0  0  0
    0.7403   -3.3846    0.0000 O   0  0  0  0  0  0  0  0  0  0  0  0
    0.7500   -1.2990    0.0000 C   0  0  0  0  0  0  0  0  0  0  0  0
    1.5000    0.0000    0.0000 C   0  0  0  0  0  0  0  0  0  0  0  0
    0.7500    1.2990    0.0000 C   0  0  0  0  0  0  0  0  0  0  0  0
   -0.7500    1.2990    0.0000 N   0  0  0  0  0  0  0  0  0  0  0  0
   -1.5000    0.0000    0.0000 C   0  0  0  0  0  0  0  0  0  0  0  0
   -0.7500   -1.2990    0.0000 C   0  0  0  0  0  0  0  0  0  0  0  0
   -0.3828    0.5621    0.0000 C   0  0  0  0  0  0  0  0  0  0  0  0
    0.2954   -0.6125    0.0000 C   0  0  0  0  0  0  0  0  0  0  0  0
    3.0000   -5.1962    0.0000 C   0  0  0  0  0  0  0  0  0  0  0  0
    3.6101   -6.5665    0.0000 N   0  0  0  0  0  0  0  0  0  0  0  0
    2.4954   -7.5702    0.0000 C   0  0  0  0  0  0  0  0  0  0  0  0
    2.6522   -9.0619    0.0000 C   0  0  0  0  0  0  0  0  0  0  0  0
    1.4387   -9.9436    0.0000 C   0  0  0  0  0  0  0  0  0  0  0  0
    1.5954  -11.4354    0.0000 C   0  0  0  0  0  0  0  0  0  0  0  0
    2.9658  -12.0455    0.0000 C   0  0  0  0  0  0  0  0  0  0  0  0
    3.1226  -13.5373    0.0000 F   0  0  0  0  0  0  0  0  0  0  0  0
    4.1793  -11.1638    0.0000 C   0  0  0  0  0  0  0  0  0  0  0  0
    4.0225   -9.6721    0.0000 C   0  0  0  0  0  0  0  0  0  0  0  0
    1.1963   -6.8202    0.0000 N   0  0  0  0  0  0  0  0  0  0  0  0
    1.5082   -5.3529    0.0000 C   0  0  0  0  0  0  0  0  0  0  0  0
    0.5045   -4.2382    0.0000 C   0  0  0  0  0  0  0  0  0  0  0  0
   -0.4992   -3.1235    0.0000 N   0  0  0  0  0  0  0  0  0  0  0  0
  1  2  1  0
  2  3  1  0
  3  4  2  0
  3  5  1  0
  5  6  1  0
  6  7  1  0
  7  8  1  0
  8  9  1  0
 10  9  1  1
 10 11  1  0
 11 12  1  0
 12 13  2  0
 12 14  1  0
 14 15  1  0
 15 16  1  0
 16 17  1  0
 17 18  1  0
 18 19  1  0
 17 20  1  0
 20 21  1  0
 10 22  1  0
 22 23  1  0
 23 24  1  0
 24 25  1  0
 25 26  2  0
 26 27  1  0
 27 28  2  0
 28 29  1  0
 28 30  1  0
 30 31  2  0
 24 32  2  0
 32 33  1  0
 33 34  1  0
 34 35  3  0
 19 14  1  0
 33 22  2  0
 21 14  1  0
 31 25  1  0
M  END
>  <Affinity>  (7) 
26.9

>  <Affinity Type>  (7) 
IC50

>  <Affinity Unit>  (7) 
nM

>  <Scaffold>  (7) 
[#6&!R]-&!@[#6&!R]-&!@[#6&!R](=&!@[#8&!R])-&!@[#6&!R]-&!@[#6&!R]-&!@[#6&!R]-&!@[#6&!R]-&!@[#6&!R]-&!@[#6&!R](-&!@[#7&!R]-&!@[#6&!R]=&!@[#8&!R])-&!@[#6&R]1:&@[#7&R]:&@[#6&R](:&@[#7&R]:&@[#6&R]:&@1-&!@[#6&!R])-&!@[#6&R]

$$$$
Q92769_Sries56686_idx-in-all-actives-164
     RDKit          2D

 41 45  0  0  0  0  0  0  0  0999 V2000
   -4.2606  -17.4695    0.0000 C   0  0  0  0  0  0  0  0  0  0  0  0
   -4.1038  -15.9777    0.0000 C   0  0  0  0  0  0  0  0  0  0  0  0
   -2.7335  -15.3676    0.0000 C   0  0  0  0  0  0  0  0  0  0  0  0
   -1.5200  -16.2493    0.0000 O   0  0  0  0  0  0  0  0  0  0  0  0
   -2.5767  -13.8758    0.0000 C   0  0  0  0  0  0  0  0  0  0  0  0
   -1.2064  -13.2657    0.0000 C   0  0  0  0  0  0  0  0  0  0  0  0
   -1.0496  -11.7739    0.0000 C   0  0  0  0  0  0  0  0  0  0  0  0
    0.3207  -11.1638    0.0000 C   0  0  0  0  0  0  0  0  0  0  0  0
    0.4775   -9.6721    0.0000 C   0  0  0  0  0  0  0  0  0  0  0  0
    1.8478   -9.0619    0.0000 C   0  0  0  0  0  0  0  0  0  0  0  0
    3.0613   -9.9436    0.0000 N   0  0  0  0  0  0  0  0  0  0  0  0
    2.9046  -11.4354    0.0000 C   0  0  0  0  0  0  0  0  0  0  0  0
    1.5342  -12.0455    0.0000 O   0  0  0  0  0  0  0  0  0  0  0  0
    4.1181  -12.3171    0.0000 C   0  0  0  0  0  0  0  0  0  0  0  0
    5.6099  -12.4739    0.0000 C   0  0  0  0  0  0  0  0  0  0  0  0
    4.7282  -13.6874    0.0000 C   0  0  0  0  0  0  0  0  0  0  0  0
    3.3579  -14.2975    0.0000 C   0  0  0  0  0  0  0  0  0  0  0  0
    3.2011  -15.7893    0.0000 C   0  0  0  0  0  0  0  0  0  0  0  0
    4.4146  -16.6710    0.0000 N   0  0  0  0  0  0  0  0  0  0  0  0
    4.2578  -18.1628    0.0000 C   0  0  0  0  0  0  0  0  0  0  0  0
    5.7849  -16.0609    0.0000 C   0  0  0  0  0  0  0  0  0  0  0  0
    5.9417  -14.5691    0.0000 C   0  0  0  0  0  0  0  0  0  0  0  0
    2.0046   -7.5702    0.0000 C   0  0  0  0  0  0  0  0  0  0  0  0
    0.8899   -6.5665    0.0000 N   0  0  0  0  0  0  0  0  0  0  0  0
    1.5000   -5.1962    0.0000 C   0  0  0  0  0  0  0  0  0  0  0  0
    0.7500   -3.8971    0.0000 C   0  0  0  0  0  0  0  0  0  0  0  0
    1.5000   -2.5981    0.0000 C   0  0  0  0  0  0  0  0  0  0  0  0
    0.7500   -1.2990    0.0000 C   0  0  0  0  0  0  0  0  0  0  0  0
    1.5000    0.0000    0.0000 C   0  0  0  0  0  0  0  0  0  0  0  0
    0.7500    1.2990    0.0000 C   0  0  0  0  0  0  0  0  0  0  0  0
   -0.7500    1.2990    0.0000 C   0  0  0  0  0  0  0  0  0  0  0  0
   -1.5000    0.0000    0.0000 C   0  0  0  0  0  0  0  0  0  0  0  0
   -0.7500   -1.2990    0.0000 C   0  0  0  0  0  0  0  0  0  0  0  0
   -1.5000   -2.5981    0.0000 N   0  0  0  0  0  0  0  0  0  0  0  0
   -0.7500   -3.8971    0.0000 C   0  0  0  0  0  0  0  0  0  0  0  0
   -1.5000   -5.1962    0.0000 O   0  0  0  0  0  0  0  0  0  0  0  0
   -3.0000   -5.1962    0.0000 C   0  0  0  0  0  0  0  0  0  0  0  0
    2.9918   -5.3529    0.0000 N   0  0  0  0  0  0  0  0  0  0  0  0
    3.3037   -6.8202    0.0000 C   0  0  0  0  0  0  0  0  0  0  0  0
    4.6740   -7.4303    0.0000 C   0  0  0  0  0  0  0  0  0  0  0  0
    6.0443   -8.0404    0.0000 N   0  0  0  0  0  0  0  0  0  0  0  0
  1  2  1  0
  2  3  1  0
  3  4  2  0
  3  5  1  0
  5  6  1  0
  6  7  1  0
  7  8  1  0
  8  9  1  0
 10  9  1  1
 10 11  1  0
 11 12  1  0
 12 13  2  0
 14 12  1  1
 14 15  1  0
 15 16  1  0
 16 17  1  0
 17 18  1  0
 18 19  1  0
 19 20  1  0
 19 21  1  0
 21 22  1  0
 10 23  1  0
 23 24  1  0
 24 25  1  0
 25 26  1  0
 26 27  2  0
 27 28  1  0
 28 29  2  0
 29 30  1  0
 30 31  2  0
 31 32  1  0
 32 33  2  0
 33 34  1  0
 34 35  2  0
 35 36  1  0
 36 37  1  0
 25 38  2  0
 38 39  1  0
 39 40  1  0
 40 41  3  0
 16 14  1  0
 39 23  2  0
 22 16  1  0
 35 26  1  0
 33 28  1  0
M  END
>  <Affinity>  (8) 
177.0

>  <Affinity Type>  (8) 
IC50

>  <Affinity Unit>  (8) 
nM

>  <Scaffold>  (8) 
[#6&!R]-&!@[#6&!R]-&!@[#6&!R](=&!@[#8&!R])-&!@[#6&!R]-&!@[#6&!R]-&!@[#6&!R]-&!@[#6&!R]-&!@[#6&!R]-&!@[#6&!R](-&!@[#7&!R]-&!@[#6&!R]=&!@[#8&!R])-&!@[#6&R]1:&@[#7&R]:&@[#6&R](:&@[#7&R]:&@[#6&R]:&@1-&!@[#6&!R])-&!@[#6&R]

$$$$
Q92769_Sries56686_idx-in-all-actives-177
     RDKit          2D

 37 40  0  0  0  0  0  0  0  0999 V2000
   -4.2606  -14.8714    0.0000 C   0  0  0  0  0  0  0  0  0  0  0  0
   -4.1038  -13.3796    0.0000 C   0  0  0  0  0  0  0  0  0  0  0  0
   -2.7335  -12.7695    0.0000 C   0  0  0  0  0  0  0  0  0  0  0  0
   -1.5200  -13.6512    0.0000 O   0  0  0  0  0  0  0  0  0  0  0  0
   -2.5767  -11.2778    0.0000 C   0  0  0  0  0  0  0  0  0  0  0  0
   -1.2064  -10.6676    0.0000 C   0  0  0  0  0  0  0  0  0  0  0  0
   -1.0496   -9.1759    0.0000 C   0  0  0  0  0  0  0  0  0  0  0  0
    0.3207   -8.5658    0.0000 C   0  0  0  0  0  0  0  0  0  0  0  0
    0.4775   -7.0740    0.0000 C   0  0  0  0  0  0  0  0  0  0  0  0
    1.8478   -6.4639    0.0000 C   0  0  0  0  0  0  0  0  0  0  0  0
    3.0613   -7.3456    0.0000 N   0  0  0  0  0  0  0  0  0  0  0  0
    2.9046   -8.8373    0.0000 C   0  0  0  0  0  0  0  0  0  0  0  0
    1.5342   -9.4474    0.0000 O   0  0  0  0  0  0  0  0  0  0  0  0
    4.1181   -9.7190    0.0000 C   0  0  0  0  0  0  0  0  0  0  0  0
    5.5447   -9.2555    0.0000 C   0  0  0  0  0  0  0  0  0  0  0  0
    6.4263  -10.4690    0.0000 N   0  0  0  0  0  0  0  0  0  0  0  0
    5.5447  -11.6825    0.0000 C   0  0  0  0  0  0  0  0  0  0  0  0
    4.1181  -11.2190    0.0000 S   0  0  0  0  0  0  0  0  0  0  0  0
    2.0046   -4.9721    0.0000 C   0  0  0  0  0  0  0  0  0  0  0  0
    0.8899   -3.9684    0.0000 N   0  0  0  0  0  0  0  0  0  0  0  0
    1.5000   -2.5981    0.0000 C   0  0  0  0  0  0  0  0  0  0  0  0
    0.7500   -1.2990    0.0000 C   0  0  0  0  0  0  0  0  0  0  0  0
    1.5000    0.0000    0.0000 C   0  0  0  0  0  0  0  0  0  0  0  0
    0.7500    1.2990    0.0000 C   0  0  0  0  0  0  0  0  0  0  0  0
   -0.7500    1.2990    0.0000 C   0  0  0  0  0  0  0  0  0  0  0  0
   -1.5000    0.0000    0.0000 C   0  0  0  0  0  0  0  0  0  0  0  0
   -0.7500   -1.2990    0.0000 C   0  0  0  0  0  0  0  0  0  0  0  0
    2.9918   -2.7549    0.0000 N   0  0  0  0  0  0  0  0  0  0  0  0
    3.3037   -4.2221    0.0000 C   0  0  0  0  0  0  0  0  0  0  0  0
    4.6740   -4.8322    0.0000 C   0  0  0  0  0  0  0  0  0  0  0  0
    4.8308   -6.3240    0.0000 O   0  0  0  0  0  0  0  0  0  0  0  0
    5.8875   -3.9505    0.0000 N   0  0  0  0  0  0  0  0  0  0  0  0
    7.2578   -4.5606    0.0000 C   0  0  0  0  0  0  0  0  0  0  0  0
    8.4713   -3.6789    0.0000 C   0  0  0  0  0  0  0  0  0  0  0  0
    8.3145   -2.1872    0.0000 O   0  0  0  0  0  0  0  0  0  0  0  0
    6.9442   -1.5771    0.0000 C   0  0  0  0  0  0  0  0  0  0  0  0
    5.7307   -2.4587    0.0000 C   0  0  0  0  0  0  0  0  0  0  0  0
  1  2  1  0
  2  3  1  0
  3  4  2  0
  3  5  1  0
  5  6  1  0
  6  7  1  0
  7  8  1  0
  8  9  1  0
  9 10  1  0
 10 11  1  0
 11 12  1  0
 12 13  2  0
 12 14  1  0
 14 15  2  0
 15 16  1  0
 16 17  2  0
 17 18  1  0
 10 19  1  0
 19 20  1  0
 20 21  1  0
 21 22  1  0
 22 23  2  0
 23 24  1  0
 24 25  2  0
 25 26  1  0
 26 27  2  0
 21 28  2  0
 28 29  1  0
 29 30  1  0
 30 31  2  0
 30 32  1  0
 32 33  1  0
 33 34  1  0
 34 35  1  0
 35 36  1  0
 36 37  1  0
 18 14  1  0
 29 19  2  0
 37 32  1  0
 27 22  1  0
M  END
>  <Affinity>  (9) 
159.0

>  <Affinity Type>  (9) 
IC50

>  <Affinity Unit>  (9) 
nM

>  <Scaffold>  (9) 
[#6&!R]-&!@[#6&!R]-&!@[#6&!R](=&!@[#8&!R])-&!@[#6&!R]-&!@[#6&!R]-&!@[#6&!R]-&!@[#6&!R]-&!@[#6&!R]-&!@[#6&!R](-&!@[#7&!R]-&!@[#6&!R]=&!@[#8&!R])-&!@[#6&R]1:&@[#7&R]:&@[#6&R](:&@[#7&R]:&@[#6&R]:&@1-&!@[#6&!R])-&!@[#6&R]

$$$$
Q92769_Sries56686_idx-in-all-actives-157
     RDKit          2D

 39 43  0  0  0  0  0  0  0  0999 V2000
   -4.2606  -14.8714    0.0000 C   0  0  0  0  0  0  0  0  0  0  0  0
   -4.1038  -13.3796    0.0000 C   0  0  0  0  0  0  0  0  0  0  0  0
   -2.7335  -12.7695    0.0000 C   0  0  0  0  0  0  0  0  0  0  0  0
   -1.5200  -13.6512    0.0000 O   0  0  0  0  0  0  0  0  0  0  0  0
   -2.5767  -11.2778    0.0000 C   0  0  0  0  0  0  0  0  0  0  0  0
   -1.2064  -10.6676    0.0000 C   0  0  0  0  0  0  0  0  0  0  0  0
   -1.0496   -9.1759    0.0000 C   0  0  0  0  0  0  0  0  0  0  0  0
    0.3207   -8.5658    0.0000 C   0  0  0  0  0  0  0  0  0  0  0  0
    0.4775   -7.0740    0.0000 C   0  0  0  0  0  0  0  0  0  0  0  0
    1.8478   -6.4639    0.0000 C   0  0  0  0  0  0  0  0  0  0  0  0
    3.0613   -7.3456    0.0000 N   0  0  0  0  0  0  0  0  0  0  0  0
    2.9046   -8.8373    0.0000 C   0  0  0  0  0  0  0  0  0  0  0  0
    1.5342   -9.4474    0.0000 O   0  0  0  0  0  0  0  0  0  0  0  0
    4.1181   -9.7190    0.0000 C   0  0  0  0  0  0  0  0  0  0  0  0
    5.6099   -9.8758    0.0000 C   0  0  0  0  0  0  0  0  0  0  0  0
    4.7282  -11.0893    0.0000 C   0  0  0  0  0  0  0  0  0  0  0  0
    3.3579  -11.6994    0.0000 C   0  0  0  0  0  0  0  0  0  0  0  0
    3.2011  -13.1912    0.0000 C   0  0  0  0  0  0  0  0  0  0  0  0
    4.4146  -14.0729    0.0000 N   0  0  0  0  0  0  0  0  0  0  0  0
    4.2578  -15.5647    0.0000 C   0  0  0  0  0  0  0  0  0  0  0  0
    5.7849  -13.4628    0.0000 C   0  0  0  0  0  0  0  0  0  0  0  0
    5.9417  -11.9710    0.0000 C   0  0  0  0  0  0  0  0  0  0  0  0
    2.0046   -4.9721    0.0000 C   0  0  0  0  0  0  0  0  0  0  0  0
    0.8899   -3.9684    0.0000 N   0  0  0  0  0  0  0  0  0  0  0  0
    1.5000   -2.5981    0.0000 C   0  0  0  0  0  0  0  0  0  0  0  0
    0.7500   -1.2990    0.0000 C   0  0  0  0  0  0  0  0  0  0  0  0
    1.5000    0.0000    0.0000 C   0  0  0  0  0  0  0  0  0  0  0  0
    0.7500    1.2990    0.0000 C   0  0  0  0  0  0  0  0  0  0  0  0
   -0.7500    1.2990    0.0000 C   0  0  0  0  0  0  0  0  0  0  0  0
   -1.7537    2.4138    0.0000 N   0  0  0  0  0  0  0  0  0  0  0  0
   -3.1240    1.8037    0.0000 N   0  0  0  0  0  0  0  0  0  0  0  0
   -4.4231    2.5537    0.0000 C   0  0  0  0  0  0  0  0  0  0  0  0
   -2.9672    0.3119    0.0000 C   0  0  0  0  0  0  0  0  0  0  0  0
   -1.5000    0.0000    0.0000 C   0  0  0  0  0  0  0  0  0  0  0  0
   -0.7500   -1.2990    0.0000 C   0  0  0  0  0  0  0  0  0  0  0  0
    2.9918   -2.7549    0.0000 N   0  0  0  0  0  0  0  0  0  0  0  0
    3.3037   -4.2221    0.0000 C   0  0  0  0  0  0  0  0  0  0  0  0
    4.6740   -4.8322    0.0000 C   0  0  0  0  0  0  0  0  0  0  0  0
    6.0443   -5.4423    0.0000 N   0  0  0  0  0  0  0  0  0  0  0  0
  1  2  1  0
  2  3  1  0
  3  4  2  0
  3  5  1  0
  5  6  1  0
  6  7  1  0
  7  8  1  0
  8  9  1  0
 10  9  1  1
 10 11  1  0
 11 12  1  0
 12 13  2  0
 14 12  1  1
 14 15  1  0
 15 16  1  0
 16 17  1  0
 17 18  1  0
 18 19  1  0
 19 20  1  0
 19 21  1  0
 21 22  1  0
 10 23  1  0
 23 24  1  0
 24 25  1  0
 25 26  1  0
 26 27  1  0
 27 28  2  0
 28 29  1  0
 29 30  2  0
 30 31  1  0
 31 32  1  0
 31 33  1  0
 33 34  2  0
 34 35  1  0
 25 36  2  0
 36 37  1  0
 37 38  1  0
 38 39  3  0
 16 14  1  0
 37 23  2  0
 22 16  1  0
 35 26  2  0
 34 29  1  0
M  END
>  <Affinity>  (10) 
2.1

>  <Affinity Type>  (10) 
IC50

>  <Affinity Unit>  (10) 
nM

>  <Scaffold>  (10) 
[#6&!R]-&!@[#6&!R]-&!@[#6&!R](=&!@[#8&!R])-&!@[#6&!R]-&!@[#6&!R]-&!@[#6&!R]-&!@[#6&!R]-&!@[#6&!R]-&!@[#6&!R](-&!@[#7&!R]-&!@[#6&!R]=&!@[#8&!R])-&!@[#6&R]1:&@[#7&R]:&@[#6&R](:&@[#7&R]:&@[#6&R]:&@1-&!@[#6&!R])-&!@[#6&R]

$$$$
Q92769_Sries56686_idx-in-all-actives-171
     RDKit          2D

 32 34  0  0  0  0  0  0  0  0999 V2000
   -4.2606  -14.8714    0.0000 C   0  0  0  0  0  0  0  0  0  0  0  0
   -4.1038  -13.3796    0.0000 C   0  0  0  0  0  0  0  0  0  0  0  0
   -2.7335  -12.7695    0.0000 C   0  0  0  0  0  0  0  0  0  0  0  0
   -1.5200  -13.6512    0.0000 O   0  0  0  0  0  0  0  0  0  0  0  0
   -2.5767  -11.2778    0.0000 C   0  0  0  0  0  0  0  0  0  0  0  0
   -1.2064  -10.6676    0.0000 C   0  0  0  0  0  0  0  0  0  0  0  0
   -1.0496   -9.1759    0.0000 C   0  0  0  0  0  0  0  0  0  0  0  0
    0.3207   -8.5658    0.0000 C   0  0  0  0  0  0  0  0  0  0  0  0
    0.4775   -7.0740    0.0000 C   0  0  0  0  0  0  0  0  0  0  0  0
    1.8478   -6.4639    0.0000 C   0  0  0  0  0  0  0  0  0  0  0  0
    3.0613   -7.3456    0.0000 N   0  0  0  0  0  0  0  0  0  0  0  0
    2.9046   -8.8373    0.0000 C   0  0  0  0  0  0  0  0  0  0  0  0
    1.5342   -9.4474    0.0000 O   0  0  0  0  0  0  0  0  0  0  0  0
    4.1181   -9.7190    0.0000 C   0  0  0  0  0  0  0  0  0  0  0  0
    4.3527  -11.2005    0.0000 C   0  0  0  0  0  0  0  0  0  0  0  0
    5.8343  -10.9659    0.0000 N   0  0  0  0  0  0  0  0  0  0  0  0
    7.0478  -11.8476    0.0000 C   0  0  0  0  0  0  0  0  0  0  0  0
    5.5996   -9.4844    0.0000 C   0  0  0  0  0  0  0  0  0  0  0  0
    2.0046   -4.9721    0.0000 C   0  0  0  0  0  0  0  0  0  0  0  0
    0.8899   -3.9684    0.0000 N   0  0  0  0  0  0  0  0  0  0  0  0
    1.5000   -2.5981    0.0000 C   0  0  0  0  0  0  0  0  0  0  0  0
    0.7500   -1.2990    0.0000 C   0  0  0  0  0  0  0  0  0  0  0  0
    1.5000    0.0000    0.0000 C   0  0  0  0  0  0  0  0  0  0  0  0
    0.7500    1.2990    0.0000 C   0  0  0  0  0  0  0  0  0  0  0  0
   -0.7500    1.2990    0.0000 C   0  0  0  0  0  0  0  0  0  0  0  0
   -1.5000    2.5981    0.0000 F   0  0  0  0  0  0  0  0  0  0  0  0
   -1.5000    0.0000    0.0000 C   0  0  0  0  0  0  0  0  0  0  0  0
   -0.7500   -1.2990    0.0000 C   0  0  0  0  0  0  0  0  0  0  0  0
    2.9918   -2.7549    0.0000 N   0  0  0  0  0  0  0  0  0  0  0  0
    3.3037   -4.2221    0.0000 C   0  0  0  0  0  0  0  0  0  0  0  0
    4.6740   -4.8322    0.0000 C   0  0  0  0  0  0  0  0  0  0  0  0
    6.0443   -5.4423    0.0000 N   0  0  0  0  0  0  0  0  0  0  0  0
  1  2  1  0
  2  3  1  0
  3  4  2  0
  3  5  1  0
  5  6  1  0
  6  7  1  0
  7  8  1  0
  8  9  1  0
 10  9  1  1
 10 11  1  0
 11 12  1  0
 12 13  2  0
 12 14  1  0
 14 15  1  0
 15 16  1  0
 16 17  1  0
 16 18  1  0
 10 19  1  0
 19 20  1  0
 20 21  1  0
 21 22  1  0
 22 23  2  0
 23 24  1  0
 24 25  2  0
 25 26  1  0
 25 27  1  0
 27 28  2  0
 21 29  2  0
 29 30  1  0
 30 31  1  0
 31 32  3  0
 18 14  1  0
 30 19  2  0
 28 22  1  0
M  END
>  <Affinity>  (11) 
117.0

>  <Affinity Type>  (11) 
IC50

>  <Affinity Unit>  (11) 
nM

>  <Scaffold>  (11) 
[#6&!R]-&!@[#6&!R]-&!@[#6&!R](=&!@[#8&!R])-&!@[#6&!R]-&!@[#6&!R]-&!@[#6&!R]-&!@[#6&!R]-&!@[#6&!R]-&!@[#6&!R](-&!@[#7&!R]-&!@[#6&!R]=&!@[#8&!R])-&!@[#6&R]1:&@[#7&R]:&@[#6&R](:&@[#7&R]:&@[#6&R]:&@1-&!@[#6&!R])-&!@[#6&R]

$$$$
Q92769_Sries56686_idx-in-all-actives-165
     RDKit          2D

 37 40  0  0  0  0  0  0  0  0999 V2000
   14.7990   -8.5442    0.0000 C   0  0  0  0  0  0  0  0  0  0  0  0
   13.2990   -8.5442    0.0000 C   0  0  0  0  0  0  0  0  0  0  0  0
   12.5490   -7.2452    0.0000 C   0  0  0  0  0  0  0  0  0  0  0  0
   13.2990   -5.9462    0.0000 O   0  0  0  0  0  0  0  0  0  0  0  0
   11.0490   -7.2452    0.0000 C   0  0  0  0  0  0  0  0  0  0  0  0
   10.2990   -5.9462    0.0000 C   0  0  0  0  0  0  0  0  0  0  0  0
    8.7990   -5.9462    0.0000 C   0  0  0  0  0  0  0  0  0  0  0  0
    8.0490   -4.6471    0.0000 C   0  0  0  0  0  0  0  0  0  0  0  0
    6.5490   -4.6471    0.0000 C   0  0  0  0  0  0  0  0  0  0  0  0
    5.7990   -3.3481    0.0000 C   0  0  0  0  0  0  0  0  0  0  0  0
    4.2990   -3.3481    0.0000 N   0  0  0  0  0  0  0  0  0  0  0  0
    3.5490   -2.0490    0.0000 C   0  0  0  0  0  0  0  0  0  0  0  0
    4.2990   -0.7500    0.0000 O   0  0  0  0  0  0  0  0  0  0  0  0
    2.0490   -2.0490    0.0000 C   0  0  0  0  0  0  0  0  0  0  0  0
    0.7500   -2.7990    0.0000 C   0  0  0  0  0  0  0  0  0  0  0  0
    0.7500   -1.2990    0.0000 C   0  0  0  0  0  0  0  0  0  0  0  0
    1.5000    0.0000    0.0000 C   0  0  0  0  0  0  0  0  0  0  0  0
    0.7500    1.2990    0.0000 C   0  0  0  0  0  0  0  0  0  0  0  0
   -0.7500    1.2990    0.0000 N   0  0  0  0  0  0  0  0  0  0  0  0
   -1.5000    2.5981    0.0000 C   0  0  0  0  0  0  0  0  0  0  0  0
   -0.7500    3.8971    0.0000 C   0  0  0  0  0  0  0  0  0  0  0  0
   -1.5000    0.0000    0.0000 C   0  0  0  0  0  0  0  0  0  0  0  0
   -0.7500   -1.2990    0.0000 C   0  0  0  0  0  0  0  0  0  0  0  0
    6.5490   -2.0490    0.0000 C   0  0  0  0  0  0  0  0  0  0  0  0
    5.9389   -0.6787    0.0000 N   0  0  0  0  0  0  0  0  0  0  0  0
    7.0537    0.3250    0.0000 C   0  0  0  0  0  0  0  0  0  0  0  0
    6.8969    1.8168    0.0000 C   0  0  0  0  0  0  0  0  0  0  0  0
    8.1104    2.6984    0.0000 C   0  0  0  0  0  0  0  0  0  0  0  0
    7.9536    4.1902    0.0000 C   0  0  0  0  0  0  0  0  0  0  0  0
    6.5833    4.8003    0.0000 C   0  0  0  0  0  0  0  0  0  0  0  0
    6.4265    6.2921    0.0000 F   0  0  0  0  0  0  0  0  0  0  0  0
    5.3697    3.9186    0.0000 C   0  0  0  0  0  0  0  0  0  0  0  0
    5.5265    2.4269    0.0000 C   0  0  0  0  0  0  0  0  0  0  0  0
    8.3527   -0.4250    0.0000 N   0  0  0  0  0  0  0  0  0  0  0  0
    8.0408   -1.8922    0.0000 C   0  0  0  0  0  0  0  0  0  0  0  0
    9.0445   -3.0070    0.0000 C   0  0  0  0  0  0  0  0  0  0  0  0
   10.0482   -4.1217    0.0000 N   0  0  0  0  0  0  0  0  0  0  0  0
  1  2  1  0
  2  3  1  0
  3  4  2  0
  3  5  1  0
  5  6  1  0
  6  7  1  0
  7  8  1  0
  8  9  1  0
 10  9  1  6
 10 11  1  0
 11 12  1  0
 12 13  2  0
 14 12  1  1
 14 15  1  0
 15 16  1  0
 16 17  1  0
 17 18  1  0
 18 19  1  0
 19 20  1  0
 20 21  1  0
 19 22  1  0
 22 23  1  0
 10 24  1  0
 24 25  1  0
 25 26  1  0
 26 27  1  0
 27 28  2  0
 28 29  1  0
 29 30  2  0
 30 31  1  0
 30 32  1  0
 32 33  2  0
 26 34  2  0
 34 35  1  0
 35 36  1  0
 36 37  3  0
 16 14  1  0
 35 24  2  0
 23 16  1  0
 33 27  1  0
M  END
>  <Affinity>  (12) 
11.7

>  <Affinity Type>  (12) 
IC50

>  <Affinity Unit>  (12) 
nM

>  <Scaffold>  (12) 
[#6&!R]-&!@[#6&!R]-&!@[#6&!R](=&!@[#8&!R])-&!@[#6&!R]-&!@[#6&!R]-&!@[#6&!R]-&!@[#6&!R]-&!@[#6&!R]-&!@[#6&!R](-&!@[#7&!R]-&!@[#6&!R]=&!@[#8&!R])-&!@[#6&R]1:&@[#7&R]:&@[#6&R](:&@[#7&R]:&@[#6&R]:&@1-&!@[#6&!R])-&!@[#6&R]

$$$$
Q92769_Sries56686_idx-in-all-actives-172
     RDKit          2D

 38 41  0  0  0  0  0  0  0  0999 V2000
    5.7990  -13.7404    0.0000 C   0  0  0  0  0  0  0  0  0  0  0  0
    6.5490  -12.4413    0.0000 C   0  0  0  0  0  0  0  0  0  0  0  0
    5.7990  -11.1423    0.0000 C   0  0  0  0  0  0  0  0  0  0  0  0
    4.2990  -11.1423    0.0000 O   0  0  0  0  0  0  0  0  0  0  0  0
    6.5490   -9.8433    0.0000 C   0  0  0  0  0  0  0  0  0  0  0  0
    5.7990   -8.5442    0.0000 C   0  0  0  0  0  0  0  0  0  0  0  0
    6.5490   -7.2452    0.0000 C   0  0  0  0  0  0  0  0  0  0  0  0
    5.7990   -5.9462    0.0000 C   0  0  0  0  0  0  0  0  0  0  0  0
    6.5490   -4.6471    0.0000 C   0  0  0  0  0  0  0  0  0  0  0  0
    5.7990   -3.3481    0.0000 C   0  0  0  0  0  0  0  0  0  0  0  0
    4.2990   -3.3481    0.0000 N   0  0  0  0  0  0  0  0  0  0  0  0
    3.5490   -2.0490    0.0000 C   0  0  0  0  0  0  0  0  0  0  0  0
    4.2990   -0.7500    0.0000 O   0  0  0  0  0  0  0  0  0  0  0  0
    2.0490   -2.0490    0.0000 C   0  0  0  0  0  0  0  0  0  0  0  0
    0.7500   -2.7990    0.0000 C   0  0  0  0  0  0  0  0  0  0  0  0
    0.7500   -1.2990    0.0000 C   0  0  0  0  0  0  0  0  0  0  0  0
    1.5000    0.0000    0.0000 C   0  0  0  0  0  0  0  0  0  0  0  0
    0.7500    1.2990    0.0000 C   0  0  0  0  0  0  0  0  0  0  0  0
   -0.7500    1.2990    0.0000 N   0  0  0  0  0  0  0  0  0  0  0  0
   -1.5000    2.5981    0.0000 C   0  0  0  0  0  0  0  0  0  0  0  0
   -0.7500    3.8971    0.0000 C   0  0  0  0  0  0  0  0  0  0  0  0
   -1.5000    0.0000    0.0000 C   0  0  0  0  0  0  0  0  0  0  0  0
   -0.7500   -1.2990    0.0000 C   0  0  0  0  0  0  0  0  0  0  0  0
    6.5490   -2.0490    0.0000 C   0  0  0  0  0  0  0  0  0  0  0  0
    5.9389   -0.6787    0.0000 N   0  0  0  0  0  0  0  0  0  0  0  0
    7.0537    0.3250    0.0000 C   0  0  0  0  0  0  0  0  0  0  0  0
    6.8969    1.8168    0.0000 C   0  0  0  0  0  0  0  0  0  0  0  0
    8.1104    2.6984    0.0000 C   0  0  0  0  0  0  0  0  0  0  0  0
    7.9536    4.1902    0.0000 C   0  0  0  0  0  0  0  0  0  0  0  0
    6.5833    4.8003    0.0000 C   0  0  0  0  0  0  0  0  0  0  0  0
    6.4265    6.2921    0.0000 F   0  0  0  0  0  0  0  0  0  0  0  0
    5.3697    3.9186    0.0000 C   0  0  0  0  0  0  0  0  0  0  0  0
    5.5265    2.4269    0.0000 C   0  0  0  0  0  0  0  0  0  0  0  0
    8.3527   -0.4250    0.0000 N   0  0  0  0  0  0  0  0  0  0  0  0
    8.0408   -1.8922    0.0000 C   0  0  0  0  0  0  0  0  0  0  0  0
    9.0445   -3.0070    0.0000 C   0  0  0  0  0  0  0  0  0  0  0  0
   10.5117   -2.6951    0.0000 N   0  0  0  0  0  0  0  0  0  0  0  0
    8.5810   -4.4335    0.0000 O   0  0  0  0  0  0  0  0  0  0  0  0
  1  2  1  0
  2  3  1  0
  3  4  2  0
  3  5  1  0
  5  6  1  0
  6  7  1  0
  7  8  1  0
  8  9  1  0
 10  9  1  6
 10 11  1  0
 11 12  1  0
 12 13  2  0
 14 12  1  1
 14 15  1  0
 15 16  1  0
 16 17  1  0
 17 18  1  0
 18 19  1  0
 19 20  1  0
 20 21  1  0
 19 22  1  0
 22 23  1  0
 10 24  1  0
 24 25  1  0
 25 26  1  0
 26 27  1  0
 27 28  2  0
 28 29  1  0
 29 30  2  0
 30 31  1  0
 30 32  1  0
 32 33  2  0
 26 34  2  0
 34 35  1  0
 35 36  1  0
 36 37  1  0
 36 38  2  0
 16 14  1  0
 35 24  2  0
 23 16  1  0
 33 27  1  0
M  END
>  <Affinity>  (13) 
5.0

>  <Affinity Type>  (13) 
IC50

>  <Affinity Unit>  (13) 
nM

>  <Scaffold>  (13) 
[#6&!R]-&!@[#6&!R]-&!@[#6&!R](=&!@[#8&!R])-&!@[#6&!R]-&!@[#6&!R]-&!@[#6&!R]-&!@[#6&!R]-&!@[#6&!R]-&!@[#6&!R](-&!@[#7&!R]-&!@[#6&!R]=&!@[#8&!R])-&!@[#6&R]1:&@[#7&R]:&@[#6&R](:&@[#7&R]:&@[#6&R]:&@1-&!@[#6&!R])-&!@[#6&R]

$$$$
Q92769_Sries56686_idx-in-all-actives-178
     RDKit          2D

 37 39  0  0  0  0  0  0  0  0999 V2000
   -4.2606  -14.8714    0.0000 C   0  0  0  0  0  0  0  0  0  0  0  0
   -4.1038  -13.3796    0.0000 C   0  0  0  0  0  0  0  0  0  0  0  0
   -2.7335  -12.7695    0.0000 C   0  0  0  0  0  0  0  0  0  0  0  0
   -1.5200  -13.6512    0.0000 O   0  0  0  0  0  0  0  0  0  0  0  0
   -2.5767  -11.2778    0.0000 C   0  0  0  0  0  0  0  0  0  0  0  0
   -1.2064  -10.6676    0.0000 C   0  0  0  0  0  0  0  0  0  0  0  0
   -1.0496   -9.1759    0.0000 C   0  0  0  0  0  0  0  0  0  0  0  0
    0.3207   -8.5658    0.0000 C   0  0  0  0  0  0  0  0  0  0  0  0
    0.4775   -7.0740    0.0000 C   0  0  0  0  0  0  0  0  0  0  0  0
    1.8478   -6.4639    0.0000 C   0  0  0  0  0  0  0  0  0  0  0  0
    3.0613   -7.3456    0.0000 N   0  0  0  0  0  0  0  0  0  0  0  0
    2.9046   -8.8373    0.0000 C   0  0  0  0  0  0  0  0  0  0  0  0
    1.5342   -9.4474    0.0000 O   0  0  0  0  0  0  0  0  0  0  0  0
    4.1181   -9.7190    0.0000 C   0  0  0  0  0  0  0  0  0  0  0  0
    5.5447   -9.2555    0.0000 C   0  0  0  0  0  0  0  0  0  0  0  0
    6.4263  -10.4690    0.0000 N   0  0  0  0  0  0  0  0  0  0  0  0
    5.5447  -11.6825    0.0000 C   0  0  0  0  0  0  0  0  0  0  0  0
    4.1181  -11.2190    0.0000 S   0  0  0  0  0  0  0  0  0  0  0  0
    2.0046   -4.9721    0.0000 C   0  0  0  0  0  0  0  0  0  0  0  0
    0.8899   -3.9684    0.0000 N   0  0  0  0  0  0  0  0  0  0  0  0
    1.5000   -2.5981    0.0000 C   0  0  0  0  0  0  0  0  0  0  0  0
    0.7500   -1.2990    0.0000 C   0  0  0  0  0  0  0  0  0  0  0  0
    1.5000    0.0000    0.0000 C   0  0  0  0  0  0  0  0  0  0  0  0
    0.7500    1.2990    0.0000 C   0  0  0  0  0  0  0  0  0  0  0  0
   -0.7500    1.2990    0.0000 C   0  0  0  0  0  0  0  0  0  0  0  0
   -1.5000    0.0000    0.0000 C   0  0  0  0  0  0  0  0  0  0  0  0
   -0.7500   -1.2990    0.0000 C   0  0  0  0  0  0  0  0  0  0  0  0
    2.9918   -2.7549    0.0000 N   0  0  0  0  0  0  0  0  0  0  0  0
    3.3037   -4.2221    0.0000 C   0  0  0  0  0  0  0  0  0  0  0  0
    4.6740   -4.8322    0.0000 C   0  0  0  0  0  0  0  0  0  0  0  0
    4.8308   -6.3240    0.0000 O   0  0  0  0  0  0  0  0  0  0  0  0
    5.8875   -3.9505    0.0000 N   0  0  0  0  0  0  0  0  0  0  0  0
    7.2578   -4.5606    0.0000 C   0  0  0  0  0  0  0  0  0  0  0  0
    8.4713   -3.6789    0.0000 C   0  0  0  0  0  0  0  0  0  0  0  0
    9.8417   -4.2890    0.0000 N   0  0  0  0  0  0  0  0  0  0  0  0
   11.0552   -3.4074    0.0000 C   0  0  0  0  0  0  0  0  0  0  0  0
    9.9984   -5.7808    0.0000 C   0  0  0  0  0  0  0  0  0  0  0  0
  1  2  1  0
  2  3  1  0
  3  4  2  0
  3  5  1  0
  5  6  1  0
  6  7  1  0
  7  8  1  0
  8  9  1  0
  9 10  1  0
 10 11  1  0
 11 12  1  0
 12 13  2  0
 12 14  1  0
 14 15  2  0
 15 16  1  0
 16 17  2  0
 17 18  1  0
 10 19  1  0
 19 20  1  0
 20 21  1  0
 21 22  1  0
 22 23  2  0
 23 24  1  0
 24 25  2  0
 25 26  1  0
 26 27  2  0
 21 28  2  0
 28 29  1  0
 29 30  1  0
 30 31  2  0
 30 32  1  0
 32 33  1  0
 33 34  1  0
 34 35  1  0
 35 36  1  0
 35 37  1  0
 18 14  1  0
 29 19  2  0
 27 22  1  0
M  END
>  <Affinity>  (14) 
53.1

>  <Affinity Type>  (14) 
IC50

>  <Affinity Unit>  (14) 
nM

>  <Scaffold>  (14) 
[#6&!R]-&!@[#6&!R]-&!@[#6&!R](=&!@[#8&!R])-&!@[#6&!R]-&!@[#6&!R]-&!@[#6&!R]-&!@[#6&!R]-&!@[#6&!R]-&!@[#6&!R](-&!@[#7&!R]-&!@[#6&!R]=&!@[#8&!R])-&!@[#6&R]1:&@[#7&R]:&@[#6&R](:&@[#7&R]:&@[#6&R]:&@1-&!@[#6&!R])-&!@[#6&R]

$$$$
Q92769_Sries56686_idx-in-all-actives-166
     RDKit          2D

 36 39  0  0  0  0  0  0  0  0999 V2000
   14.7990   -8.5442    0.0000 C   0  0  0  0  0  0  0  0  0  0  0  0
   13.2990   -8.5442    0.0000 C   0  0  0  0  0  0  0  0  0  0  0  0
   12.5490   -7.2452    0.0000 C   0  0  0  0  0  0  0  0  0  0  0  0
   13.2990   -5.9462    0.0000 O   0  0  0  0  0  0  0  0  0  0  0  0
   11.0490   -7.2452    0.0000 C   0  0  0  0  0  0  0  0  0  0  0  0
   10.2990   -5.9462    0.0000 C   0  0  0  0  0  0  0  0  0  0  0  0
    8.7990   -5.9462    0.0000 C   0  0  0  0  0  0  0  0  0  0  0  0
    8.0490   -4.6471    0.0000 C   0  0  0  0  0  0  0  0  0  0  0  0
    6.5490   -4.6471    0.0000 C   0  0  0  0  0  0  0  0  0  0  0  0
    5.7990   -3.3481    0.0000 C   0  0  0  0  0  0  0  0  0  0  0  0
    4.2990   -3.3481    0.0000 N   0  0  0  0  0  0  0  0  0  0  0  0
    3.5490   -2.0490    0.0000 C   0  0  0  0  0  0  0  0  0  0  0  0
    4.2990   -0.7500    0.0000 O   0  0  0  0  0  0  0  0  0  0  0  0
    2.0490   -2.0490    0.0000 C   0  0  0  0  0  0  0  0  0  0  0  0
    0.7500   -2.7990    0.0000 C   0  0  0  0  0  0  0  0  0  0  0  0
    0.7500   -1.2990    0.0000 C   0  0  0  0  0  0  0  0  0  0  0  0
    1.5000    0.0000    0.0000 C   0  0  0  0  0  0  0  0  0  0  0  0
    0.7500    1.2990    0.0000 C   0  0  0  0  0  0  0  0  0  0  0  0
   -0.7500    1.2990    0.0000 N   0  0  0  0  0  0  0  0  0  0  0  0
   -1.5000    2.5981    0.0000 C   0  0  0  0  0  0  0  0  0  0  0  0
   -1.5000    0.0000    0.0000 C   0  0  0  0  0  0  0  0  0  0  0  0
   -0.7500   -1.2990    0.0000 C   0  0  0  0  0  0  0  0  0  0  0  0
    6.5490   -2.0490    0.0000 C   0  0  0  0  0  0  0  0  0  0  0  0
    5.9389   -0.6787    0.0000 N   0  0  0  0  0  0  0  0  0  0  0  0
    7.0537    0.3250    0.0000 C   0  0  0  0  0  0  0  0  0  0  0  0
    6.8969    1.8168    0.0000 C   0  0  0  0  0  0  0  0  0  0  0  0
    8.1104    2.6984    0.0000 C   0  0  0  0  0  0  0  0  0  0  0  0
    7.9536    4.1902    0.0000 C   0  0  0  0  0  0  0  0  0  0  0  0
    6.5833    4.8003    0.0000 C   0  0  0  0  0  0  0  0  0  0  0  0
    6.4265    6.2921    0.0000 F   0  0  0  0  0  0  0  0  0  0  0  0
    5.3697    3.9186    0.0000 C   0  0  0  0  0  0  0  0  0  0  0  0
    5.5265    2.4269    0.0000 C   0  0  0  0  0  0  0  0  0  0  0  0
    8.3527   -0.4250    0.0000 N   0  0  0  0  0  0  0  0  0  0  0  0
    8.0408   -1.8922    0.0000 C   0  0  0  0  0  0  0  0  0  0  0  0
    9.0445   -3.0070    0.0000 C   0  0  0  0  0  0  0  0  0  0  0  0
   10.0482   -4.1217    0.0000 N   0  0  0  0  0  0  0  0  0  0  0  0
  1  2  1  0
  2  3  1  0
  3  4  2  0
  3  5  1  0
  5  6  1  0
  6  7  1  0
  7  8  1  0
  8  9  1  0
 10  9  1  6
 10 11  1  0
 11 12  1  0
 12 13  2  0
 14 12  1  1
 14 15  1  0
 15 16  1  0
 16 17  1  0
 17 18  1  0
 18 19  1  0
 19 20  1  0
 19 21  1  0
 21 22  1  0
 10 23  1  0
 23 24  1  0
 24 25  1  0
 25 26  1  0
 26 27  2  0
 27 28  1  0
 28 29  2  0
 29 30  1  0
 29 31  1  0
 31 32  2  0
 25 33  2  0
 33 34  1  0
 34 35  1  0
 35 36  3  0
 16 14  1  0
 34 23  2  0
 22 16  1  0
 32 26  1  0
M  END
>  <Affinity>  (15) 
19.7

>  <Affinity Type>  (15) 
IC50

>  <Affinity Unit>  (15) 
nM

>  <Scaffold>  (15) 
[#6&!R]-&!@[#6&!R]-&!@[#6&!R](=&!@[#8&!R])-&!@[#6&!R]-&!@[#6&!R]-&!@[#6&!R]-&!@[#6&!R]-&!@[#6&!R]-&!@[#6&!R](-&!@[#7&!R]-&!@[#6&!R]=&!@[#8&!R])-&!@[#6&R]1:&@[#7&R]:&@[#6&R](:&@[#7&R]:&@[#6&R]:&@1-&!@[#6&!R])-&!@[#6&R]

$$$$
Q92769_Sries56686_idx-in-all-actives-160
     RDKit          2D

 37 40  0  0  0  0  0  0  0  0999 V2000
   14.7990   -8.5442    0.0000 C   0  0  0  0  0  0  0  0  0  0  0  0
   13.2990   -8.5442    0.0000 C   0  0  0  0  0  0  0  0  0  0  0  0
   12.5490   -7.2452    0.0000 C   0  0  0  0  0  0  0  0  0  0  0  0
   13.2990   -5.9462    0.0000 O   0  0  0  0  0  0  0  0  0  0  0  0
   11.0490   -7.2452    0.0000 C   0  0  0  0  0  0  0  0  0  0  0  0
   10.2990   -5.9462    0.0000 C   0  0  0  0  0  0  0  0  0  0  0  0
    8.7990   -5.9462    0.0000 C   0  0  0  0  0  0  0  0  0  0  0  0
    8.0490   -4.6471    0.0000 C   0  0  0  0  0  0  0  0  0  0  0  0
    6.5490   -4.6471    0.0000 C   0  0  0  0  0  0  0  0  0  0  0  0
    5.7990   -3.3481    0.0000 C   0  0  0  0  0  0  0  0  0  0  0  0
    4.2990   -3.3481    0.0000 N   0  0  0  0  0  0  0  0  0  0  0  0
    3.5490   -2.0490    0.0000 C   0  0  0  0  0  0  0  0  0  0  0  0
    4.2990   -0.7500    0.0000 O   0  0  0  0  0  0  0  0  0  0  0  0
    2.0490   -2.0490    0.0000 C   0  0  0  0  0  0  0  0  0  0  0  0
    0.7500   -2.7990    0.0000 C   0  0  0  0  0  0  0  0  0  0  0  0
    0.7500   -1.2990    0.0000 C   0  0  0  0  0  0  0  0  0  0  0  0
    1.5000    0.0000    0.0000 C   0  0  0  0  0  0  0  0  0  0  0  0
    0.7500    1.2990    0.0000 C   0  0  0  0  0  0  0  0  0  0  0  0
   -0.7500    1.2990    0.0000 N   0  0  0  0  0  0  0  0  0  0  0  0
   -1.5000    2.5981    0.0000 C   0  0  0  0  0  0  0  0  0  0  0  0
   -1.5000    0.0000    0.0000 C   0  0  0  0  0  0  0  0  0  0  0  0
   -0.7500   -1.2990    0.0000 C   0  0  0  0  0  0  0  0  0  0  0  0
    6.5490   -2.0490    0.0000 C   0  0  0  0  0  0  0  0  0  0  0  0
    5.9389   -0.6787    0.0000 N   0  0  0  0  0  0  0  0  0  0  0  0
    7.0537    0.3250    0.0000 C   0  0  0  0  0  0  0  0  0  0  0  0
    6.8969    1.8168    0.0000 C   0  0  0  0  0  0  0  0  0  0  0  0
    8.1104    2.6984    0.0000 C   0  0  0  0  0  0  0  0  0  0  0  0
    7.9536    4.1902    0.0000 C   0  0  0  0  0  0  0  0  0  0  0  0
    6.5833    4.8003    0.0000 C   0  0  0  0  0  0  0  0  0  0  0  0
    5.3697    3.9186    0.0000 N   0  0  0  0  0  0  0  0  0  0  0  0
    5.5265    2.4269    0.0000 C   0  0  0  0  0  0  0  0  0  0  0  0
    4.3130    1.5452    0.0000 O   0  0  0  0  0  0  0  0  0  0  0  0
    2.9427    2.1553    0.0000 C   0  0  0  0  0  0  0  0  0  0  0  0
    8.3527   -0.4250    0.0000 N   0  0  0  0  0  0  0  0  0  0  0  0
    8.0408   -1.8922    0.0000 C   0  0  0  0  0  0  0  0  0  0  0  0
    9.0445   -3.0070    0.0000 C   0  0  0  0  0  0  0  0  0  0  0  0
   10.0482   -4.1217    0.0000 N   0  0  0  0  0  0  0  0  0  0  0  0
  1  2  1  0
  2  3  1  0
  3  4  2  0
  3  5  1  0
  5  6  1  0
  6  7  1  0
  7  8  1  0
  8  9  1  0
 10  9  1  6
 10 11  1  0
 11 12  1  0
 12 13  2  0
 14 12  1  1
 14 15  1  0
 15 16  1  0
 16 17  1  0
 17 18  1  0
 18 19  1  0
 19 20  1  0
 19 21  1  0
 21 22  1  0
 10 23  1  0
 23 24  1  0
 24 25  1  0
 25 26  1  0
 26 27  2  0
 27 28  1  0
 28 29  2  0
 29 30  1  0
 30 31  2  0
 31 32  1  0
 32 33  1  0
 25 34  2  0
 34 35  1  0
 35 36  1  0
 36 37  3  0
 16 14  1  0
 35 23  2  0
 22 16  1  0
 31 26  1  0
M  END
>  <Affinity>  (16) 
229.0

>  <Affinity Type>  (16) 
IC50

>  <Affinity Unit>  (16) 
nM

>  <Scaffold>  (16) 
[#6&!R]-&!@[#6&!R]-&!@[#6&!R](=&!@[#8&!R])-&!@[#6&!R]-&!@[#6&!R]-&!@[#6&!R]-&!@[#6&!R]-&!@[#6&!R]-&!@[#6&!R](-&!@[#7&!R]-&!@[#6&!R]=&!@[#8&!R])-&!@[#6&R]1:&@[#7&R]:&@[#6&R](:&@[#7&R]:&@[#6&R]:&@1-&!@[#6&!R])-&!@[#6&R]

$$$$
Q92769_Sries56686_idx-in-all-actives-179
     RDKit          2D

 32 34  0  0  0  0  0  0  0  0999 V2000
   -4.2606  -14.8714    0.0000 C   0  0  0  0  0  0  0  0  0  0  0  0
   -4.1038  -13.3796    0.0000 C   0  0  0  0  0  0  0  0  0  0  0  0
   -2.7335  -12.7695    0.0000 C   0  0  0  0  0  0  0  0  0  0  0  0
   -1.5200  -13.6512    0.0000 O   0  0  0  0  0  0  0  0  0  0  0  0
   -2.5767  -11.2778    0.0000 C   0  0  0  0  0  0  0  0  0  0  0  0
   -1.2064  -10.6676    0.0000 C   0  0  0  0  0  0  0  0  0  0  0  0
   -1.0496   -9.1759    0.0000 C   0  0  0  0  0  0  0  0  0  0  0  0
    0.3207   -8.5658    0.0000 C   0  0  0  0  0  0  0  0  0  0  0  0
    0.4775   -7.0740    0.0000 C   0  0  0  0  0  0  0  0  0  0  0  0
    1.8478   -6.4639    0.0000 C   0  0  0  0  0  0  0  0  0  0  0  0
    3.0613   -7.3456    0.0000 N   0  0  0  0  0  0  0  0  0  0  0  0
    2.9046   -8.8373    0.0000 C   0  0  0  0  0  0  0  0  0  0  0  0
    1.5342   -9.4474    0.0000 O   0  0  0  0  0  0  0  0  0  0  0  0
    4.1181   -9.7190    0.0000 C   0  0  0  0  0  0  0  0  0  0  0  0
    5.5447   -9.2555    0.0000 C   0  0  0  0  0  0  0  0  0  0  0  0
    6.4263  -10.4690    0.0000 N   0  0  0  0  0  0  0  0  0  0  0  0
    5.5447  -11.6825    0.0000 C   0  0  0  0  0  0  0  0  0  0  0  0
    4.1181  -11.2190    0.0000 S   0  0  0  0  0  0  0  0  0  0  0  0
    2.0046   -4.9721    0.0000 C   0  0  0  0  0  0  0  0  0  0  0  0
    0.8899   -3.9684    0.0000 N   0  0  0  0  0  0  0  0  0  0  0  0
    1.5000   -2.5981    0.0000 C   0  0  0  0  0  0  0  0  0  0  0  0
    0.7500   -1.2990    0.0000 C   0  0  0  0  0  0  0  0  0  0  0  0
    1.5000    0.0000    0.0000 C   0  0  0  0  0  0  0  0  0  0  0  0
    0.7500    1.2990    0.0000 C   0  0  0  0  0  0  0  0  0  0  0  0
   -0.7500    1.2990    0.0000 C   0  0  0  0  0  0  0  0  0  0  0  0
   -1.5000    0.0000    0.0000 C   0  0  0  0  0  0  0  0  0  0  0  0
   -0.7500   -1.2990    0.0000 C   0  0  0  0  0  0  0  0  0  0  0  0
    2.9918   -2.7549    0.0000 N   0  0  0  0  0  0  0  0  0  0  0  0
    3.3037   -4.2221    0.0000 C   0  0  0  0  0  0  0  0  0  0  0  0
    4.6740   -4.8322    0.0000 C   0  0  0  0  0  0  0  0  0  0  0  0
    5.8875   -3.9505    0.0000 N   0  0  0  0  0  0  0  0  0  0  0  0
    4.8308   -6.3240    0.0000 O   0  0  0  0  0  0  0  0  0  0  0  0
  1  2  1  0
  2  3  1  0
  3  4  2  0
  3  5  1  0
  5  6  1  0
  6  7  1  0
  7  8  1  0
  8  9  1  0
  9 10  1  0
 10 11  1  0
 11 12  1  0
 12 13  2  0
 12 14  1  0
 14 15  2  0
 15 16  1  0
 16 17  2  0
 17 18  1  0
 10 19  1  0
 19 20  1  0
 20 21  1  0
 21 22  1  0
 22 23  2  0
 23 24  1  0
 24 25  2  0
 25 26  1  0
 26 27  2  0
 21 28  2  0
 28 29  1  0
 29 30  1  0
 30 31  1  0
 30 32  2  0
 18 14  1  0
 29 19  2  0
 27 22  1  0
M  END
>  <Affinity>  (17) 
26.7

>  <Affinity Type>  (17) 
IC50

>  <Affinity Unit>  (17) 
nM

>  <Scaffold>  (17) 
[#6&!R]-&!@[#6&!R]-&!@[#6&!R](=&!@[#8&!R])-&!@[#6&!R]-&!@[#6&!R]-&!@[#6&!R]-&!@[#6&!R]-&!@[#6&!R]-&!@[#6&!R](-&!@[#7&!R]-&!@[#6&!R]=&!@[#8&!R])-&!@[#6&R]1:&@[#7&R]:&@[#6&R](:&@[#7&R]:&@[#6&R]:&@1-&!@[#6&!R])-&!@[#6&R]

$$$$
Q92769_Sries56686_idx-in-all-actives-173
     RDKit          2D

 37 40  0  0  0  0  0  0  0  0999 V2000
    5.7990  -13.7404    0.0000 C   0  0  0  0  0  0  0  0  0  0  0  0
    6.5490  -12.4413    0.0000 C   0  0  0  0  0  0  0  0  0  0  0  0
    5.7990  -11.1423    0.0000 C   0  0  0  0  0  0  0  0  0  0  0  0
    4.2990  -11.1423    0.0000 O   0  0  0  0  0  0  0  0  0  0  0  0
    6.5490   -9.8433    0.0000 C   0  0  0  0  0  0  0  0  0  0  0  0
    5.7990   -8.5442    0.0000 C   0  0  0  0  0  0  0  0  0  0  0  0
    6.5490   -7.2452    0.0000 C   0  0  0  0  0  0  0  0  0  0  0  0
    5.7990   -5.9462    0.0000 C   0  0  0  0  0  0  0  0  0  0  0  0
    6.5490   -4.6471    0.0000 C   0  0  0  0  0  0  0  0  0  0  0  0
    5.7990   -3.3481    0.0000 C   0  0  0  0  0  0  0  0  0  0  0  0
    4.2990   -3.3481    0.0000 N   0  0  0  0  0  0  0  0  0  0  0  0
    3.5490   -2.0490    0.0000 C   0  0  0  0  0  0  0  0  0  0  0  0
    4.2990   -0.7500    0.0000 O   0  0  0  0  0  0  0  0  0  0  0  0
    2.0490   -2.0490    0.0000 C   0  0  0  0  0  0  0  0  0  0  0  0
    0.7500   -2.7990    0.0000 C   0  0  0  0  0  0  0  0  0  0  0  0
    0.7500   -1.2990    0.0000 C   0  0  0  0  0  0  0  0  0  0  0  0
    1.5000    0.0000    0.0000 C   0  0  0  0  0  0  0  0  0  0  0  0
    0.7500    1.2990    0.0000 C   0  0  0  0  0  0  0  0  0  0  0  0
   -0.7500    1.2990    0.0000 N   0  0  0  0  0  0  0  0  0  0  0  0
   -1.5000    2.5981    0.0000 C   0  0  0  0  0  0  0  0  0  0  0  0
   -1.5000    0.0000    0.0000 C   0  0  0  0  0  0  0  0  0  0  0  0
   -0.7500   -1.2990    0.0000 C   0  0  0  0  0  0  0  0  0  0  0  0
    6.5490   -2.0490    0.0000 C   0  0  0  0  0  0  0  0  0  0  0  0
    5.9389   -0.6787    0.0000 N   0  0  0  0  0  0  0  0  0  0  0  0
    7.0537    0.3250    0.0000 C   0  0  0  0  0  0  0  0  0  0  0  0
    6.8969    1.8168    0.0000 C   0  0  0  0  0  0  0  0  0  0  0  0
    8.1104    2.6984    0.0000 C   0  0  0  0  0  0  0  0  0  0  0  0
    7.9536    4.1902    0.0000 C   0  0  0  0  0  0  0  0  0  0  0  0
    6.5833    4.8003    0.0000 C   0  0  0  0  0  0  0  0  0  0  0  0
    6.4265    6.2921    0.0000 F   0  0  0  0  0  0  0  0  0  0  0  0
    5.3697    3.9186    0.0000 C   0  0  0  0  0  0  0  0  0  0  0  0
    5.5265    2.4269    0.0000 C   0  0  0  0  0  0  0  0  0  0  0  0
    8.3527   -0.4250    0.0000 N   0  0  0  0  0  0  0  0  0  0  0  0
    8.0408   -1.8922    0.0000 C   0  0  0  0  0  0  0  0  0  0  0  0
    9.0445   -3.0070    0.0000 C   0  0  0  0  0  0  0  0  0  0  0  0
    8.5810   -4.4335    0.0000 N   0  0  0  0  0  0  0  0  0  0  0  0
   10.5117   -2.6951    0.0000 O   0  0  0  0  0  0  0  0  0  0  0  0
  1  2  1  0
  2  3  1  0
  3  4  2  0
  3  5  1  0
  5  6  1  0
  6  7  1  0
  7  8  1  0
  8  9  1  0
 10  9  1  6
 10 11  1  0
 11 12  1  0
 12 13  2  0
 14 12  1  1
 14 15  1  0
 15 16  1  0
 16 17  1  0
 17 18  1  0
 18 19  1  0
 19 20  1  0
 19 21  1  0
 21 22  1  0
 10 23  1  0
 23 24  1  0
 24 25  1  0
 25 26  1  0
 26 27  2  0
 27 28  1  0
 28 29  2  0
 29 30  1  0
 29 31  1  0
 31 32  2  0
 25 33  2  0
 33 34  1  0
 34 35  1  0
 35 36  1  0
 35 37  2  0
 16 14  1  0
 34 23  2  0
 22 16  1  0
 32 26  1  0
M  END
>  <Affinity>  (18) 
6.3

>  <Affinity Type>  (18) 
IC50

>  <Affinity Unit>  (18) 
nM

>  <Scaffold>  (18) 
[#6&!R]-&!@[#6&!R]-&!@[#6&!R](=&!@[#8&!R])-&!@[#6&!R]-&!@[#6&!R]-&!@[#6&!R]-&!@[#6&!R]-&!@[#6&!R]-&!@[#6&!R](-&!@[#7&!R]-&!@[#6&!R]=&!@[#8&!R])-&!@[#6&R]1:&@[#7&R]:&@[#6&R](:&@[#7&R]:&@[#6&R]:&@1-&!@[#6&!R])-&!@[#6&R]

$$$$
Q92769_Sries56686_idx-in-all-actives-180
     RDKit          2D

 33 35  0  0  0  0  0  0  0  0999 V2000
   -4.2606  -14.8714    0.0000 C   0  0  0  0  0  0  0  0  0  0  0  0
   -4.1038  -13.3796    0.0000 C   0  0  0  0  0  0  0  0  0  0  0  0
   -2.7335  -12.7695    0.0000 C   0  0  0  0  0  0  0  0  0  0  0  0
   -1.5200  -13.6512    0.0000 O   0  0  0  0  0  0  0  0  0  0  0  0
   -2.5767  -11.2778    0.0000 C   0  0  0  0  0  0  0  0  0  0  0  0
   -1.2064  -10.6676    0.0000 C   0  0  0  0  0  0  0  0  0  0  0  0
   -1.0496   -9.1759    0.0000 C   0  0  0  0  0  0  0  0  0  0  0  0
    0.3207   -8.5658    0.0000 C   0  0  0  0  0  0  0  0  0  0  0  0
    0.4775   -7.0740    0.0000 C   0  0  0  0  0  0  0  0  0  0  0  0
    1.8478   -6.4639    0.0000 C   0  0  0  0  0  0  0  0  0  0  0  0
    3.0613   -7.3456    0.0000 N   0  0  0  0  0  0  0  0  0  0  0  0
    2.9046   -8.8373    0.0000 C   0  0  0  0  0  0  0  0  0  0  0  0
    1.5342   -9.4474    0.0000 O   0  0  0  0  0  0  0  0  0  0  0  0
    4.1181   -9.7190    0.0000 C   0  0  0  0  0  0  0  0  0  0  0  0
    5.5447   -9.2555    0.0000 C   0  0  0  0  0  0  0  0  0  0  0  0
    6.4263  -10.4690    0.0000 N   0  0  0  0  0  0  0  0  0  0  0  0
    5.5447  -11.6825    0.0000 C   0  0  0  0  0  0  0  0  0  0  0  0
    4.1181  -11.2190    0.0000 S   0  0  0  0  0  0  0  0  0  0  0  0
    2.0046   -4.9721    0.0000 C   0  0  0  0  0  0  0  0  0  0  0  0
    0.8899   -3.9684    0.0000 N   0  0  0  0  0  0  0  0  0  0  0  0
    1.5000   -2.5981    0.0000 C   0  0  0  0  0  0  0  0  0  0  0  0
    0.7500   -1.2990    0.0000 C   0  0  0  0  0  0  0  0  0  0  0  0
    1.5000    0.0000    0.0000 C   0  0  0  0  0  0  0  0  0  0  0  0
    0.7500    1.2990    0.0000 C   0  0  0  0  0  0  0  0  0  0  0  0
   -0.7500    1.2990    0.0000 C   0  0  0  0  0  0  0  0  0  0  0  0
   -1.5000    0.0000    0.0000 C   0  0  0  0  0  0  0  0  0  0  0  0
   -0.7500   -1.2990    0.0000 C   0  0  0  0  0  0  0  0  0  0  0  0
    2.9918   -2.7549    0.0000 N   0  0  0  0  0  0  0  0  0  0  0  0
    3.3037   -4.2221    0.0000 C   0  0  0  0  0  0  0  0  0  0  0  0
    4.6740   -4.8322    0.0000 C   0  0  0  0  0  0  0  0  0  0  0  0
    4.8308   -6.3240    0.0000 O   0  0  0  0  0  0  0  0  0  0  0  0
    5.8875   -3.9505    0.0000 N   0  0  0  0  0  0  0  0  0  0  0  0
    7.2578   -4.5606    0.0000 C   0  0  0  0  0  0  0  0  0  0  0  0
  1  2  1  0
  2  3  1  0
  3  4  2  0
  3  5  1  0
  5  6  1  0
  6  7  1  0
  7  8  1  0
  8  9  1  0
  9 10  1  0
 10 11  1  0
 11 12  1  0
 12 13  2  0
 12 14  1  0
 14 15  2  0
 15 16  1  0
 16 17  2  0
 17 18  1  0
 10 19  1  0
 19 20  1  0
 20 21  1  0
 21 22  1  0
 22 23  2  0
 23 24  1  0
 24 25  2  0
 25 26  1  0
 26 27  2  0
 21 28  2  0
 28 29  1  0
 29 30  1  0
 30 31  2  0
 30 32  1  0
 32 33  1  0
 18 14  1  0
 29 19  2  0
 27 22  1  0
M  END
>  <Affinity>  (19) 
91.4

>  <Affinity Type>  (19) 
IC50

>  <Affinity Unit>  (19) 
nM

>  <Scaffold>  (19) 
[#6&!R]-&!@[#6&!R]-&!@[#6&!R](=&!@[#8&!R])-&!@[#6&!R]-&!@[#6&!R]-&!@[#6&!R]-&!@[#6&!R]-&!@[#6&!R]-&!@[#6&!R](-&!@[#7&!R]-&!@[#6&!R]=&!@[#8&!R])-&!@[#6&R]1:&@[#7&R]:&@[#6&R](:&@[#7&R]:&@[#6&R]:&@1-&!@[#6&!R])-&!@[#6&R]

$$$$
Q92769_Sries56686_idx-in-all-actives-167
     RDKit          2D

 32 34  0  0  0  0  0  0  0  0999 V2000
   -4.2606  -14.8714    0.0000 C   0  0  0  0  0  0  0  0  0  0  0  0
   -4.1038  -13.3796    0.0000 C   0  0  0  0  0  0  0  0  0  0  0  0
   -2.7335  -12.7695    0.0000 C   0  0  0  0  0  0  0  0  0  0  0  0
   -1.5200  -13.6512    0.0000 O   0  0  0  0  0  0  0  0  0  0  0  0
   -2.5767  -11.2778    0.0000 C   0  0  0  0  0  0  0  0  0  0  0  0
   -1.2064  -10.6676    0.0000 C   0  0  0  0  0  0  0  0  0  0  0  0
   -1.0496   -9.1759    0.0000 C   0  0  0  0  0  0  0  0  0  0  0  0
    0.3207   -8.5658    0.0000 C   0  0  0  0  0  0  0  0  0  0  0  0
    0.4775   -7.0740    0.0000 C   0  0  0  0  0  0  0  0  0  0  0  0
    1.8478   -6.4639    0.0000 C   0  0  0  0  0  0  0  0  0  0  0  0
    3.0613   -7.3456    0.0000 N   0  0  0  0  0  0  0  0  0  0  0  0
    2.9046   -8.8373    0.0000 C   0  0  0  0  0  0  0  0  0  0  0  0
    1.5342   -9.4474    0.0000 O   0  0  0  0  0  0  0  0  0  0  0  0
    4.1181   -9.7190    0.0000 C   0  0  0  0  0  0  0  0  0  0  0  0
    5.5447   -9.2555    0.0000 C   0  0  0  0  0  0  0  0  0  0  0  0
    6.4263  -10.4690    0.0000 C   0  0  0  0  0  0  0  0  0  0  0  0
    5.5447  -11.6825    0.0000 O   0  0  0  0  0  0  0  0  0  0  0  0
    4.1181  -11.2190    0.0000 N   0  0  0  0  0  0  0  0  0  0  0  0
    2.0046   -4.9721    0.0000 C   0  0  0  0  0  0  0  0  0  0  0  0
    0.8899   -3.9684    0.0000 N   0  0  0  0  0  0  0  0  0  0  0  0
    1.5000   -2.5981    0.0000 C   0  0  0  0  0  0  0  0  0  0  0  0
    0.7500   -1.2990    0.0000 C   0  0  0  0  0  0  0  0  0  0  0  0
    1.5000    0.0000    0.0000 C   0  0  0  0  0  0  0  0  0  0  0  0
    0.7500    1.2990    0.0000 C   0  0  0  0  0  0  0  0  0  0  0  0
   -0.7500    1.2990    0.0000 C   0  0  0  0  0  0  0  0  0  0  0  0
   -1.5000    2.5981    0.0000 F   0  0  0  0  0  0  0  0  0  0  0  0
   -1.5000    0.0000    0.0000 C   0  0  0  0  0  0  0  0  0  0  0  0
   -0.7500   -1.2990    0.0000 C   0  0  0  0  0  0  0  0  0  0  0  0
    2.9918   -2.7549    0.0000 N   0  0  0  0  0  0  0  0  0  0  0  0
    3.3037   -4.2221    0.0000 C   0  0  0  0  0  0  0  0  0  0  0  0
    4.6740   -4.8322    0.0000 C   0  0  0  0  0  0  0  0  0  0  0  0
    6.0443   -5.4423    0.0000 N   0  0  0  0  0  0  0  0  0  0  0  0
  1  2  1  0
  2  3  1  0
  3  4  2  0
  3  5  1  0
  5  6  1  0
  6  7  1  0
  7  8  1  0
  8  9  1  0
 10  9  1  1
 10 11  1  0
 11 12  1  0
 12 13  2  0
 12 14  1  0
 14 15  1  0
 15 16  2  0
 16 17  1  0
 17 18  1  0
 10 19  1  0
 19 20  1  0
 20 21  1  0
 21 22  1  0
 22 23  2  0
 23 24  1  0
 24 25  2  0
 25 26  1  0
 25 27  1  0
 27 28  2  0
 21 29  2  0
 29 30  1  0
 30 31  1  0
 31 32  3  0
 18 14  2  0
 30 19  2  0
 28 22  1  0
M  END
>  <Affinity>  (20) 
164.0

>  <Affinity Type>  (20) 
IC50

>  <Affinity Unit>  (20) 
nM

>  <Scaffold>  (20) 
[#6&!R]-&!@[#6&!R]-&!@[#6&!R](=&!@[#8&!R])-&!@[#6&!R]-&!@[#6&!R]-&!@[#6&!R]-&!@[#6&!R]-&!@[#6&!R]-&!@[#6&!R](-&!@[#7&!R]-&!@[#6&!R]=&!@[#8&!R])-&!@[#6&R]1:&@[#7&R]:&@[#6&R](:&@[#7&R]:&@[#6&R]:&@1-&!@[#6&!R])-&!@[#6&R]

$$$$
Q92769_Sries56686_idx-in-all-actives-161
     RDKit          2D

 37 40  0  0  0  0  0  0  0  0999 V2000
   14.7990   -8.5442    0.0000 C   0  0  0  0  0  0  0  0  0  0  0  0
   13.2990   -8.5442    0.0000 C   0  0  0  0  0  0  0  0  0  0  0  0
   12.5490   -7.2452    0.0000 C   0  0  0  0  0  0  0  0  0  0  0  0
   13.2990   -5.9462    0.0000 O   0  0  0  0  0  0  0  0  0  0  0  0
   11.0490   -7.2452    0.0000 C   0  0  0  0  0  0  0  0  0  0  0  0
   10.2990   -5.9462    0.0000 C   0  0  0  0  0  0  0  0  0  0  0  0
    8.7990   -5.9462    0.0000 C   0  0  0  0  0  0  0  0  0  0  0  0
    8.0490   -4.6471    0.0000 C   0  0  0  0  0  0  0  0  0  0  0  0
    6.5490   -4.6471    0.0000 C   0  0  0  0  0  0  0  0  0  0  0  0
    5.7990   -3.3481    0.0000 C   0  0  0  0  0  0  0  0  0  0  0  0
    4.2990   -3.3481    0.0000 N   0  0  0  0  0  0  0  0  0  0  0  0
    3.5490   -2.0490    0.0000 C   0  0  0  0  0  0  0  0  0  0  0  0
    4.2990   -0.7500    0.0000 O   0  0  0  0  0  0  0  0  0  0  0  0
    2.0490   -2.0490    0.0000 C   0  0  0  0  0  0  0  0  0  0  0  0
    0.7500   -2.7990    0.0000 C   0  0  0  0  0  0  0  0  0  0  0  0
    0.7500   -1.2990    0.0000 C   0  0  0  0  0  0  0  0  0  0  0  0
    1.5000    0.0000    0.0000 C   0  0  0  0  0  0  0  0  0  0  0  0
    0.7500    1.2990    0.0000 C   0  0  0  0  0  0  0  0  0  0  0  0
   -0.7500    1.2990    0.0000 N   0  0  0  0  0  0  0  0  0  0  0  0
   -1.5000    2.5981    0.0000 C   0  0  0  0  0  0  0  0  0  0  0  0
   -1.5000    0.0000    0.0000 C   0  0  0  0  0  0  0  0  0  0  0  0
   -0.7500   -1.2990    0.0000 C   0  0  0  0  0  0  0  0  0  0  0  0
    6.5490   -2.0490    0.0000 C   0  0  0  0  0  0  0  0  0  0  0  0
    5.9389   -0.6787    0.0000 N   0  0  0  0  0  0  0  0  0  0  0  0
    7.0537    0.3250    0.0000 C   0  0  0  0  0  0  0  0  0  0  0  0
    6.8969    1.8168    0.0000 C   0  0  0  0  0  0  0  0  0  0  0  0
    8.1104    2.6984    0.0000 C   0  0  0  0  0  0  0  0  0  0  0  0
    7.9536    4.1902    0.0000 C   0  0  0  0  0  0  0  0  0  0  0  0
    6.5833    4.8003    0.0000 C   0  0  0  0  0  0  0  0  0  0  0  0
    6.4265    6.2921    0.0000 F   0  0  0  0  0  0  0  0  0  0  0  0
    5.3697    3.9186    0.0000 C   0  0  0  0  0  0  0  0  0  0  0  0
    5.5265    2.4269    0.0000 C   0  0  0  0  0  0  0  0  0  0  0  0
    4.3130    1.5452    0.0000 F   0  0  0  0  0  0  0  0  0  0  0  0
    8.3527   -0.4250    0.0000 N   0  0  0  0  0  0  0  0  0  0  0  0
    8.0408   -1.8922    0.0000 C   0  0  0  0  0  0  0  0  0  0  0  0
    9.0445   -3.0070    0.0000 C   0  0  0  0  0  0  0  0  0  0  0  0
   10.0482   -4.1217    0.0000 N   0  0  0  0  0  0  0  0  0  0  0  0
  1  2  1  0
  2  3  1  0
  3  4  2  0
  3  5  1  0
  5  6  1  0
  6  7  1  0
  7  8  1  0
  8  9  1  0
 10  9  1  6
 10 11  1  0
 11 12  1  0
 12 13  2  0
 14 12  1  1
 14 15  1  0
 15 16  1  0
 16 17  1  0
 17 18  1  0
 18 19  1  0
 19 20  1  0
 19 21  1  0
 21 22  1  0
 10 23  1  0
 23 24  1  0
 24 25  1  0
 25 26  1  0
 26 27  2  0
 27 28  1  0
 28 29  2  0
 29 30  1  0
 29 31  1  0
 31 32  2  0
 32 33  1  0
 25 34  2  0
 34 35  1  0
 35 36  1  0
 36 37  3  0
 16 14  1  0
 35 23  2  0
 22 16  1  0
 32 26  1  0
M  END
>  <Affinity>  (21) 
155.0

>  <Affinity Type>  (21) 
IC50

>  <Affinity Unit>  (21) 
nM

>  <Scaffold>  (21) 
[#6&!R]-&!@[#6&!R]-&!@[#6&!R](=&!@[#8&!R])-&!@[#6&!R]-&!@[#6&!R]-&!@[#6&!R]-&!@[#6&!R]-&!@[#6&!R]-&!@[#6&!R](-&!@[#7&!R]-&!@[#6&!R]=&!@[#8&!R])-&!@[#6&R]1:&@[#7&R]:&@[#6&R](:&@[#7&R]:&@[#6&R]:&@1-&!@[#6&!R])-&!@[#6&R]

$$$$
Q92769_Sries56686_idx-in-all-actives-174
     RDKit          2D

 34 36  0  0  0  0  0  0  0  0999 V2000
   -7.5000  -10.3923    0.0000 C   0  0  0  0  0  0  0  0  0  0  0  0
   -6.0000  -10.3923    0.0000 C   0  0  0  0  0  0  0  0  0  0  0  0
   -5.2500   -9.0933    0.0000 C   0  0  0  0  0  0  0  0  0  0  0  0
   -6.0000   -7.7942    0.0000 O   0  0  0  0  0  0  0  0  0  0  0  0
   -3.7500   -9.0933    0.0000 C   0  0  0  0  0  0  0  0  0  0  0  0
   -3.0000   -7.7942    0.0000 C   0  0  0  0  0  0  0  0  0  0  0  0
   -1.5000   -7.7942    0.0000 C   0  0  0  0  0  0  0  0  0  0  0  0
   -0.7500   -6.4952    0.0000 C   0  0  0  0  0  0  0  0  0  0  0  0
    0.7500   -6.4952    0.0000 C   0  0  0  0  0  0  0  0  0  0  0  0
    1.5000   -5.1962    0.0000 C   0  0  0  0  0  0  0  0  0  0  0  0
    0.7500   -3.8971    0.0000 N   0  0  0  0  0  0  0  0  0  0  0  0
    1.5000   -2.5981    0.0000 C   0  0  0  0  0  0  0  0  0  0  0  0
    3.0000   -2.5981    0.0000 O   0  0  0  0  0  0  0  0  0  0  0  0
    0.7500   -1.2990    0.0000 C   0  0  0  0  0  0  0  0  0  0  0  0
    1.5000    0.0000    0.0000 C   0  0  0  0  0  0  0  0  0  0  0  0
    0.7500    1.2990    0.0000 C   0  0  0  0  0  0  0  0  0  0  0  0
   -0.7500    1.2990    0.0000 O   0  0  0  0  0  0  0  0  0  0  0  0
   -1.5000    0.0000    0.0000 C   0  0  0  0  0  0  0  0  0  0  0  0
   -0.7500   -1.2990    0.0000 C   0  0  0  0  0  0  0  0  0  0  0  0
    3.0000   -5.1962    0.0000 C   0  0  0  0  0  0  0  0  0  0  0  0
    3.8817   -3.9826    0.0000 N   0  0  0  0  0  0  0  0  0  0  0  0
    5.3083   -4.4462    0.0000 C   0  0  0  0  0  0  0  0  0  0  0  0
    6.5218   -3.5645    0.0000 C   0  0  0  0  0  0  0  0  0  0  0  0
    7.8921   -4.1746    0.0000 C   0  0  0  0  0  0  0  0  0  0  0  0
    9.1056   -3.2929    0.0000 C   0  0  0  0  0  0  0  0  0  0  0  0
    8.9488   -1.8011    0.0000 C   0  0  0  0  0  0  0  0  0  0  0  0
   10.1624   -0.9194    0.0000 F   0  0  0  0  0  0  0  0  0  0  0  0
    7.5785   -1.1910    0.0000 C   0  0  0  0  0  0  0  0  0  0  0  0
    6.3650   -2.0727    0.0000 C   0  0  0  0  0  0  0  0  0  0  0  0
    5.3083   -5.9462    0.0000 N   0  0  0  0  0  0  0  0  0  0  0  0
    3.8817   -6.4097    0.0000 C   0  0  0  0  0  0  0  0  0  0  0  0
    3.4182   -7.8363    0.0000 C   0  0  0  0  0  0  0  0  0  0  0  0
    1.9509   -8.1481    0.0000 N   0  0  0  0  0  0  0  0  0  0  0  0
    4.4218   -8.9510    0.0000 O   0  0  0  0  0  0  0  0  0  0  0  0
  1  2  1  0
  2  3  1  0
  3  4  2  0
  3  5  1  0
  5  6  1  0
  6  7  1  0
  7  8  1  0
  8  9  1  0
 10  9  1  6
 10 11  1  0
 11 12  1  0
 12 13  2  0
 12 14  1  0
 14 15  1  0
 15 16  1  0
 16 17  1  0
 17 18  1  0
 18 19  1  0
 10 20  1  0
 20 21  1  0
 21 22  1  0
 22 23  1  0
 23 24  2  0
 24 25  1  0
 25 26  2  0
 26 27  1  0
 26 28  1  0
 28 29  2  0
 22 30  2  0
 30 31  1  0
 31 32  1  0
 32 33  1  0
 32 34  2  0
 19 14  1  0
 31 20  2  0
 29 23  1  0
M  END
>  <Affinity>  (22) 
73.8

>  <Affinity Type>  (22) 
IC50

>  <Affinity Unit>  (22) 
nM

>  <Scaffold>  (22) 
[#6&!R]-&!@[#6&!R]-&!@[#6&!R](=&!@[#8&!R])-&!@[#6&!R]-&!@[#6&!R]-&!@[#6&!R]-&!@[#6&!R]-&!@[#6&!R]-&!@[#6&!R](-&!@[#7&!R]-&!@[#6&!R]=&!@[#8&!R])-&!@[#6&R]1:&@[#7&R]:&@[#6&R](:&@[#7&R]:&@[#6&R]:&@1-&!@[#6&!R])-&!@[#6&R]

$$$$
Q92769_Sries56686_idx-in-all-actives-158
     RDKit          2D

 41 45  0  0  0  0  0  0  0  0999 V2000
   14.7990   -8.5442    0.0000 C   0  0  0  0  0  0  0  0  0  0  0  0
   13.2990   -8.5442    0.0000 C   0  0  0  0  0  0  0  0  0  0  0  0
   12.5490   -7.2452    0.0000 C   0  0  0  0  0  0  0  0  0  0  0  0
   13.2990   -5.9462    0.0000 O   0  0  0  0  0  0  0  0  0  0  0  0
   11.0490   -7.2452    0.0000 C   0  0  0  0  0  0  0  0  0  0  0  0
   10.2990   -5.9462    0.0000 C   0  0  0  0  0  0  0  0  0  0  0  0
    8.7990   -5.9462    0.0000 C   0  0  0  0  0  0  0  0  0  0  0  0
    8.0490   -4.6471    0.0000 C   0  0  0  0  0  0  0  0  0  0  0  0
    6.5490   -4.6471    0.0000 C   0  0  0  0  0  0  0  0  0  0  0  0
    5.7990   -3.3481    0.0000 C   0  0  0  0  0  0  0  0  0  0  0  0
    4.2990   -3.3481    0.0000 N   0  0  0  0  0  0  0  0  0  0  0  0
    3.5490   -2.0490    0.0000 C   0  0  0  0  0  0  0  0  0  0  0  0
    4.2990   -0.7500    0.0000 O   0  0  0  0  0  0  0  0  0  0  0  0
    2.0490   -2.0490    0.0000 C   0  0  0  0  0  0  0  0  0  0  0  0
    0.7500   -2.7990    0.0000 C   0  0  0  0  0  0  0  0  0  0  0  0
    0.7500   -1.2990    0.0000 C   0  0  0  0  0  0  0  0  0  0  0  0
    1.5000    0.0000    0.0000 C   0  0  0  0  0  0  0  0  0  0  0  0
    0.7500    1.2990    0.0000 C   0  0  0  0  0  0  0  0  0  0  0  0
   -0.7500    1.2990    0.0000 N   0  0  0  0  0  0  0  0  0  0  0  0
   -1.5000    2.5981    0.0000 C   0  0  0  0  0  0  0  0  0  0  0  0
   -1.5000    0.0000    0.0000 C   0  0  0  0  0  0  0  0  0  0  0  0
   -0.7500   -1.2990    0.0000 C   0  0  0  0  0  0  0  0  0  0  0  0
    6.5490   -2.0490    0.0000 C   0  0  0  0  0  0  0  0  0  0  0  0
    5.9389   -0.6787    0.0000 N   0  0  0  0  0  0  0  0  0  0  0  0
    7.0537    0.3250    0.0000 C   0  0  0  0  0  0  0  0  0  0  0  0
    6.8969    1.8168    0.0000 C   0  0  0  0  0  0  0  0  0  0  0  0
    8.1104    2.6984    0.0000 C   0  0  0  0  0  0  0  0  0  0  0  0
    7.9536    4.1902    0.0000 C   0  0  0  0  0  0  0  0  0  0  0  0
    6.5833    4.8003    0.0000 C   0  0  0  0  0  0  0  0  0  0  0  0
    6.4265    6.2921    0.0000 C   0  0  0  0  0  0  0  0  0  0  0  0
    7.6400    7.1738    0.0000 C   0  0  0  0  0  0  0  0  0  0  0  0
    7.4832    8.6656    0.0000 C   0  0  0  0  0  0  0  0  0  0  0  0
    6.1129    9.2757    0.0000 C   0  0  0  0  0  0  0  0  0  0  0  0
    4.8994    8.3940    0.0000 N   0  0  0  0  0  0  0  0  0  0  0  0
    5.0562    6.9022    0.0000 C   0  0  0  0  0  0  0  0  0  0  0  0
    5.3697    3.9186    0.0000 C   0  0  0  0  0  0  0  0  0  0  0  0
    5.5265    2.4269    0.0000 C   0  0  0  0  0  0  0  0  0  0  0  0
    8.3527   -0.4250    0.0000 N   0  0  0  0  0  0  0  0  0  0  0  0
    8.0408   -1.8922    0.0000 C   0  0  0  0  0  0  0  0  0  0  0  0
    9.0445   -3.0070    0.0000 C   0  0  0  0  0  0  0  0  0  0  0  0
   10.0482   -4.1217    0.0000 N   0  0  0  0  0  0  0  0  0  0  0  0
  1  2  1  0
  2  3  1  0
  3  4  2  0
  3  5  1  0
  5  6  1  0
  6  7  1  0
  7  8  1  0
  8  9  1  0
 10  9  1  6
 10 11  1  0
 11 12  1  0
 12 13  2  0
 14 12  1  1
 14 15  1  0
 15 16  1  0
 16 17  1  0
 17 18  1  0
 18 19  1  0
 19 20  1  0
 19 21  1  0
 21 22  1  0
 10 23  1  0
 23 24  1  0
 24 25  1  0
 25 26  1  0
 26 27  2  0
 27 28  1  0
 28 29  2  0
 29 30  1  0
 30 31  2  0
 31 32  1  0
 32 33  2  0
 33 34  1  0
 34 35  2  0
 29 36  1  0
 36 37  2  0
 25 38  2  0
 38 39  1  0
 39 40  1  0
 40 41  3  0
 16 14  1  0
 39 23  2  0
 22 16  1  0
 37 26  1  0
 35 30  1  0
M  END
>  <Affinity>  (23) 
1.7

>  <Affinity Type>  (23) 
IC50

>  <Affinity Unit>  (23) 
nM

>  <Scaffold>  (23) 
[#6&!R]-&!@[#6&!R]-&!@[#6&!R](=&!@[#8&!R])-&!@[#6&!R]-&!@[#6&!R]-&!@[#6&!R]-&!@[#6&!R]-&!@[#6&!R]-&!@[#6&!R](-&!@[#7&!R]-&!@[#6&!R]=&!@[#8&!R])-&!@[#6&R]1:&@[#7&R]:&@[#6&R](:&@[#7&R]:&@[#6&R]:&@1-&!@[#6&!R])-&!@[#6&R]

$$$$
Q92769_Sries56686_idx-in-all-actives-168
     RDKit          2D

 32 34  0  0  0  0  0  0  0  0999 V2000
   -4.2606  -14.8714    0.0000 C   0  0  0  0  0  0  0  0  0  0  0  0
   -4.1038  -13.3796    0.0000 C   0  0  0  0  0  0  0  0  0  0  0  0
   -2.7335  -12.7695    0.0000 C   0  0  0  0  0  0  0  0  0  0  0  0
   -1.5200  -13.6512    0.0000 O   0  0  0  0  0  0  0  0  0  0  0  0
   -2.5767  -11.2778    0.0000 C   0  0  0  0  0  0  0  0  0  0  0  0
   -1.2064  -10.6676    0.0000 C   0  0  0  0  0  0  0  0  0  0  0  0
   -1.0496   -9.1759    0.0000 C   0  0  0  0  0  0  0  0  0  0  0  0
    0.3207   -8.5658    0.0000 C   0  0  0  0  0  0  0  0  0  0  0  0
    0.4775   -7.0740    0.0000 C   0  0  0  0  0  0  0  0  0  0  0  0
    1.8478   -6.4639    0.0000 C   0  0  0  0  0  0  0  0  0  0  0  0
    3.0613   -7.3456    0.0000 N   0  0  0  0  0  0  0  0  0  0  0  0
    2.9046   -8.8373    0.0000 C   0  0  0  0  0  0  0  0  0  0  0  0
    1.5342   -9.4474    0.0000 O   0  0  0  0  0  0  0  0  0  0  0  0
    4.1181   -9.7190    0.0000 C   0  0  0  0  0  0  0  0  0  0  0  0
    5.5447   -9.2555    0.0000 C   0  0  0  0  0  0  0  0  0  0  0  0
    6.4263  -10.4690    0.0000 N   0  0  0  0  0  0  0  0  0  0  0  0
    5.5447  -11.6825    0.0000 C   0  0  0  0  0  0  0  0  0  0  0  0
    4.1181  -11.2190    0.0000 S   0  0  0  0  0  0  0  0  0  0  0  0
    2.0046   -4.9721    0.0000 C   0  0  0  0  0  0  0  0  0  0  0  0
    0.8899   -3.9684    0.0000 N   0  0  0  0  0  0  0  0  0  0  0  0
    1.5000   -2.5981    0.0000 C   0  0  0  0  0  0  0  0  0  0  0  0
    0.7500   -1.2990    0.0000 C   0  0  0  0  0  0  0  0  0  0  0  0
    1.5000    0.0000    0.0000 C   0  0  0  0  0  0  0  0  0  0  0  0
    0.7500    1.2990    0.0000 C   0  0  0  0  0  0  0  0  0  0  0  0
   -0.7500    1.2990    0.0000 C   0  0  0  0  0  0  0  0  0  0  0  0
   -1.5000    2.5981    0.0000 F   0  0  0  0  0  0  0  0  0  0  0  0
   -1.5000    0.0000    0.0000 C   0  0  0  0  0  0  0  0  0  0  0  0
   -0.7500   -1.2990    0.0000 C   0  0  0  0  0  0  0  0  0  0  0  0
    2.9918   -2.7549    0.0000 N   0  0  0  0  0  0  0  0  0  0  0  0
    3.3037   -4.2221    0.0000 C   0  0  0  0  0  0  0  0  0  0  0  0
    4.6740   -4.8322    0.0000 C   0  0  0  0  0  0  0  0  0  0  0  0
    6.0443   -5.4423    0.0000 N   0  0  0  0  0  0  0  0  0  0  0  0
  1  2  1  0
  2  3  1  0
  3  4  2  0
  3  5  1  0
  5  6  1  0
  6  7  1  0
  7  8  1  0
  8  9  1  0
 10  9  1  1
 10 11  1  0
 11 12  1  0
 12 13  2  0
 12 14  1  0
 14 15  2  0
 15 16  1  0
 16 17  2  0
 17 18  1  0
 10 19  1  0
 19 20  1  0
 20 21  1  0
 21 22  1  0
 22 23  2  0
 23 24  1  0
 24 25  2  0
 25 26  1  0
 25 27  1  0
 27 28  2  0
 21 29  2  0
 29 30  1  0
 30 31  1  0
 31 32  3  0
 18 14  1  0
 30 19  2  0
 28 22  1  0
M  END
>  <Affinity>  (24) 
51.3

>  <Affinity Type>  (24) 
IC50

>  <Affinity Unit>  (24) 
nM

>  <Scaffold>  (24) 
[#6&!R]-&!@[#6&!R]-&!@[#6&!R](=&!@[#8&!R])-&!@[#6&!R]-&!@[#6&!R]-&!@[#6&!R]-&!@[#6&!R]-&!@[#6&!R]-&!@[#6&!R](-&!@[#7&!R]-&!@[#6&!R]=&!@[#8&!R])-&!@[#6&R]1:&@[#7&R]:&@[#6&R](:&@[#7&R]:&@[#6&R]:&@1-&!@[#6&!R])-&!@[#6&R]

$$$$
