Q92769_Sries56300_idx-in-all-actives-112
     RDKit          3D

 80 84  0  0  0  0  0  0  0  0999 V2000
   18.7417  -20.1605    1.2382 C   0  0  0  0  0  0  0  0  0  0  0  0
   20.2639  -20.0430    1.0337 C   0  0  0  0  0  0  0  0  0  0  0  0
   20.6963  -19.3130   -0.2425 C   0  0  0  0  0  0  0  0  0  0  0  0
   19.8873  -18.7763   -0.9976 O   0  0  0  0  0  0  0  0  0  0  0  0
   22.1803  -19.3128   -0.5971 C   0  0  0  0  0  0  0  0  0  0  0  0
   22.9380  -18.0012   -0.3066 C   0  0  0  0  0  0  0  0  0  0  0  0
   24.4280  -18.3027   -0.0498 C   0  0  0  0  0  0  0  0  0  0  0  0
   25.4035  -17.1605   -0.3707 C   0  0  0  0  0  0  0  0  0  0  0  0
   26.8614  -17.5743   -0.0717 C   0  0  0  0  0  0  0  0  0  0  0  0
   27.9302  -16.5305   -0.4615 C   0  0  2  0  0  0  0  0  0  0  0  0
   29.2646  -17.0810   -0.1983 N   0  0  0  0  0  0  0  0  0  0  0  0
   30.3951  -16.6022   -0.7350 C   0  0  0  0  0  0  0  0  0  0  0  0
   30.4026  -15.7392   -1.6169 O   0  0  0  0  0  0  0  0  0  0  0  0
   31.6977  -17.1407   -0.1181 C   0  0  1  0  0  0  0  0  0  0  0  0
   32.9897  -16.4937   -0.6126 C   0  0  0  0  0  0  0  0  0  0  0  0
   32.5073  -16.2058    0.7881 C   0  0  1  0  0  0  0  0  0  0  0  0
   31.9269  -14.8173    1.1775 C   0  0  0  0  0  0  0  0  0  0  0  0
   32.9767  -13.8957    1.8247 C   0  0  0  0  0  0  0  0  0  0  0  0
   33.6529  -14.6358    3.0020 N   0  0  2  0  0  0  0  0  0  0  0  0
   34.6768  -13.7195    3.7049 C   0  0  0  0  0  0  0  0  0  0  0  0
   34.3246  -15.9490    2.5414 C   0  0  0  0  0  0  0  0  0  0  0  0
   33.2372  -16.8736    1.9668 C   0  0  0  0  0  0  0  0  0  0  0  0
   27.7469  -15.2239    0.3076 C   0  0  0  0  0  0  0  0  0  0  0  0
   27.0810  -14.1297   -0.1592 N   0  0  0  0  0  0  0  0  0  0  0  0
   27.0886  -13.1655    0.7584 N   0  0  0  0  0  0  0  0  0  0  0  0
   27.7919  -13.7111    1.7348 C   0  0  0  0  0  0  0  0  0  0  0  0
   28.1018  -13.0084    3.0369 C   0  0  0  0  0  0  0  0  0  0  0  0
   28.6540  -13.7591    4.0864 C   0  0  0  0  0  0  0  0  0  0  0  0
   28.9410  -13.1528    5.3306 C   0  0  0  0  0  0  0  0  0  0  0  0
   29.4872  -13.8659    6.4226 C   0  0  0  0  0  0  0  0  0  0  0  0
   29.7326  -13.2193    7.6309 C   0  0  0  0  0  0  0  0  0  0  0  0
   29.4441  -11.8660    7.7811 C   0  0  0  0  0  0  0  0  0  0  0  0
   28.9208  -11.1335    6.7156 C   0  0  0  0  0  0  0  0  0  0  0  0
   28.6627  -11.7644    5.4749 C   0  0  0  0  0  0  0  0  0  0  0  0
   28.1485  -11.0287    4.4549 N   0  0  0  0  0  0  0  0  0  0  0  0
   27.8726  -11.6374    3.2666 C   0  0  0  0  0  0  0  0  0  0  0  0
   27.3316  -10.8546    2.2582 O   0  0  0  0  0  0  0  0  0  0  0  0
   27.0842   -9.4685    2.4810 C   0  0  0  0  0  0  0  0  0  0  0  0
   28.2057  -14.9511    1.5017 N   0  0  0  0  0  0  0  0  0  0  0  0
   18.5232  -20.7692    2.1157 H   0  0  0  0  0  0  0  0  0  0  0  0
   18.2879  -19.1845    1.4016 H   0  0  0  0  0  0  0  0  0  0  0  0
   18.2486  -20.6273    0.3855 H   0  0  0  0  0  0  0  0  0  0  0  0
   20.6873  -21.0464    1.0040 H   0  0  0  0  0  0  0  0  0  0  0  0
   20.6923  -19.5275    1.8941 H   0  0  0  0  0  0  0  0  0  0  0  0
   22.3038  -19.5906   -1.6427 H   0  0  0  0  0  0  0  0  0  0  0  0
   22.6426  -20.1127   -0.0279 H   0  0  0  0  0  0  0  0  0  0  0  0
   22.5283  -17.4760    0.5590 H   0  0  0  0  0  0  0  0  0  0  0  0
   22.8296  -17.3302   -1.1602 H   0  0  0  0  0  0  0  0  0  0  0  0
   24.7326  -19.1778   -0.6306 H   0  0  0  0  0  0  0  0  0  0  0  0
   24.5416  -18.5830    1.0001 H   0  0  0  0  0  0  0  0  0  0  0  0
   25.1296  -16.2723    0.2018 H   0  0  0  0  0  0  0  0  0  0  0  0
   25.3091  -16.8886   -1.4237 H   0  0  0  0  0  0  0  0  0  0  0  0
   27.0766  -18.5087   -0.5970 H   0  0  0  0  0  0  0  0  0  0  0  0
   26.9629  -17.8118    0.9892 H   0  0  0  0  0  0  0  0  0  0  0  0
   27.8508  -16.3418   -1.5357 H   0  0  0  0  0  0  0  0  0  0  0  0
   29.3814  -17.5904    0.6759 H   0  0  0  0  0  0  0  0  0  0  0  0
   31.6812  -18.2078    0.1082 H   0  0  0  0  0  0  0  0  0  0  0  0
   32.9597  -15.6901   -1.3500 H   0  0  0  0  0  0  0  0  0  0  0  0
   33.8665  -17.1270   -0.7526 H   0  0  0  0  0  0  0  0  0  0  0  0
   31.0972  -14.9646    1.8734 H   0  0  0  0  0  0  0  0  0  0  0  0
   31.5043  -14.3035    0.3129 H   0  0  0  0  0  0  0  0  0  0  0  0
   32.5191  -12.9927    2.2319 H   0  0  0  0  0  0  0  0  0  0  0  0
   33.7663  -13.6168    1.1227 H   0  0  0  0  0  0  0  0  0  0  0  0
   35.4479  -13.4393    2.9884 H   0  0  0  0  0  0  0  0  0  0  0  0
   34.1293  -12.8523    4.0729 H   0  0  0  0  0  0  0  0  0  0  0  0
   35.0907  -14.2781    4.5457 H   0  0  0  0  0  0  0  0  0  0  0  0
   34.8318  -16.3854    3.4020 H   0  0  0  0  0  0  0  0  0  0  0  0
   35.0726  -15.6846    1.7910 H   0  0  0  0  0  0  0  0  0  0  0  0
   33.6831  -17.8233    1.6667 H   0  0  0  0  0  0  0  0  0  0  0  0
   32.5092  -17.1237    2.7408 H   0  0  0  0  0  0  0  0  0  0  0  0
   28.8675  -14.8146    3.9715 H   0  0  0  0  0  0  0  0  0  0  0  0
   29.7273  -14.9127    6.3085 H   0  0  0  0  0  0  0  0  0  0  0  0
   30.1563  -13.7743    8.4544 H   0  0  0  0  0  0  0  0  0  0  0  0
   29.6362  -11.3789    8.7249 H   0  0  0  0  0  0  0  0  0  0  0  0
   28.6935  -10.0835    6.8321 H   0  0  0  0  0  0  0  0  0  0  0  0
   26.6593   -9.0299    1.5773 H   0  0  0  0  0  0  0  0  0  0  0  0
   26.3696   -9.3168    3.2922 H   0  0  0  0  0  0  0  0  0  0  0  0
   28.0051   -8.9311    2.7101 H   0  0  0  0  0  0  0  0  0  0  0  0
   32.9398  -14.8694    3.6912 H   0  0  0  0  0  0  0  0  0  0  0  0
   26.6297  -14.0406   -1.0575 H   0  0  0  0  0  0  0  0  0  0  0  0
  1  2  1  0
  1 40  1  0
  1 41  1  0
  1 42  1  0
  2  3  1  0
  2 43  1  0
  2 44  1  0
  3  4  2  0
  3  5  1  0
  5  6  1  0
  5 45  1  0
  5 46  1  0
  6  7  1  0
  6 47  1  0
  6 48  1  0
  7  8  1  0
  7 49  1  0
  7 50  1  0
  8  9  1  0
  8 51  1  0
  8 52  1  0
  9 10  1  0
  9 53  1  0
  9 54  1  0
 10 11  1  0
 10 55  1  6
 10 23  1  0
 11 12  1  0
 11 56  1  0
 12 13  2  0
 12 14  1  0
 14 15  1  0
 16 14  1  0
 14 57  1  1
 16 15  1  6
 15 58  1  0
 15 59  1  0
 16 17  1  0
 16 22  1  0
 17 18  1  0
 17 60  1  0
 17 61  1  0
 18 19  1  0
 18 62  1  0
 18 63  1  0
 19 20  1  0
 19 21  1  0
 19 79  1  1
 20 64  1  0
 20 65  1  0
 20 66  1  0
 21 22  1  0
 21 67  1  0
 21 68  1  0
 22 69  1  0
 22 70  1  0
 23 24  1  0
 23 39  2  0
 24 25  1  0
 24 80  1  0
 25 26  2  0
 26 39  1  0
 26 27  1  0
 27 28  2  0
 27 36  1  0
 28 29  1  0
 28 71  1  0
 29 30  2  0
 29 34  1  0
 30 31  1  0
 30 72  1  0
 31 32  2  0
 31 73  1  0
 32 33  1  0
 32 74  1  0
 33 34  2  0
 33 75  1  0
 34 35  1  0
 35 36  2  0
 36 37  1  0
 37 38  1  0
 38 76  1  0
 38 77  1  0
 38 78  1  0
M  CHG  1  19   1
M  END
>  <s_epik_cmdline>  (1) 
J2VwaWtfcHl0aG9uJywgJy1waHQnLCAnMi4wJywgJy1waCcsICc3LjAnLCAnLXRuJywgJzgnLCAnLW1hJywgJzUwMCcsICctaW1hZScsICc8aW5maWxlLm1hZT4nLCAnLW9tYWUnLCAnPG91dGZpbGUubWFlPic=

>  <s_epik_input>  (1) 
W0NIMl0xW0NIMl1OKFtDSDNdKVtDSDJdW0NIMl1DMTJbQ0BIXShbQ0gyXTIpQyg9TylbTkhdW0NAQEhdKFtDSDJdW0NIMl1bQ0gyXVtDSDJdW0NIMl1DKD1PKVtDSDJdW0NIM10pYzNubmMoW25IXTMpLWMoW2NIXTQpYyhPW0NIM10pbmMoYzQ1KVtjSF1bY0hdW2NIXVtjSF01

>  <s_i_glide_gridfile>  (1) 
Q92769_Sries18355_Sries63329_grid

>  <s_lp_Force_Field>  (1) 
S-OPLS

>  <s_lp_Variant>  (1) 
Q92769_Sries56300_idx-in-all-actives-112-1

>  <s_m_source_file>  (1) 
/home/fanzhehuan/myprojects/selfGenBench/Smiles_min_50_max_inf_Scaffold_50_Serise_20_pocket/Q92769/Q92769_all_active_molecules_new_20241120.sdf

>  <s_sd_Affinity_Type>  (1) 
IC50

>  <s_sd_Affinity_Unit>  (1) 
nM

>  <r_epik_Charging_Adjusted_Penalty>  (1) 
0.16039800000000001

>  <r_epik_Ionization_Penalty>  (1) 
0.0018

>  <r_epik_Ionization_Penalty_Charging>  (1) 
0.0011999999999999999

>  <r_epik_Ionization_Penalty_Neutral>  (1) 
0.00059999999999999995

>  <r_epik_State_Penalty>  (1) 
0.15920000000000001

>  <r_glide_res:A100_Eint>  (1) 
-0.54014877507332504

>  <r_glide_res:A100_coul>  (1) 
-0.44153444559091898

>  <r_glide_res:A100_dist>  (1) 
6.2978472442318703

>  <r_glide_res:A100_hbond>  (1) 
0

>  <r_glide_res:A100_vdw>  (1) 
-0.098614329482405602

>  <r_glide_res:A101_Eint>  (1) 
0.090694623798312904

>  <r_glide_res:A101_coul>  (1) 
0.134571833972356

>  <r_glide_res:A101_dist>  (1) 
8.9151000430014005

>  <r_glide_res:A101_hbond>  (1) 
0

>  <r_glide_res:A101_vdw>  (1) 
-0.043877210174042697

>  <r_glide_res:A102_Eint>  (1) 
-0.11299549270894001

>  <r_glide_res:A102_coul>  (1) 
0.0121329016256774

>  <r_glide_res:A102_dist>  (1) 
5.6540842319893097

>  <r_glide_res:A102_hbond>  (1) 
0

>  <r_glide_res:A102_vdw>  (1) 
-0.125128394334617

>  <r_glide_res:A103_Eint>  (1) 
-40.957186208859397

>  <r_glide_res:A103_coul>  (1) 
-36.428428944113001

>  <r_glide_res:A103_dist>  (1) 
1.9948653435567101

>  <r_glide_res:A103_hbond>  (1) 
-0.16032641719188001

>  <r_glide_res:A103_vdw>  (1) 
-4.3684308475545102

>  <r_glide_res:A104_Eint>  (1) 
-43.097765528768797

>  <r_glide_res:A104_coul>  (1) 
-36.3577471730394

>  <r_glide_res:A104_dist>  (1) 
2.0617201614348599

>  <r_glide_res:A104_hbond>  (1) 
-0.178292035079471

>  <r_glide_res:A104_vdw>  (1) 
-6.5617263206499201

>  <r_glide_res:A105_Eint>  (1) 
-0.46616987309268898

>  <r_glide_res:A105_coul>  (1) 
-0.19943803434909099

>  <r_glide_res:A105_dist>  (1) 
5.5677536511971004

>  <r_glide_res:A105_hbond>  (1) 
0

>  <r_glide_res:A105_vdw>  (1) 
-0.26673183874359802

>  <r_glide_res:A106_Eint>  (1) 
0.19302152917395299

>  <r_glide_res:A106_coul>  (1) 
0.50651149792463102

>  <r_glide_res:A106_dist>  (1) 
4.5245300932018697

>  <r_glide_res:A106_hbond>  (1) 
0

>  <r_glide_res:A106_vdw>  (1) 
-0.31348996875067803

>  <r_glide_res:A108_Eint>  (1) 
0.027159462545322099

>  <r_glide_res:A108_coul>  (1) 
0.059582360318712599

>  <r_glide_res:A108_dist>  (1) 
8.8447024243740007

>  <r_glide_res:A108_hbond>  (1) 
0

>  <r_glide_res:A108_vdw>  (1) 
-0.032422897773390497

>  <r_glide_res:A144_Eint>  (1) 
-0.61978589094003

>  <r_glide_res:A144_coul>  (1) 
0.27100510396850003

>  <r_glide_res:A144_dist>  (1) 
2.4231145217365802

>  <r_glide_res:A144_hbond>  (1) 
0

>  <r_glide_res:A144_vdw>  (1) 
-0.89079099490852998

>  <r_glide_res:A145_Eint>  (1) 
-1.5233201967493699

>  <r_glide_res:A145_coul>  (1) 
-0.044440346845675799

>  <r_glide_res:A145_dist>  (1) 
2.9949262793565099

>  <r_glide_res:A145_hbond>  (1) 
0

>  <r_glide_res:A145_vdw>  (1) 
-1.4788798499036999

>  <r_glide_res:A146_Eint>  (1) 
0.067614745429776205

>  <r_glide_res:A146_coul>  (1) 
-0.39067550748066399

>  <r_glide_res:A146_dist>  (1) 
1.8318998886540001

>  <r_glide_res:A146_hbond>  (1) 
0

>  <r_glide_res:A146_vdw>  (1) 
0.45829025291044001

>  <r_glide_res:A147_Eint>  (1) 
0.130955720009855

>  <r_glide_res:A147_coul>  (1) 
0.17003815245433099

>  <r_glide_res:A147_dist>  (1) 
6.2311245287169701

>  <r_glide_res:A147_hbond>  (1) 
0

>  <r_glide_res:A147_vdw>  (1) 
-0.039082432444475998

>  <r_glide_res:A148_Eint>  (1) 
10.380877320397801

>  <r_glide_res:A148_coul>  (1) 
10.4050435835839

>  <r_glide_res:A148_dist>  (1) 
8.4912480491718494

>  <r_glide_res:A148_hbond>  (1) 
0

>  <r_glide_res:A148_vdw>  (1) 
-0.024166263186123301

>  <r_glide_res:A152_Eint>  (1) 
-0.224453989659092

>  <r_glide_res:A152_coul>  (1) 
-0.182246969631015

>  <r_glide_res:A152_dist>  (1) 
8.7323802165415607

>  <r_glide_res:A152_hbond>  (1) 
0

>  <r_glide_res:A152_vdw>  (1) 
-0.042207020028075998

>  <r_glide_res:A153_Eint>  (1) 
-0.0072354571288425996

>  <r_glide_res:A153_coul>  (1) 
0.28249802959199499

>  <r_glide_res:A153_dist>  (1) 
4.9912964327275198

>  <r_glide_res:A153_hbond>  (1) 
0

>  <r_glide_res:A153_vdw>  (1) 
-0.28973348672083798

>  <r_glide_res:A154_Eint>  (1) 
-0.53092957924103001

>  <r_glide_res:A154_coul>  (1) 
0.35384017894155501

>  <r_glide_res:A154_dist>  (1) 
2.1598289692195198

>  <r_glide_res:A154_hbond>  (1) 
0

>  <r_glide_res:A154_vdw>  (1) 
-0.88476975818258496

>  <r_glide_res:A155_Eint>  (1) 
-6.7902320658906001

>  <r_glide_res:A155_coul>  (1) 
0.13748777609482199

>  <r_glide_res:A155_dist>  (1) 
2.36615837993175

>  <r_glide_res:A155_hbond>  (1) 
0

>  <r_glide_res:A155_vdw>  (1) 
-6.9277198419854198

>  <r_glide_res:A156_Eint>  (1) 
-1.3728274303575301

>  <r_glide_res:A156_coul>  (1) 
-0.33310364937717302

>  <r_glide_res:A156_dist>  (1) 
2.34474320905756

>  <r_glide_res:A156_hbond>  (1) 
0

>  <r_glide_res:A156_vdw>  (1) 
-1.0397237809803499

>  <r_glide_res:A157_Eint>  (1) 
-0.33418338163696798

>  <r_glide_res:A157_coul>  (1) 
-0.25525665852971002

>  <r_glide_res:A157_dist>  (1) 
7.3023073532982403

>  <r_glide_res:A157_hbond>  (1) 
0

>  <r_glide_res:A157_vdw>  (1) 
-0.078926723107257304

>  <r_glide_res:A181_Eint>  (1) 
-4.5278432956579699

>  <r_glide_res:A181_coul>  (1) 
-3.41748830627574

>  <r_glide_res:A181_dist>  (1) 
3.6368350285930902

>  <r_glide_res:A181_hbond>  (1) 
0

>  <r_glide_res:A181_vdw>  (1) 
-1.11035498938223

>  <r_glide_res:A182_Eint>  (1) 
-0.33360218782935602

>  <r_glide_res:A182_coul>  (1) 
-0.16057698083313801

>  <r_glide_res:A182_dist>  (1) 
5.1730984292370401

>  <r_glide_res:A182_hbond>  (1) 
0

>  <r_glide_res:A182_vdw>  (1) 
-0.17302520699621801

>  <r_glide_res:A183_Eint>  (1) 
-0.306593628092313

>  <r_glide_res:A183_coul>  (1) 
2.31659238569992

>  <r_glide_res:A183_dist>  (1) 
2.9676744935616801

>  <r_glide_res:A183_hbond>  (1) 
0

>  <r_glide_res:A183_vdw>  (1) 
-2.62318601379223

>  <r_glide_res:A184_Eint>  (1) 
7.1030126313469797

>  <r_glide_res:A184_coul>  (1) 
7.19700210730183

>  <r_glide_res:A184_dist>  (1) 
6.1895006273250797

>  <r_glide_res:A184_hbond>  (1) 
0

>  <r_glide_res:A184_vdw>  (1) 
-0.0939894759548459

>  <r_glide_res:A186_Eint>  (1) 
-10.4419837894001

>  <r_glide_res:A186_coul>  (1) 
-10.388480864047899

>  <r_glide_res:A186_dist>  (1) 
7.2505967061624199

>  <r_glide_res:A186_hbond>  (1) 
0

>  <r_glide_res:A186_vdw>  (1) 
-0.053502925352214598

>  <r_glide_res:A205_Eint>  (1) 
7.5532182966858503

>  <r_glide_res:A205_coul>  (1) 
7.5856643850292604

>  <r_glide_res:A205_dist>  (1) 
9.1733791080027896

>  <r_glide_res:A205_hbond>  (1) 
0

>  <r_glide_res:A205_vdw>  (1) 
-0.0324460883434112

>  <r_glide_res:A208_Eint>  (1) 
-8.4798727845712101

>  <r_glide_res:A208_coul>  (1) 
-8.4361450388084407

>  <r_glide_res:A208_dist>  (1) 
8.2211530866269005

>  <r_glide_res:A208_hbond>  (1) 
0

>  <r_glide_res:A208_vdw>  (1) 
-0.0437277457627675

>  <r_glide_res:A209_Eint>  (1) 
-0.025432762692607001

>  <r_glide_res:A209_coul>  (1) 
0.244003945380599

>  <r_glide_res:A209_dist>  (1) 
6.3869561169538303

>  <r_glide_res:A209_hbond>  (1) 
0

>  <r_glide_res:A209_vdw>  (1) 
-0.26943670807320602

>  <r_glide_res:A210_Eint>  (1) 
-4.1321347279269496

>  <r_glide_res:A210_coul>  (1) 
0.38043261485056201

>  <r_glide_res:A210_dist>  (1) 
2.6952487020861899

>  <r_glide_res:A210_hbond>  (1) 
0

>  <r_glide_res:A210_vdw>  (1) 
-4.5125673427775101

>  <r_glide_res:A211_Eint>  (1) 
-0.24554264411264701

>  <r_glide_res:A211_coul>  (1) 
-0.0075371155712951601

>  <r_glide_res:A211_dist>  (1) 
5.2003091968295596

>  <r_glide_res:A211_hbond>  (1) 
0

>  <r_glide_res:A211_vdw>  (1) 
-0.23800552854135201

>  <r_glide_res:A212_Eint>  (1) 
0.016835519968101498

>  <r_glide_res:A212_coul>  (1) 
0.047583097799762601

>  <r_glide_res:A212_dist>  (1) 
8.1605846686459902

>  <r_glide_res:A212_hbond>  (1) 
0

>  <r_glide_res:A212_vdw>  (1) 
-0.030747577831661099

>  <r_glide_res:A265_Eint>  (1) 
0.136547940623128

>  <r_glide_res:A265_coul>  (1) 
0.311588473397031

>  <r_glide_res:A265_dist>  (1) 
3.8052157632134098

>  <r_glide_res:A265_hbond>  (1) 
0

>  <r_glide_res:A265_vdw>  (1) 
-0.175040532773904

>  <r_glide_res:A269_Eint>  (1) 
-4.48503938063471

>  <r_glide_res:A269_coul>  (1) 
-3.6988722562364198

>  <r_glide_res:A269_dist>  (1) 
3.2856580395983901

>  <r_glide_res:A269_hbond>  (1) 
0

>  <r_glide_res:A269_vdw>  (1) 
-0.78616712439828496

>  <r_glide_res:A274_Eint>  (1) 
-8.0256705098576298

>  <r_glide_res:A274_coul>  (1) 
-7.96199762707817

>  <r_glide_res:A274_dist>  (1) 
7.6593411367422899

>  <r_glide_res:A274_hbond>  (1) 
0

>  <r_glide_res:A274_vdw>  (1) 
-0.063672882779454598

>  <r_glide_res:A275_Eint>  (1) 
11.042163232139099

>  <r_glide_res:A275_coul>  (1) 
11.863878041693701

>  <r_glide_res:A275_dist>  (1) 
2.2562289670005802

>  <r_glide_res:A275_hbond>  (1) 
0

>  <r_glide_res:A275_vdw>  (1) 
-0.82171480955457399

>  <r_glide_res:A276_Eint>  (1) 
-3.1968937574157401

>  <r_glide_res:A276_coul>  (1) 
-0.12035782080207399

>  <r_glide_res:A276_dist>  (1) 
2.6007130406050898

>  <r_glide_res:A276_hbond>  (1) 
0

>  <r_glide_res:A276_vdw>  (1) 
-3.07653593661367

>  <r_glide_res:A277_Eint>  (1) 
-0.358125664514026

>  <r_glide_res:A277_coul>  (1) 
-0.308246578316834

>  <r_glide_res:A277_dist>  (1) 
7.4985045438598004

>  <r_glide_res:A277_hbond>  (1) 
0

>  <r_glide_res:A277_vdw>  (1) 
-0.049879086197191898

>  <r_glide_res:A278_Eint>  (1) 
-0.026385396620769198

>  <r_glide_res:A278_coul>  (1) 
-0.0017204714176136701

>  <r_glide_res:A278_dist>  (1) 
9.70350976687544

>  <r_glide_res:A278_hbond>  (1) 
0

>  <r_glide_res:A278_vdw>  (1) 
-0.024664925203155601

>  <r_glide_res:A29_Eint>  (1) 
-0.12677772967537099

>  <r_glide_res:A29_coul>  (1) 
0.13162006161898901

>  <r_glide_res:A29_dist>  (1) 
6.0143933776532901

>  <r_glide_res:A29_hbond>  (1) 
0

>  <r_glide_res:A29_vdw>  (1) 
-0.25839779129436002

>  <r_glide_res:A305_Eint>  (1) 
-0.97463907970997199

>  <r_glide_res:A305_coul>  (1) 
-0.167780609927631

>  <r_glide_res:A305_dist>  (1) 
2.9160444118656201

>  <r_glide_res:A305_hbond>  (1) 
0

>  <r_glide_res:A305_vdw>  (1) 
-0.80685846978234099

>  <r_glide_res:A306_Eint>  (1) 
-1.95183213091528

>  <r_glide_res:A306_coul>  (1) 
-0.63104500867496904

>  <r_glide_res:A306_dist>  (1) 
2.2230038686492799

>  <r_glide_res:A306_hbond>  (1) 
0

>  <r_glide_res:A306_vdw>  (1) 
-1.32078712224031

>  <r_glide_res:A307_Eint>  (1) 
-0.205295907304889

>  <r_glide_res:A307_coul>  (1) 
-0.042497106921687698

>  <r_glide_res:A307_dist>  (1) 
4.6350684080034696

>  <r_glide_res:A307_hbond>  (1) 
0

>  <r_glide_res:A307_vdw>  (1) 
-0.16279880038320099

>  <r_glide_res:A308_Eint>  (1) 
-3.7124855411634798

>  <r_glide_res:A308_coul>  (1) 
-1.6621590071484

>  <r_glide_res:A308_dist>  (1) 
2.3926107580457301

>  <r_glide_res:A308_hbond>  (1) 
-0.085911393563419897

>  <r_glide_res:A308_vdw>  (1) 
-1.9644151404516601

>  <r_glide_res:A309_Eint>  (1) 
-0.23297466418422599

>  <r_glide_res:A309_coul>  (1) 
-0.212948026574662

>  <r_glide_res:A309_dist>  (1) 
10.0845745904009

>  <r_glide_res:A309_hbond>  (1) 
0

>  <r_glide_res:A309_vdw>  (1) 
-0.020026637609563799

>  <r_glide_res:A32_Eint>  (1) 
-1.28444649054717

>  <r_glide_res:A32_coul>  (1) 
0.059368996324205101

>  <r_glide_res:A32_dist>  (1) 
2.5628100915660501

>  <r_glide_res:A32_hbond>  (1) 
0

>  <r_glide_res:A32_vdw>  (1) 
-1.3438154868713701

>  <r_glide_res:A33_Eint>  (1) 
-2.8131533784817599

>  <r_glide_res:A33_coul>  (1) 
1.2338522720918501

>  <r_glide_res:A33_dist>  (1) 
3.0146171151049801

>  <r_glide_res:A33_hbond>  (1) 
0

>  <r_glide_res:A33_vdw>  (1) 
-4.0470056505736203

>  <r_glide_res:A34_Eint>  (1) 
-3.0897351878641302

>  <r_glide_res:A34_coul>  (1) 
0.320886532630004

>  <r_glide_res:A34_dist>  (1) 
2.7521144890423099

>  <r_glide_res:A34_hbond>  (1) 
0

>  <r_glide_res:A34_vdw>  (1) 
-3.41062172049413

>  <r_glide_res:A35_Eint>  (1) 
-0.74093422121951102

>  <r_glide_res:A35_coul>  (1) 
0.43823903726046898

>  <r_glide_res:A35_dist>  (1) 
2.3116089384655898

>  <r_glide_res:A35_hbond>  (1) 
0

>  <r_glide_res:A35_vdw>  (1) 
-1.1791732584799799

>  <r_glide_res:A36_Eint>  (1) 
9.0336949002394409

>  <r_glide_res:A36_coul>  (1) 
9.1129866518731308

>  <r_glide_res:A36_dist>  (1) 
7.1540765939441204

>  <r_glide_res:A36_hbond>  (1) 
0

>  <r_glide_res:A36_vdw>  (1) 
-0.079291751633686597

>  <r_glide_res:A37_Eint>  (1) 
0.249568362423711

>  <r_glide_res:A37_coul>  (1) 
0.27282111349955201

>  <r_glide_res:A37_dist>  (1) 
8.9114132130389692

>  <r_glide_res:A37_hbond>  (1) 
0

>  <r_glide_res:A37_vdw>  (1) 
-0.023252751075840301

>  <r_glide_res:A39_Eint>  (1) 
8.0711207602115405

>  <r_glide_res:A39_coul>  (1) 
8.1959300233277403

>  <r_glide_res:A39_dist>  (1) 
4.0869404286557902

>  <r_glide_res:A39_hbond>  (1) 
0

>  <r_glide_res:A39_vdw>  (1) 
-0.124809263116202

>  <r_glide_res:A401_Eint>  (1) 
-6.4168957206555399

>  <r_glide_res:A401_coul>  (1) 
-11.4702106282885

>  <r_glide_res:A401_dist>  (1) 
2.0012604830396099

>  <r_glide_res:A401_hbond>  (1) 
0

>  <r_glide_res:A401_vdw>  (1) 
5.0533149076329202

>  <r_i_docking_score>  (1) 
-8.0889987282749392

>  <r_i_glide_ecoul>  (1) 
-15.9618110656738

>  <r_i_glide_eff_state_penalty>  (1) 
0.15920000000000001

>  <r_i_glide_einternal>  (1) 
10.418869972229

>  <r_i_glide_emodel>  (1) 
-98.019207327289394

>  <r_i_glide_energy>  (1) 
-61.146877288818402

>  <r_i_glide_erotb>  (1) 
0.79689377799597605

>  <r_i_glide_esite>  (1) 
-0.39621709770617702

>  <r_i_glide_evdw>  (1) 
-45.185066223144503

>  <r_i_glide_gscore>  (1) 
-8.2481987282749394

>  <r_i_glide_hbond>  (1) 
-0.42452984583477199

>  <r_i_glide_ligand_efficiency>  (1) 
-0.20741022380192201

>  <r_i_glide_ligand_efficiency_ln>  (1) 
-1.7345109472259499

>  <r_i_glide_ligand_efficiency_sa>  (1) 
-0.70337192349625699

>  <r_i_glide_lipo>  (1) 
-1.1788659198073399

>  <r_i_glide_metal>  (1) 
-2.2999999999999998

>  <r_i_glide_rewards>  (1) 
-0.091954671914325506

>  <r_lp_Energy>  (1) 
56.665599999999998

>  <r_lp_tautomer_probability>  (1) 
0.94828400000000002

>  <i_epik_Tot_Q>  (1) 
1

>  <i_epik_Tot_abs_Q>  (1) 
1

>  <i_i_glide_confnum>  (1) 
106

>  <i_i_glide_lignum>  (1) 
209

>  <i_i_glide_posenum>  (1) 
15

>  <i_i_glide_rotatable_bonds>  (1) 
13

>  <i_lp_mmshare_version>  (1) 
54117

>  <i_m_ct_enhanced_stereo_status>  (1) 
0

>  <i_m_ct_format>  (1) 
2

>  <i_m_source_file_index>  (1) 
113

>  <i_sd_Affinity>  (1) 
110

>  <i_sd_i\_f3d\_flags>  (1) 
0

>  <i_sd_version>  (1) 
0

>  <b_lp_Chiralities_Consistent>  (1) 
1

>  <b_sd_chiral_flag>  (1) 
1

$$$$
