Q92769_Sries56686_idx-in-all-actives-169
     RDKit          3D

 62 63  0  0  0  0  0  0  0  0999 V2000
   18.7518  -20.1210    0.7994 C   0  0  0  0  0  0  0  0  0  0  0  0
   20.2873  -20.0324    0.8746 C   0  0  0  0  0  0  0  0  0  0  0  0
   20.9503  -19.0991   -0.1512 C   0  0  0  0  0  0  0  0  0  0  0  0
   20.2874  -18.4985   -0.9979 O   0  0  0  0  0  0  0  0  0  0  0  0
   22.4678  -18.9129   -0.0317 C   0  0  0  0  0  0  0  0  0  0  0  0
   23.1058  -17.8900   -1.0000 C   0  0  0  0  0  0  0  0  0  0  0  0
   24.6486  -17.9211   -0.9980 C   0  0  0  0  0  0  0  0  0  0  0  0
   25.3146  -17.6061    0.3553 C   0  0  0  0  0  0  0  0  0  0  0  0
   26.8186  -17.9578    0.4250 C   0  0  0  0  0  0  0  0  0  0  0  0
   27.7779  -17.0006   -0.3183 C   0  0  2  0  0  0  0  0  0  0  0  0
   29.1377  -17.5375   -0.2933 N   0  0  0  0  0  0  0  0  0  0  0  0
   30.1299  -17.1471   -1.1142 C   0  0  0  0  0  0  0  0  0  0  0  0
   29.9440  -16.3827   -2.0586 O   0  0  0  0  0  0  0  0  0  0  0  0
   31.5454  -17.6985   -0.8660 C   0  0  0  0  0  0  0  0  0  0  0  0
   31.8874  -17.7129    0.6022 N   0  0  0  0  0  0  0  0  0  0  0  0
   33.1524  -18.5622    0.8469 C   0  0  0  0  0  0  0  0  0  0  0  0
   32.0536  -16.2957    1.2022 C   0  0  0  0  0  0  0  0  0  0  0  0
   27.7606  -15.6024    0.2910 C   0  0  0  0  0  0  0  0  0  0  0  0
   28.2873  -15.3129    1.5241 N   0  0  0  0  0  0  0  0  0  0  0  0
   28.0634  -13.9851    1.7706 C   0  0  0  0  0  0  0  0  0  0  0  0
   28.4385  -13.2994    3.0507 C   0  0  0  0  0  0  0  0  0  0  0  0
   27.9481  -12.0195    3.3405 C   0  0  0  0  0  0  0  0  0  0  0  0
   28.2874  -11.3902    4.5366 C   0  0  0  0  0  0  0  0  0  0  0  0
   29.1116  -12.0388    5.4512 C   0  0  0  0  0  0  0  0  0  0  0  0
   29.4242  -11.4305    6.6171 F   0  0  0  0  0  0  0  0  0  0  0  0
   29.6132  -13.3061    5.1725 C   0  0  0  0  0  0  0  0  0  0  0  0
   29.2802  -13.9336    3.9754 C   0  0  0  0  0  0  0  0  0  0  0  0
   27.4628  -13.4202    0.7433 N   0  0  0  0  0  0  0  0  0  0  0  0
   27.2929  -14.3724   -0.1662 C   0  0  0  0  0  0  0  0  0  0  0  0
   26.6874  -14.1081   -1.4626 C   0  0  0  0  0  0  0  0  0  0  0  0
   26.2051  -13.9034   -2.4951 N   0  0  0  0  0  0  0  0  0  0  0  0
   18.3801  -20.8741    1.4955 H   0  0  0  0  0  0  0  0  0  0  0  0
   18.4015  -20.3988   -0.1958 H   0  0  0  0  0  0  0  0  0  0  0  0
   18.2874  -19.1764    1.0759 H   0  0  0  0  0  0  0  0  0  0  0  0
   20.5818  -19.7083    1.8733 H   0  0  0  0  0  0  0  0  0  0  0  0
   20.6873  -21.0337    0.7412 H   0  0  0  0  0  0  0  0  0  0  0  0
   22.6860  -18.6218    0.9959 H   0  0  0  0  0  0  0  0  0  0  0  0
   22.9321  -19.8844   -0.1979 H   0  0  0  0  0  0  0  0  0  0  0  0
   22.7768  -18.1099   -2.0163 H   0  0  0  0  0  0  0  0  0  0  0  0
   22.7547  -16.8824   -0.7698 H   0  0  0  0  0  0  0  0  0  0  0  0
   24.9577  -18.9129   -1.3133 H   0  0  0  0  0  0  0  0  0  0  0  0
   25.0254  -17.2349   -1.7581 H   0  0  0  0  0  0  0  0  0  0  0  0
   25.1575  -16.5568    0.6020 H   0  0  0  0  0  0  0  0  0  0  0  0
   24.8160  -18.1707    1.1421 H   0  0  0  0  0  0  0  0  0  0  0  0
   27.1144  -18.0125    1.4727 H   0  0  0  0  0  0  0  0  0  0  0  0
   26.9589  -18.9695    0.0441 H   0  0  0  0  0  0  0  0  0  0  0  0
   27.4540  -16.9612   -1.3620 H   0  0  0  0  0  0  0  0  0  0  0  0
   29.3560  -18.1604    0.4821 H   0  0  0  0  0  0  0  0  0  0  0  0
   31.6028  -18.7261   -1.2281 H   0  0  0  0  0  0  0  0  0  0  0  0
   32.3113  -17.1074   -1.3719 H   0  0  0  0  0  0  0  0  0  0  0  0
   33.9835  -18.1029    0.3085 H   0  0  0  0  0  0  0  0  0  0  0  0
   33.3306  -18.5750    1.9234 H   0  0  0  0  0  0  0  0  0  0  0  0
   32.9474  -19.5716    0.4863 H   0  0  0  0  0  0  0  0  0  0  0  0
   32.8663  -15.7919    0.6769 H   0  0  0  0  0  0  0  0  0  0  0  0
   31.1102  -15.7622    1.0845 H   0  0  0  0  0  0  0  0  0  0  0  0
   32.2759  -16.4168    2.2642 H   0  0  0  0  0  0  0  0  0  0  0  0
   28.7576  -15.9699    2.1454 H   0  0  0  0  0  0  0  0  0  0  0  0
   27.3000  -11.5094    2.6428 H   0  0  0  0  0  0  0  0  0  0  0  0
   27.9063  -10.4060    4.7649 H   0  0  0  0  0  0  0  0  0  0  0  0
   30.2719  -13.7981    5.8755 H   0  0  0  0  0  0  0  0  0  0  0  0
   29.6913  -14.9129    3.7799 H   0  0  0  0  0  0  0  0  0  0  0  0
   31.1379  -18.1773    1.1261 H   0  0  0  0  0  0  0  0  0  0  0  0
  1  2  1  0
  1 32  1  0
  1 33  1  0
  1 34  1  0
  2  3  1  0
  2 35  1  0
  2 36  1  0
  3  4  2  0
  3  5  1  0
  5  6  1  0
  5 37  1  0
  5 38  1  0
  6  7  1  0
  6 39  1  0
  6 40  1  0
  7  8  1  0
  7 41  1  0
  7 42  1  0
  8  9  1  0
  8 43  1  0
  8 44  1  0
  9 10  1  0
  9 45  1  0
  9 46  1  0
 10 11  1  0
 10 18  1  0
 10 47  1  6
 11 12  1  0
 11 48  1  0
 12 13  2  0
 12 14  1  0
 14 15  1  0
 14 49  1  0
 14 50  1  0
 15 16  1  0
 15 17  1  0
 15 62  1  0
 16 51  1  0
 16 52  1  0
 16 53  1  0
 17 54  1  0
 17 55  1  0
 17 56  1  0
 18 19  1  0
 18 29  2  0
 19 20  1  0
 19 57  1  0
 20 21  1  0
 20 28  2  0
 21 22  2  0
 21 27  1  0
 22 23  1  0
 22 58  1  0
 23 24  2  0
 23 59  1  0
 24 25  1  0
 24 26  1  0
 26 27  2  0
 26 60  1  0
 27 61  1  0
 28 29  1  0
 29 30  1  0
 30 31  3  0
M  CHG  1  15   1
M  END
>  <s_epik_cmdline>  (1) 
J2VwaWtfcHl0aG9uJywgJy1waHQnLCAnMi4wJywgJy1waCcsICc3LjAnLCAnLXRuJywgJzgnLCAnLW1hJywgJzUwMCcsICctaW1hZScsICc8aW5maWxlLm1hZT4nLCAnLW9tYWUnLCAnPG91dGZpbGUubWFlPic=

>  <s_epik_input>  (1) 
W0NIM11bQ0gyXUMoPU8pW0NIMl1bQ0gyXVtDSDJdW0NIMl1bQ0gyXVtDQEhdKFtOSF1DKD1PKVtDSDJdTihbQ0gzXSlbQ0gzXSljMVtuSF1jKG5jMUMjTiktYzJbY0hdW2NIXWMoRilbY0hdW2NIXTI=

>  <s_i_glide_gridfile>  (1) 
Q92769_Sries18355_Sries63329_grid

>  <s_lp_Force_Field>  (1) 
S-OPLS

>  <s_lp_Variant>  (1) 
Q92769_Sries56686_idx-in-all-actives-169-1

>  <s_m_source_file>  (1) 
/home/fanzhehuan/myprojects/selfGenBench/Smiles_min_50_max_inf_Scaffold_50_Serise_20_pocket/Q92769/Q92769_all_active_molecules_new_20241120.sdf

>  <s_sd_Affinity_Type>  (1) 
IC50

>  <s_sd_Affinity_Unit>  (1) 
nM

>  <r_epik_Charging_Adjusted_Penalty>  (1) 
0.089168300000000006

>  <r_epik_Ionization_Penalty>  (1) 
0.049299999999999997

>  <r_epik_Ionization_Penalty_Charging>  (1) 
0.048099999999999997

>  <r_epik_Ionization_Penalty_Neutral>  (1) 
0.0011999999999999999

>  <r_epik_State_Penalty>  (1) 
0.041000000000000002

>  <r_glide_res:A100_Eint>  (1) 
-0.61251332091323896

>  <r_glide_res:A100_coul>  (1) 
-0.507758311047665

>  <r_glide_res:A100_dist>  (1) 
5.2289523216380198

>  <r_glide_res:A100_hbond>  (1) 
0

>  <r_glide_res:A100_vdw>  (1) 
-0.104755009865573

>  <r_glide_res:A101_Eint>  (1) 
0.13271004918346299

>  <r_glide_res:A101_coul>  (1) 
0.164362260841208

>  <r_glide_res:A101_dist>  (1) 
9.1059624749980905

>  <r_glide_res:A101_hbond>  (1) 
0

>  <r_glide_res:A101_vdw>  (1) 
-0.031652211657744699

>  <r_glide_res:A102_Eint>  (1) 
0.43907967461062403

>  <r_glide_res:A102_coul>  (1) 
0.49476754504074599

>  <r_glide_res:A102_dist>  (1) 
6.8334969591051804

>  <r_glide_res:A102_hbond>  (1) 
0

>  <r_glide_res:A102_vdw>  (1) 
-0.0556878704301218

>  <r_glide_res:A103_Eint>  (1) 
-29.213947032097501

>  <r_glide_res:A103_coul>  (1) 
-27.300272991417302

>  <r_glide_res:A103_dist>  (1) 
2.44621990370173

>  <r_glide_res:A103_hbond>  (1) 
0

>  <r_glide_res:A103_vdw>  (1) 
-1.91367404068016

>  <r_glide_res:A104_Eint>  (1) 
-71.882880768750098

>  <r_glide_res:A104_coul>  (1) 
-68.512350887112802

>  <r_glide_res:A104_dist>  (1) 
1.7993334535026799

>  <r_glide_res:A104_hbond>  (1) 
-0.49303478379231103

>  <r_glide_res:A104_vdw>  (1) 
-2.87749509784501

>  <r_glide_res:A105_Eint>  (1) 
-0.68381375023257895

>  <r_glide_res:A105_coul>  (1) 
-0.45231277125283798

>  <r_glide_res:A105_dist>  (1) 
5.9397918690309801

>  <r_glide_res:A105_hbond>  (1) 
0

>  <r_glide_res:A105_vdw>  (1) 
-0.23150097897974101

>  <r_glide_res:A106_Eint>  (1) 
0.22924567305921001

>  <r_glide_res:A106_coul>  (1) 
0.36387942386278899

>  <r_glide_res:A106_dist>  (1) 
5.8284777101408096

>  <r_glide_res:A106_hbond>  (1) 
0

>  <r_glide_res:A106_vdw>  (1) 
-0.13463375080357901

>  <r_glide_res:A108_Eint>  (1) 
-0.0045240710031397499

>  <r_glide_res:A108_coul>  (1) 
0.015782281672129299

>  <r_glide_res:A108_dist>  (1) 
10.0317930527715

>  <r_glide_res:A108_hbond>  (1) 
0

>  <r_glide_res:A108_vdw>  (1) 
-0.020306352675269101

>  <r_glide_res:A144_Eint>  (1) 
-0.36884966861554103

>  <r_glide_res:A144_coul>  (1) 
0.34044106183828798

>  <r_glide_res:A144_dist>  (1) 
2.7055904126166399

>  <r_glide_res:A144_hbond>  (1) 
0

>  <r_glide_res:A144_vdw>  (1) 
-0.70929073045382895

>  <r_glide_res:A145_Eint>  (1) 
-1.1577244012157

>  <r_glide_res:A145_coul>  (1) 
0.24413405340365299

>  <r_glide_res:A145_dist>  (1) 
2.5497866468950598

>  <r_glide_res:A145_hbond>  (1) 
0

>  <r_glide_res:A145_vdw>  (1) 
-1.40185845461935

>  <r_glide_res:A146_Eint>  (1) 
-1.5084230721173499

>  <r_glide_res:A146_coul>  (1) 
0.16219373097126999

>  <r_glide_res:A146_dist>  (1) 
1.8883836535460301

>  <r_glide_res:A146_hbond>  (1) 
0

>  <r_glide_res:A146_vdw>  (1) 
-1.6706168030886199

>  <r_glide_res:A147_Eint>  (1) 
0.19557081128935799

>  <r_glide_res:A147_coul>  (1) 
0.23323721679279

>  <r_glide_res:A147_dist>  (1) 
6.2825405308192099

>  <r_glide_res:A147_hbond>  (1) 
0

>  <r_glide_res:A147_vdw>  (1) 
-0.037666405503432102

>  <r_glide_res:A148_Eint>  (1) 
12.8945290989766

>  <r_glide_res:A148_coul>  (1) 
12.919537296230899

>  <r_glide_res:A148_dist>  (1) 
8.5996159241045405

>  <r_glide_res:A148_hbond>  (1) 
0

>  <r_glide_res:A148_vdw>  (1) 
-0.0250081972542576

>  <r_glide_res:A152_Eint>  (1) 
-0.413393235687607

>  <r_glide_res:A152_coul>  (1) 
-0.36966306618725098

>  <r_glide_res:A152_dist>  (1) 
8.3323130343849403

>  <r_glide_res:A152_hbond>  (1) 
0

>  <r_glide_res:A152_vdw>  (1) 
-0.043730169500356103

>  <r_glide_res:A153_Eint>  (1) 
0.070096711843251697

>  <r_glide_res:A153_coul>  (1) 
0.39552169444048602

>  <r_glide_res:A153_dist>  (1) 
5.1293987703573203

>  <r_glide_res:A153_hbond>  (1) 
0

>  <r_glide_res:A153_vdw>  (1) 
-0.32542498259723401

>  <r_glide_res:A154_Eint>  (1) 
0.88137959808046595

>  <r_glide_res:A154_coul>  (1) 
0.84175186787841405

>  <r_glide_res:A154_dist>  (1) 
2.3208569099563001

>  <r_glide_res:A154_hbond>  (1) 
0

>  <r_glide_res:A154_vdw>  (1) 
0.039627730202051799

>  <r_glide_res:A155_Eint>  (1) 
-5.5958890157503296

>  <r_glide_res:A155_coul>  (1) 
0.83475508284493305

>  <r_glide_res:A155_dist>  (1) 
2.3851956478600602

>  <r_glide_res:A155_hbond>  (1) 
0

>  <r_glide_res:A155_vdw>  (1) 
-6.43064409859526

>  <r_glide_res:A156_Eint>  (1) 
-1.50917797168749

>  <r_glide_res:A156_coul>  (1) 
-0.49614232446554002

>  <r_glide_res:A156_dist>  (1) 
2.5317837502616198

>  <r_glide_res:A156_hbond>  (1) 
0

>  <r_glide_res:A156_vdw>  (1) 
-1.0130356472219499

>  <r_glide_res:A157_Eint>  (1) 
-0.53299098917582499

>  <r_glide_res:A157_coul>  (1) 
-0.46408496972061802

>  <r_glide_res:A157_dist>  (1) 
7.6865082961309801

>  <r_glide_res:A157_hbond>  (1) 
0

>  <r_glide_res:A157_vdw>  (1) 
-0.068906019455206705

>  <r_glide_res:A181_Eint>  (1) 
-6.3541001277290698

>  <r_glide_res:A181_coul>  (1) 
-5.3317407411646904

>  <r_glide_res:A181_dist>  (1) 
3.1915339817395698

>  <r_glide_res:A181_hbond>  (1) 
0

>  <r_glide_res:A181_vdw>  (1) 
-1.0223593865643901

>  <r_glide_res:A182_Eint>  (1) 
-0.38524918920524598

>  <r_glide_res:A182_coul>  (1) 
-0.186169505104477

>  <r_glide_res:A182_dist>  (1) 
5.1129526356010002

>  <r_glide_res:A182_hbond>  (1) 
0

>  <r_glide_res:A182_vdw>  (1) 
-0.19907968410076901

>  <r_glide_res:A183_Eint>  (1) 
-1.6784048027433001

>  <r_glide_res:A183_coul>  (1) 
1.3008027752974101

>  <r_glide_res:A183_dist>  (1) 
2.58398448483188

>  <r_glide_res:A183_hbond>  (1) 
0

>  <r_glide_res:A183_vdw>  (1) 
-2.9792075780407101

>  <r_glide_res:A184_Eint>  (1) 
7.9920383033472797

>  <r_glide_res:A184_coul>  (1) 
8.0850215758729593

>  <r_glide_res:A184_dist>  (1) 
6.7717477035512896

>  <r_glide_res:A184_hbond>  (1) 
0

>  <r_glide_res:A184_vdw>  (1) 
-0.092983272525674995

>  <r_glide_res:A186_Eint>  (1) 
-12.656388844384001

>  <r_glide_res:A186_coul>  (1) 
-12.6014082992337

>  <r_glide_res:A186_dist>  (1) 
7.4219744384007003

>  <r_glide_res:A186_hbond>  (1) 
0

>  <r_glide_res:A186_vdw>  (1) 
-0.054980545150231999

>  <r_glide_res:A205_Eint>  (1) 
6.82922096348008

>  <r_glide_res:A205_coul>  (1) 
6.8717197000222203

>  <r_glide_res:A205_dist>  (1) 
8.4458109051849899

>  <r_glide_res:A205_hbond>  (1) 
0

>  <r_glide_res:A205_vdw>  (1) 
-0.042498736542146601

>  <r_glide_res:A208_Eint>  (1) 
-8.1577527428859398

>  <r_glide_res:A208_coul>  (1) 
-8.1061743259019305

>  <r_glide_res:A208_dist>  (1) 
7.8433513268528499

>  <r_glide_res:A208_hbond>  (1) 
0

>  <r_glide_res:A208_vdw>  (1) 
-0.051578416984005698

>  <r_glide_res:A209_Eint>  (1) 
-0.57456955148042399

>  <r_glide_res:A209_coul>  (1) 
-0.081703881483198695

>  <r_glide_res:A209_dist>  (1) 
5.3152403561200403

>  <r_glide_res:A209_hbond>  (1) 
0

>  <r_glide_res:A209_vdw>  (1) 
-0.49286566999722597

>  <r_glide_res:A210_Eint>  (1) 
-4.7024467451970597

>  <r_glide_res:A210_coul>  (1) 
0.45573786208758998

>  <r_glide_res:A210_dist>  (1) 
2.3164317837678201

>  <r_glide_res:A210_hbond>  (1) 
0

>  <r_glide_res:A210_vdw>  (1) 
-5.1581846072846496

>  <r_glide_res:A211_Eint>  (1) 
-0.49025157134779801

>  <r_glide_res:A211_coul>  (1) 
-0.193310173227557

>  <r_glide_res:A211_dist>  (1) 
5.1356842535684297

>  <r_glide_res:A211_hbond>  (1) 
0

>  <r_glide_res:A211_vdw>  (1) 
-0.29694139812024101

>  <r_glide_res:A212_Eint>  (1) 
-0.075240036555113202

>  <r_glide_res:A212_coul>  (1) 
-0.036681147911846998

>  <r_glide_res:A212_dist>  (1) 
7.7221244423556001

>  <r_glide_res:A212_hbond>  (1) 
0

>  <r_glide_res:A212_vdw>  (1) 
-0.038558888643266197

>  <r_glide_res:A265_Eint>  (1) 
0.40046188983645897

>  <r_glide_res:A265_coul>  (1) 
0.57802919436748401

>  <r_glide_res:A265_dist>  (1) 
3.5756328102997799

>  <r_glide_res:A265_hbond>  (1) 
0

>  <r_glide_res:A265_vdw>  (1) 
-0.17756730453102501

>  <r_glide_res:A269_Eint>  (1) 
-4.5526595634998701

>  <r_glide_res:A269_coul>  (1) 
-3.7428858420417002

>  <r_glide_res:A269_dist>  (1) 
3.2700888766697398

>  <r_glide_res:A269_hbond>  (1) 
0

>  <r_glide_res:A269_vdw>  (1) 
-0.80977372145816695

>  <r_glide_res:A274_Eint>  (1) 
-7.2748897156565802

>  <r_glide_res:A274_coul>  (1) 
-7.2034162150658201

>  <r_glide_res:A274_dist>  (1) 
7.3453035010906502

>  <r_glide_res:A274_hbond>  (1) 
0

>  <r_glide_res:A274_vdw>  (1) 
-0.0714735005907573

>  <r_glide_res:A275_Eint>  (1) 
11.6728806331491

>  <r_glide_res:A275_coul>  (1) 
12.018092817624799

>  <r_glide_res:A275_dist>  (1) 
3.86386340075541

>  <r_glide_res:A275_hbond>  (1) 
0

>  <r_glide_res:A275_vdw>  (1) 
-0.34521218447563301

>  <r_glide_res:A276_Eint>  (1) 
-2.98614972412707

>  <r_glide_res:A276_coul>  (1) 
0.208281743763986

>  <r_glide_res:A276_dist>  (1) 
2.7915081909373001

>  <r_glide_res:A276_hbond>  (1) 
0

>  <r_glide_res:A276_vdw>  (1) 
-3.1944314678910599

>  <r_glide_res:A277_Eint>  (1) 
-0.15361575116503601

>  <r_glide_res:A277_coul>  (1) 
-0.074175702529108406

>  <r_glide_res:A277_dist>  (1) 
6.5229789591380598

>  <r_glide_res:A277_hbond>  (1) 
0

>  <r_glide_res:A277_vdw>  (1) 
-0.079440048635928101

>  <r_glide_res:A278_Eint>  (1) 
-0.0076528017651450696

>  <r_glide_res:A278_coul>  (1) 
0.028291875290192

>  <r_glide_res:A278_dist>  (1) 
8.5307237264904092

>  <r_glide_res:A278_hbond>  (1) 
0

>  <r_glide_res:A278_vdw>  (1) 
-0.035944677055337097

>  <r_glide_res:A29_Eint>  (1) 
0.20167274805375501

>  <r_glide_res:A29_coul>  (1) 
0.35709058963106199

>  <r_glide_res:A29_dist>  (1) 
6.0181709918447703

>  <r_glide_res:A29_hbond>  (1) 
0

>  <r_glide_res:A29_vdw>  (1) 
-0.15541784157730801

>  <r_glide_res:A305_Eint>  (1) 
-0.66891009532326895

>  <r_glide_res:A305_coul>  (1) 
0.0574829265504593

>  <r_glide_res:A305_dist>  (1) 
2.8918539970844601

>  <r_glide_res:A305_hbond>  (1) 
0

>  <r_glide_res:A305_vdw>  (1) 
-0.72639302187372801

>  <r_glide_res:A306_Eint>  (1) 
-1.3843282788720099

>  <r_glide_res:A306_coul>  (1) 
-0.51869173725185103

>  <r_glide_res:A306_dist>  (1) 
2.2014882961784399

>  <r_glide_res:A306_hbond>  (1) 
0

>  <r_glide_res:A306_vdw>  (1) 
-0.86563654162016401

>  <r_glide_res:A307_Eint>  (1) 
-0.42371702573575598

>  <r_glide_res:A307_coul>  (1) 
-0.26098690665062502

>  <r_glide_res:A307_dist>  (1) 
4.5542073420263103

>  <r_glide_res:A307_hbond>  (1) 
0

>  <r_glide_res:A307_vdw>  (1) 
-0.16273011908513099

>  <r_glide_res:A308_Eint>  (1) 
-4.1280445774286996

>  <r_glide_res:A308_coul>  (1) 
-2.2898241866675799

>  <r_glide_res:A308_dist>  (1) 
2.22586959480777

>  <r_glide_res:A308_hbond>  (1) 
-0.20082436004100901

>  <r_glide_res:A308_vdw>  (1) 
-1.6373960307201101

>  <r_glide_res:A309_Eint>  (1) 
-0.23165715492476399

>  <r_glide_res:A309_coul>  (1) 
-0.213843821103816

>  <r_glide_res:A309_dist>  (1) 
10.0500038455972

>  <r_glide_res:A309_hbond>  (1) 
0

>  <r_glide_res:A309_vdw>  (1) 
-0.017813333820948098

>  <r_glide_res:A32_Eint>  (1) 
-1.7233906710967299

>  <r_glide_res:A32_coul>  (1) 
-0.90504877764801295

>  <r_glide_res:A32_dist>  (1) 
2.9710966817925599

>  <r_glide_res:A32_hbond>  (1) 
0

>  <r_glide_res:A32_vdw>  (1) 
-0.81834189344871799

>  <r_glide_res:A33_Eint>  (1) 
0.54970298736298795

>  <r_glide_res:A33_coul>  (1) 
2.4383843263541101

>  <r_glide_res:A33_dist>  (1) 
3.3517261535254499

>  <r_glide_res:A33_hbond>  (1) 
0

>  <r_glide_res:A33_vdw>  (1) 
-1.8886813389911199

>  <r_glide_res:A34_Eint>  (1) 
-1.0749547908441299

>  <r_glide_res:A34_coul>  (1) 
0.98342896734256802

>  <r_glide_res:A34_dist>  (1) 
2.6268184375550701

>  <r_glide_res:A34_hbond>  (1) 
0

>  <r_glide_res:A34_vdw>  (1) 
-2.0583837581867002

>  <r_glide_res:A35_Eint>  (1) 
-0.33305060346373899

>  <r_glide_res:A35_coul>  (1) 
0.73394386423420999

>  <r_glide_res:A35_dist>  (1) 
2.6202287563839102

>  <r_glide_res:A35_hbond>  (1) 
0

>  <r_glide_res:A35_vdw>  (1) 
-1.0669944676979499

>  <r_glide_res:A36_Eint>  (1) 
9.4311917669116792

>  <r_glide_res:A36_coul>  (1) 
9.4855912225260095

>  <r_glide_res:A36_dist>  (1) 
7.8537023921728402

>  <r_glide_res:A36_hbond>  (1) 
0

>  <r_glide_res:A36_vdw>  (1) 
-0.054399455614334298

>  <r_glide_res:A37_Eint>  (1) 
0.29525836891588902

>  <r_glide_res:A37_coul>  (1) 
0.31427549588420101

>  <r_glide_res:A37_dist>  (1) 
9.0812826450764508

>  <r_glide_res:A37_hbond>  (1) 
0

>  <r_glide_res:A37_vdw>  (1) 
-0.019017126968311999

>  <r_glide_res:A39_Eint>  (1) 
9.2624129669131303

>  <r_glide_res:A39_coul>  (1) 
9.3707191577177795

>  <r_glide_res:A39_dist>  (1) 
4.2955901609487404

>  <r_glide_res:A39_hbond>  (1) 
0

>  <r_glide_res:A39_vdw>  (1) 
-0.10830619080465601

>  <r_glide_res:A401_Eint>  (1) 
-5.5492631593399997

>  <r_glide_res:A401_coul>  (1) 
-8.2815653739603405

>  <r_glide_res:A401_dist>  (1) 
2.0763455571578899

>  <r_glide_res:A401_hbond>  (1) 
0

>  <r_glide_res:A401_vdw>  (1) 
2.7323022146203502

>  <r_i_docking_score>  (1) 
-8.8471157950467596

>  <r_i_glide_ecoul>  (1) 
-21.5412483215332

>  <r_i_glide_eff_state_penalty>  (1) 
0.041000000000000002

>  <r_i_glide_einternal>  (1) 
8.1106653213500994

>  <r_i_glide_emodel>  (1) 
-103.576357138869

>  <r_i_glide_energy>  (1) 
-59.104496002197301

>  <r_i_glide_erotb>  (1) 
1.1899284440036699

>  <r_i_glide_esite>  (1) 
-0.486367504109249

>  <r_i_glide_evdw>  (1) 
-37.563247680664098

>  <r_i_glide_gscore>  (1) 
-8.88811579504676

>  <r_i_glide_hbond>  (1) 
-0.69385914383331904

>  <r_i_glide_ligand_efficiency>  (1) 
-0.28539083209828198

>  <r_i_glide_ligand_efficiency_ln>  (1) 
-1.9952957433205001

>  <r_i_glide_ligand_efficiency_sa>  (1) 
-0.896521237297211

>  <r_i_glide_lipo>  (1) 
-0.89934250148488804

>  <r_i_glide_metal>  (1) 
-2.2999999999999998

>  <r_i_glide_rewards>  (1) 
-0.58912545735978405

>  <r_lp_Energy>  (1) 
27.182200000000002

>  <r_lp_tautomer_probability>  (1) 
1

>  <i_epik_Tot_Q>  (1) 
1

>  <i_epik_Tot_abs_Q>  (1) 
1

>  <i_i_glide_confnum>  (1) 
437

>  <i_i_glide_lignum>  (1) 
272

>  <i_i_glide_posenum>  (1) 
56

>  <i_i_glide_rotatable_bonds>  (1) 
13

>  <i_lp_mmshare_version>  (1) 
54117

>  <i_m_ct_enhanced_stereo_status>  (1) 
0

>  <i_m_ct_format>  (1) 
2

>  <i_m_source_file_index>  (1) 
170

>  <i_sd_Affinity>  (1) 
219

>  <i_sd_i\_f3d\_flags>  (1) 
0

>  <i_sd_version>  (1) 
0

>  <b_lp_Chiralities_Consistent>  (1) 
1

>  <b_sd_chiral_flag>  (1) 
1

$$$$
