Q92769_Sries57339_idx-in-all-actives-415
     RDKit          2D

 49 53  0  0  0  0  0  0  0  0999 V2000
   14.7990   -8.5442    0.0000 C   0  0  0  0  0  0  0  0  0  0  0  0
   13.2990   -8.5442    0.0000 C   0  0  0  0  0  0  0  0  0  0  0  0
   12.5490   -7.2452    0.0000 C   0  0  0  0  0  0  0  0  0  0  0  0
   13.2990   -5.9462    0.0000 O   0  0  0  0  0  0  0  0  0  0  0  0
   11.0490   -7.2452    0.0000 C   0  0  0  0  0  0  0  0  0  0  0  0
   10.2990   -5.9462    0.0000 C   0  0  0  0  0  0  0  0  0  0  0  0
    8.7990   -5.9462    0.0000 C   0  0  0  0  0  0  0  0  0  0  0  0
    8.0490   -4.6471    0.0000 C   0  0  0  0  0  0  0  0  0  0  0  0
    6.5490   -4.6471    0.0000 C   0  0  0  0  0  0  0  0  0  0  0  0
    5.7990   -3.3481    0.0000 C   0  0  0  0  0  0  0  0  0  0  0  0
    4.2990   -3.3481    0.0000 N   0  0  0  0  0  0  0  0  0  0  0  0
    3.5490   -2.0490    0.0000 C   0  0  0  0  0  0  0  0  0  0  0  0
    4.2990   -0.7500    0.0000 O   0  0  0  0  0  0  0  0  0  0  0  0
    2.0490   -2.0490    0.0000 C   0  0  0  0  0  0  0  0  0  0  0  0
    0.7500   -2.7990    0.0000 C   0  0  0  0  0  0  0  0  0  0  0  0
    0.7500   -1.2990    0.0000 C   0  0  0  0  0  0  0  0  0  0  0  0
    1.5000    0.0000    0.0000 C   0  0  0  0  0  0  0  0  0  0  0  0
    0.7500    1.2990    0.0000 C   0  0  0  0  0  0  0  0  0  0  0  0
   -0.7500    1.2990    0.0000 N   0  0  0  0  0  0  0  0  0  0  0  0
   -1.5000    2.5981    0.0000 C   0  0  0  0  0  0  0  0  0  0  0  0
   -0.7500    3.8971    0.0000 C   0  0  0  0  0  0  0  0  0  0  0  0
   -1.5000    0.0000    0.0000 C   0  0  0  0  0  0  0  0  0  0  0  0
   -0.7500   -1.2990    0.0000 C   0  0  0  0  0  0  0  0  0  0  0  0
    6.5490   -2.0490    0.0000 C   0  0  0  0  0  0  0  0  0  0  0  0
    5.9389   -0.6787    0.0000 N   0  0  0  0  0  0  0  0  0  0  0  0
    7.0537    0.3250    0.0000 C   0  0  0  0  0  0  0  0  0  0  0  0
    8.3527   -0.4250    0.0000 C   0  0  0  0  0  0  0  0  0  0  0  0
    9.7230    0.1851    0.0000 C   0  0  0  0  0  0  0  0  0  0  0  0
   10.9365   -0.6966    0.0000 C   0  0  0  0  0  0  0  0  0  0  0  0
   12.3069   -0.0865    0.0000 C   0  0  0  0  0  0  0  0  0  0  0  0
   12.4636    1.4053    0.0000 C   0  0  0  0  0  0  0  0  0  0  0  0
   13.8340    2.0154    0.0000 C   0  0  0  0  0  0  0  0  0  0  0  0
   13.9908    3.5072    0.0000 O   0  0  0  0  0  0  0  0  0  0  0  0
   15.0475    1.1337    0.0000 N   0  0  0  0  0  0  0  0  0  0  0  0
   16.4178    1.7438    0.0000 C   0  0  0  0  0  0  0  0  0  0  0  0
   17.6313    0.8621    0.0000 C   0  0  0  0  0  0  0  0  0  0  0  0
   19.0016    1.4723    0.0000 C   0  0  0  0  0  0  0  0  0  0  0  0
   20.2152    0.5906    0.0000 C   0  0  0  0  0  0  0  0  0  0  0  0
   21.4287   -0.2911    0.0000 F   0  0  0  0  0  0  0  0  0  0  0  0
   19.3335   -0.6230    0.0000 F   0  0  0  0  0  0  0  0  0  0  0  0
   21.0969    1.8041    0.0000 F   0  0  0  0  0  0  0  0  0  0  0  0
   19.1584    2.9640    0.0000 C   0  0  0  0  0  0  0  0  0  0  0  0
   17.9449    3.8457    0.0000 C   0  0  0  0  0  0  0  0  0  0  0  0
   16.5746    3.2356    0.0000 N   0  0  0  0  0  0  0  0  0  0  0  0
   11.2501    2.2870    0.0000 C   0  0  0  0  0  0  0  0  0  0  0  0
    9.8798    1.6769    0.0000 C   0  0  0  0  0  0  0  0  0  0  0  0
    8.6663    2.5585    0.0000 O   0  0  0  0  0  0  0  0  0  0  0  0
    8.8231    4.0503    0.0000 C   0  0  0  0  0  0  0  0  0  0  0  0
    8.0408   -1.8922    0.0000 N   0  0  0  0  0  0  0  0  0  0  0  0
  1  2  1  0
  2  3  1  0
  3  4  2  0
  3  5  1  0
  5  6  1  0
  6  7  1  0
  7  8  1  0
  8  9  1  0
 10  9  1  6
 10 11  1  0
 11 12  1  0
 12 13  2  0
 14 12  1  1
 14 15  1  0
 15 16  1  0
 16 17  1  0
 17 18  1  0
 18 19  1  0
 19 20  1  0
 20 21  1  0
 19 22  1  0
 22 23  1  0
 10 24  1  0
 24 25  2  0
 25 26  1  0
 26 27  2  0
 27 28  1  0
 28 29  2  0
 29 30  1  0
 30 31  2  0
 31 32  1  0
 32 33  2  0
 32 34  1  0
 34 35  1  0
 35 36  2  0
 36 37  1  0
 37 38  1  0
 38 39  1  0
 38 40  1  0
 38 41  1  0
 37 42  2  0
 42 43  1  0
 43 44  2  0
 31 45  1  0
 45 46  2  0
 46 47  1  0
 47 48  1  0
 27 49  1  0
 16 14  1  0
 49 24  1  0
 23 16  1  0
 46 28  1  0
 44 35  1  0
M  END
>  <Affinity>  (1) 
87.0

>  <Affinity Type>  (1) 
IC50

>  <Affinity Unit>  (1) 
nM

>  <Scaffold>  (1) 
[#6&!R]-&!@[#6&!R]-&!@[#6&!R](=&!@[#8&!R])-&!@[#6&!R]-&!@[#6&!R]-&!@[#6&!R]-&!@[#6&!R]-&!@[#6&!R]-&!@[#6&!R](-&!@[#7&!R]-&!@[#6&!R](=&!@[#8&!R])-&!@[#6&R]1-&@[#6&R]-&@[#6&R]-&@12-&@[#6&R]-&@[#6&R]-&@[#7&R](-&@[#6&R]-&@[#6&R]-&@2)-&!@[#6&!R])-&!@[#6&R]1:&@[#7&R]:&@[#6&R]:&@[#6&R](:&@[#7&R]:&@1)-&!@[#6&R]

$$$$
Q92769_Sries57339_idx-in-all-actives-399
     RDKit          2D

 40 44  0  0  0  0  0  0  0  0999 V2000
   14.7990   -8.5442    0.0000 C   0  0  0  0  0  0  0  0  0  0  0  0
   13.2990   -8.5442    0.0000 C   0  0  0  0  0  0  0  0  0  0  0  0
   12.5490   -7.2452    0.0000 C   0  0  0  0  0  0  0  0  0  0  0  0
   13.2990   -5.9462    0.0000 O   0  0  0  0  0  0  0  0  0  0  0  0
   11.0490   -7.2452    0.0000 C   0  0  0  0  0  0  0  0  0  0  0  0
   10.2990   -5.9462    0.0000 C   0  0  0  0  0  0  0  0  0  0  0  0
    8.7990   -5.9462    0.0000 C   0  0  0  0  0  0  0  0  0  0  0  0
    8.0490   -4.6471    0.0000 C   0  0  0  0  0  0  0  0  0  0  0  0
    6.5490   -4.6471    0.0000 C   0  0  0  0  0  0  0  0  0  0  0  0
    5.7990   -3.3481    0.0000 C   0  0  0  0  0  0  0  0  0  0  0  0
    4.2990   -3.3481    0.0000 N   0  0  0  0  0  0  0  0  0  0  0  0
    3.5490   -2.0490    0.0000 C   0  0  0  0  0  0  0  0  0  0  0  0
    4.2990   -0.7500    0.0000 O   0  0  0  0  0  0  0  0  0  0  0  0
    2.0490   -2.0490    0.0000 C   0  0  0  0  0  0  0  0  0  0  0  0
    0.7500   -2.7990    0.0000 C   0  0  0  0  0  0  0  0  0  0  0  0
    0.7500   -1.2990    0.0000 C   0  0  0  0  0  0  0  0  0  0  0  0
    1.5000    0.0000    0.0000 C   0  0  0  0  0  0  0  0  0  0  0  0
    0.7500    1.2990    0.0000 C   0  0  0  0  0  0  0  0  0  0  0  0
   -0.7500    1.2990    0.0000 N   0  0  0  0  0  0  0  0  0  0  0  0
   -1.5000    2.5981    0.0000 C   0  0  0  0  0  0  0  0  0  0  0  0
   -1.5000    0.0000    0.0000 C   0  0  0  0  0  0  0  0  0  0  0  0
   -0.7500   -1.2990    0.0000 C   0  0  0  0  0  0  0  0  0  0  0  0
    6.5490   -2.0490    0.0000 C   0  0  0  0  0  0  0  0  0  0  0  0
    5.9389   -0.6787    0.0000 N   0  0  0  0  0  0  0  0  0  0  0  0
    7.0537    0.3250    0.0000 C   0  0  0  0  0  0  0  0  0  0  0  0
    8.3527   -0.4250    0.0000 C   0  0  0  0  0  0  0  0  0  0  0  0
    9.7230    0.1851    0.0000 C   0  0  0  0  0  0  0  0  0  0  0  0
   10.9365   -0.6966    0.0000 C   0  0  0  0  0  0  0  0  0  0  0  0
   12.3069   -0.0865    0.0000 C   0  0  0  0  0  0  0  0  0  0  0  0
   12.4636    1.4053    0.0000 C   0  0  0  0  0  0  0  0  0  0  0  0
   13.8340    2.0154    0.0000 N   0  0  0  0  0  0  0  0  0  0  0  0
   14.1458    3.4826    0.0000 N   0  0  0  0  0  0  0  0  0  0  0  0
   15.6376    3.6394    0.0000 C   0  0  0  0  0  0  0  0  0  0  0  0
   16.3876    4.9384    0.0000 C   0  0  0  0  0  0  0  0  0  0  0  0
   16.2477    2.2691    0.0000 C   0  0  0  0  0  0  0  0  0  0  0  0
   15.1330    1.2654    0.0000 C   0  0  0  0  0  0  0  0  0  0  0  0
   15.2898   -0.2264    0.0000 C   0  0  0  0  0  0  0  0  0  0  0  0
   11.2501    2.2870    0.0000 C   0  0  0  0  0  0  0  0  0  0  0  0
    9.8798    1.6769    0.0000 C   0  0  0  0  0  0  0  0  0  0  0  0
    8.0408   -1.8922    0.0000 N   0  0  0  0  0  0  0  0  0  0  0  0
  1  2  1  0
  2  3  1  0
  3  4  2  0
  3  5  1  0
  5  6  1  0
  6  7  1  0
  7  8  1  0
  8  9  1  0
 10  9  1  6
 10 11  1  0
 11 12  1  0
 12 13  2  0
 14 12  1  1
 14 15  1  0
 15 16  1  0
 16 17  1  0
 17 18  1  0
 18 19  1  0
 19 20  1  0
 19 21  1  0
 21 22  1  0
 10 23  1  0
 23 24  2  0
 24 25  1  0
 25 26  2  0
 26 27  1  0
 27 28  2  0
 28 29  1  0
 29 30  2  0
 30 31  1  0
 31 32  1  0
 32 33  2  0
 33 34  1  0
 33 35  1  0
 35 36  2  0
 36 37  1  0
 30 38  1  0
 38 39  2  0
 26 40  1  0
 16 14  1  0
 40 23  1  0
 22 16  1  0
 39 27  1  0
 36 31  1  0
M  END
>  <Affinity>  (2) 
70.0

>  <Affinity Type>  (2) 
IC50

>  <Affinity Unit>  (2) 
nM

>  <Scaffold>  (2) 
[#6&!R]-&!@[#6&!R]-&!@[#6&!R](=&!@[#8&!R])-&!@[#6&!R]-&!@[#6&!R]-&!@[#6&!R]-&!@[#6&!R]-&!@[#6&!R]-&!@[#6&!R](-&!@[#7&!R]-&!@[#6&!R](=&!@[#8&!R])-&!@[#6&R]1-&@[#6&R]-&@[#6&R]-&@12-&@[#6&R]-&@[#6&R]-&@[#7&R](-&@[#6&R]-&@[#6&R]-&@2)-&!@[#6&!R])-&!@[#6&R]1:&@[#7&R]:&@[#6&R]:&@[#6&R](:&@[#7&R]:&@1)-&!@[#6&R]

$$$$
Q92769_Sries57339_idx-in-all-actives-428
     RDKit          2D

 37 40  0  0  0  0  0  0  0  0999 V2000
   14.7990   -8.5442    0.0000 C   0  0  0  0  0  0  0  0  0  0  0  0
   13.2990   -8.5442    0.0000 C   0  0  0  0  0  0  0  0  0  0  0  0
   12.5490   -7.2452    0.0000 C   0  0  0  0  0  0  0  0  0  0  0  0
   13.2990   -5.9462    0.0000 O   0  0  0  0  0  0  0  0  0  0  0  0
   11.0490   -7.2452    0.0000 C   0  0  0  0  0  0  0  0  0  0  0  0
   10.2990   -5.9462    0.0000 C   0  0  0  0  0  0  0  0  0  0  0  0
    8.7990   -5.9462    0.0000 C   0  0  0  0  0  0  0  0  0  0  0  0
    8.0490   -4.6471    0.0000 C   0  0  0  0  0  0  0  0  0  0  0  0
    6.5490   -4.6471    0.0000 C   0  0  0  0  0  0  0  0  0  0  0  0
    5.7990   -3.3481    0.0000 C   0  0  0  0  0  0  0  0  0  0  0  0
    4.2990   -3.3481    0.0000 N   0  0  0  0  0  0  0  0  0  0  0  0
    3.5490   -2.0490    0.0000 C   0  0  0  0  0  0  0  0  0  0  0  0
    4.2990   -0.7500    0.0000 O   0  0  0  0  0  0  0  0  0  0  0  0
    2.0490   -2.0490    0.0000 C   0  0  0  0  0  0  0  0  0  0  0  0
    0.7500   -2.7990    0.0000 C   0  0  0  0  0  0  0  0  0  0  0  0
    0.7500   -1.2990    0.0000 C   0  0  0  0  0  0  0  0  0  0  0  0
    1.5000    0.0000    0.0000 C   0  0  0  0  0  0  0  0  0  0  0  0
    0.7500    1.2990    0.0000 C   0  0  0  0  0  0  0  0  0  0  0  0
   -0.7500    1.2990    0.0000 N   0  0  0  0  0  0  0  0  0  0  0  0
   -1.5000    2.5981    0.0000 C   0  0  0  0  0  0  0  0  0  0  0  0
   -0.7500    3.8971    0.0000 C   0  0  0  0  0  0  0  0  0  0  0  0
   -1.5000    0.0000    0.0000 C   0  0  0  0  0  0  0  0  0  0  0  0
   -0.7500   -1.2990    0.0000 C   0  0  0  0  0  0  0  0  0  0  0  0
    6.5490   -2.0490    0.0000 C   0  0  0  0  0  0  0  0  0  0  0  0
    5.9389   -0.6787    0.0000 N   0  0  0  0  0  0  0  0  0  0  0  0
    7.0537    0.3250    0.0000 C   0  0  0  0  0  0  0  0  0  0  0  0
    8.3527   -0.4250    0.0000 C   0  0  0  0  0  0  0  0  0  0  0  0
    9.7230    0.1851    0.0000 C   0  0  0  0  0  0  0  0  0  0  0  0
   10.9365   -0.6966    0.0000 C   0  0  0  0  0  0  0  0  0  0  0  0
   12.3069   -0.0865    0.0000 C   0  0  0  0  0  0  0  0  0  0  0  0
   12.4636    1.4053    0.0000 C   0  0  0  0  0  0  0  0  0  0  0  0
   11.2501    2.2870    0.0000 C   0  0  0  0  0  0  0  0  0  0  0  0
   11.4069    3.7788    0.0000 Cl  0  0  0  0  0  0  0  0  0  0  0  0
    9.8798    1.6769    0.0000 C   0  0  0  0  0  0  0  0  0  0  0  0
    8.6663    2.5585    0.0000 O   0  0  0  0  0  0  0  0  0  0  0  0
    8.8231    4.0503    0.0000 C   0  0  0  0  0  0  0  0  0  0  0  0
    8.0408   -1.8922    0.0000 N   0  0  0  0  0  0  0  0  0  0  0  0
  1  2  1  0
  2  3  1  0
  3  4  2  0
  3  5  1  0
  5  6  1  0
  6  7  1  0
  7  8  1  0
  8  9  1  0
 10  9  1  6
 10 11  1  0
 11 12  1  0
 12 13  2  0
 14 12  1  1
 14 15  1  0
 15 16  1  0
 16 17  1  0
 17 18  1  0
 18 19  1  0
 19 20  1  0
 20 21  1  0
 19 22  1  0
 22 23  1  0
 10 24  1  0
 24 25  2  0
 25 26  1  0
 26 27  2  0
 27 28  1  0
 28 29  2  0
 29 30  1  0
 30 31  2  0
 31 32  1  0
 32 33  1  0
 32 34  2  0
 34 35  1  0
 35 36  1  0
 27 37  1  0
 16 14  1  0
 37 24  1  0
 23 16  1  0
 34 28  1  0
M  END
>  <Affinity>  (3) 
34.0

>  <Affinity Type>  (3) 
IC50

>  <Affinity Unit>  (3) 
nM

>  <Scaffold>  (3) 
[#6&!R]-&!@[#6&!R]-&!@[#6&!R](=&!@[#8&!R])-&!@[#6&!R]-&!@[#6&!R]-&!@[#6&!R]-&!@[#6&!R]-&!@[#6&!R]-&!@[#6&!R](-&!@[#7&!R]-&!@[#6&!R](=&!@[#8&!R])-&!@[#6&R]1-&@[#6&R]-&@[#6&R]-&@12-&@[#6&R]-&@[#6&R]-&@[#7&R](-&@[#6&R]-&@[#6&R]-&@2)-&!@[#6&!R])-&!@[#6&R]1:&@[#7&R]:&@[#6&R]:&@[#6&R](:&@[#7&R]:&@1)-&!@[#6&R]

$$$$
Q92769_Sries57339_idx-in-all-actives-416
     RDKit          2D

 40 44  0  0  0  0  0  0  0  0999 V2000
   10.7824  -15.8378    0.0000 C   0  0  0  0  0  0  0  0  0  0  0  0
    9.4121  -15.2277    0.0000 C   0  0  0  0  0  0  0  0  0  0  0  0
    9.2553  -13.7359    0.0000 C   0  0  0  0  0  0  0  0  0  0  0  0
   10.4688  -12.8543    0.0000 O   0  0  0  0  0  0  0  0  0  0  0  0
    7.8850  -13.1258    0.0000 C   0  0  0  0  0  0  0  0  0  0  0  0
    7.7282  -11.6340    0.0000 C   0  0  0  0  0  0  0  0  0  0  0  0
    6.3579  -11.0239    0.0000 C   0  0  0  0  0  0  0  0  0  0  0  0
    6.2011   -9.5322    0.0000 C   0  0  0  0  0  0  0  0  0  0  0  0
    4.8308   -8.9221    0.0000 C   0  0  0  0  0  0  0  0  0  0  0  0
    4.6740   -7.4303    0.0000 C   0  0  0  0  0  0  0  0  0  0  0  0
    5.8875   -6.5486    0.0000 N   0  0  0  0  0  0  0  0  0  0  0  0
    7.2578   -7.1587    0.0000 C   0  0  0  0  0  0  0  0  0  0  0  0
    7.4146   -8.6505    0.0000 O   0  0  0  0  0  0  0  0  0  0  0  0
    8.4713   -6.2770    0.0000 C   0  0  0  0  0  0  0  0  0  0  0  0
    9.0814   -4.9067    0.0000 C   0  0  0  0  0  0  0  0  0  0  0  0
    9.9631   -6.1202    0.0000 C   0  0  0  0  0  0  0  0  0  0  0  0
   10.1199   -7.6120    0.0000 C   0  0  0  0  0  0  0  0  0  0  0  0
   11.4902   -8.2221    0.0000 C   0  0  0  0  0  0  0  0  0  0  0  0
   12.7038   -7.3404    0.0000 N   0  0  0  0  0  0  0  0  0  0  0  0
   14.0741   -7.9505    0.0000 C   0  0  0  0  0  0  0  0  0  0  0  0
   14.2309   -9.4423    0.0000 C   0  0  0  0  0  0  0  0  0  0  0  0
   12.5470   -5.8487    0.0000 C   0  0  0  0  0  0  0  0  0  0  0  0
   11.1766   -5.2386    0.0000 C   0  0  0  0  0  0  0  0  0  0  0  0
    3.3037   -6.8202    0.0000 C   0  0  0  0  0  0  0  0  0  0  0  0
    2.0046   -7.5702    0.0000 N   0  0  0  0  0  0  0  0  0  0  0  0
    0.8899   -6.5665    0.0000 C   0  0  0  0  0  0  0  0  0  0  0  0
    1.5000   -5.1962    0.0000 C   0  0  0  0  0  0  0  0  0  0  0  0
    0.7500   -3.8971    0.0000 C   0  0  0  0  0  0  0  0  0  0  0  0
    1.5000   -2.5981    0.0000 C   0  0  0  0  0  0  0  0  0  0  0  0
    0.7500   -1.2990    0.0000 C   0  0  0  0  0  0  0  0  0  0  0  0
    1.5000    0.0000    0.0000 C   0  0  0  0  0  0  0  0  0  0  0  0
    0.7500    1.2990    0.0000 C   0  0  0  0  0  0  0  0  0  0  0  0
   -0.7500    1.2990    0.0000 C   0  0  0  0  0  0  0  0  0  0  0  0
   -1.5000    0.0000    0.0000 C   0  0  0  0  0  0  0  0  0  0  0  0
   -0.7500   -1.2990    0.0000 C   0  0  0  0  0  0  0  0  0  0  0  0
   -1.5000   -2.5981    0.0000 N   0  0  0  0  0  0  0  0  0  0  0  0
   -0.7500   -3.8971    0.0000 C   0  0  0  0  0  0  0  0  0  0  0  0
   -1.5000   -5.1962    0.0000 O   0  0  0  0  0  0  0  0  0  0  0  0
   -3.0000   -5.1962    0.0000 C   0  0  0  0  0  0  0  0  0  0  0  0
    2.9918   -5.3529    0.0000 N   0  0  0  0  0  0  0  0  0  0  0  0
  1  2  1  0
  2  3  1  0
  3  4  2  0
  3  5  1  0
  5  6  1  0
  6  7  1  0
  7  8  1  0
  8  9  1  0
 10  9  1  1
 10 11  1  0
 11 12  1  0
 12 13  2  0
 14 12  1  1
 14 15  1  0
 15 16  1  0
 16 17  1  0
 17 18  1  0
 18 19  1  0
 19 20  1  0
 20 21  1  0
 19 22  1  0
 22 23  1  0
 10 24  1  0
 24 25  2  0
 25 26  1  0
 26 27  2  0
 27 28  1  0
 28 29  2  0
 29 30  1  0
 30 31  2  0
 31 32  1  0
 32 33  2  0
 33 34  1  0
 34 35  2  0
 35 36  1  0
 36 37  2  0
 37 38  1  0
 38 39  1  0
 27 40  1  0
 16 14  1  0
 40 24  1  0
 23 16  1  0
 37 28  1  0
 35 30  1  0
M  END
>  <Affinity>  (4) 
749.0

>  <Affinity Type>  (4) 
IC50

>  <Affinity Unit>  (4) 
nM

>  <Scaffold>  (4) 
[#6&!R]-&!@[#6&!R]-&!@[#6&!R](=&!@[#8&!R])-&!@[#6&!R]-&!@[#6&!R]-&!@[#6&!R]-&!@[#6&!R]-&!@[#6&!R]-&!@[#6&!R](-&!@[#7&!R]-&!@[#6&!R](=&!@[#8&!R])-&!@[#6&R]1-&@[#6&R]-&@[#6&R]-&@12-&@[#6&R]-&@[#6&R]-&@[#7&R](-&@[#6&R]-&@[#6&R]-&@2)-&!@[#6&!R])-&!@[#6&R]1:&@[#7&R]:&@[#6&R]:&@[#6&R](:&@[#7&R]:&@1)-&!@[#6&R]

$$$$
Q92769_Sries57339_idx-in-all-actives-406
     RDKit          2D

 36 39  0  0  0  0  0  0  0  0999 V2000
   14.7990   -8.5442    0.0000 C   0  0  0  0  0  0  0  0  0  0  0  0
   13.2990   -8.5442    0.0000 C   0  0  0  0  0  0  0  0  0  0  0  0
   12.5490   -7.2452    0.0000 C   0  0  0  0  0  0  0  0  0  0  0  0
   13.2990   -5.9462    0.0000 O   0  0  0  0  0  0  0  0  0  0  0  0
   11.0490   -7.2452    0.0000 C   0  0  0  0  0  0  0  0  0  0  0  0
   10.2990   -5.9462    0.0000 C   0  0  0  0  0  0  0  0  0  0  0  0
    8.7990   -5.9462    0.0000 C   0  0  0  0  0  0  0  0  0  0  0  0
    8.0490   -4.6471    0.0000 C   0  0  0  0  0  0  0  0  0  0  0  0
    6.5490   -4.6471    0.0000 C   0  0  0  0  0  0  0  0  0  0  0  0
    5.7990   -3.3481    0.0000 C   0  0  0  0  0  0  0  0  0  0  0  0
    4.2990   -3.3481    0.0000 N   0  0  0  0  0  0  0  0  0  0  0  0
    3.5490   -2.0490    0.0000 C   0  0  0  0  0  0  0  0  0  0  0  0
    4.2990   -0.7500    0.0000 O   0  0  0  0  0  0  0  0  0  0  0  0
    2.0490   -2.0490    0.0000 C   0  0  0  0  0  0  0  0  0  0  0  0
    0.7500   -2.7990    0.0000 C   0  0  0  0  0  0  0  0  0  0  0  0
    0.7500   -1.2990    0.0000 C   0  0  0  0  0  0  0  0  0  0  0  0
    1.5000    0.0000    0.0000 C   0  0  0  0  0  0  0  0  0  0  0  0
    0.7500    1.2990    0.0000 C   0  0  0  0  0  0  0  0  0  0  0  0
   -0.7500    1.2990    0.0000 N   0  0  0  0  0  0  0  0  0  0  0  0
   -1.5000    2.5981    0.0000 C   0  0  0  0  0  0  0  0  0  0  0  0
   -1.5000    0.0000    0.0000 C   0  0  0  0  0  0  0  0  0  0  0  0
   -0.7500   -1.2990    0.0000 C   0  0  0  0  0  0  0  0  0  0  0  0
    6.5490   -2.0490    0.0000 C   0  0  0  0  0  0  0  0  0  0  0  0
    5.9389   -0.6787    0.0000 N   0  0  0  0  0  0  0  0  0  0  0  0
    7.0537    0.3250    0.0000 C   0  0  0  0  0  0  0  0  0  0  0  0
    8.3527   -0.4250    0.0000 C   0  0  0  0  0  0  0  0  0  0  0  0
    9.7230    0.1851    0.0000 C   0  0  0  0  0  0  0  0  0  0  0  0
   10.9365   -0.6966    0.0000 C   0  0  0  0  0  0  0  0  0  0  0  0
   12.3069   -0.0865    0.0000 C   0  0  0  0  0  0  0  0  0  0  0  0
   12.4636    1.4053    0.0000 C   0  0  0  0  0  0  0  0  0  0  0  0
   13.8340    2.0154    0.0000 C   0  0  0  0  0  0  0  0  0  0  0  0
   11.2501    2.2870    0.0000 N   0  0  0  0  0  0  0  0  0  0  0  0
    9.8798    1.6769    0.0000 C   0  0  0  0  0  0  0  0  0  0  0  0
    8.6663    2.5585    0.0000 O   0  0  0  0  0  0  0  0  0  0  0  0
    8.8231    4.0503    0.0000 C   0  0  0  0  0  0  0  0  0  0  0  0
    8.0408   -1.8922    0.0000 N   0  0  0  0  0  0  0  0  0  0  0  0
  1  2  1  0
  2  3  1  0
  3  4  2  0
  3  5  1  0
  5  6  1  0
  6  7  1  0
  7  8  1  0
  8  9  1  0
 10  9  1  6
 10 11  1  0
 11 12  1  0
 12 13  2  0
 14 12  1  1
 14 15  1  0
 15 16  1  0
 16 17  1  0
 17 18  1  0
 18 19  1  0
 19 20  1  0
 19 21  1  0
 21 22  1  0
 10 23  1  0
 23 24  2  0
 24 25  1  0
 25 26  2  0
 26 27  1  0
 27 28  2  0
 28 29  1  0
 29 30  2  0
 30 31  1  0
 30 32  1  0
 32 33  2  0
 33 34  1  0
 34 35  1  0
 26 36  1  0
 16 14  1  0
 36 23  1  0
 22 16  1  0
 33 27  1  0
M  END
>  <Affinity>  (5) 
18.0

>  <Affinity Type>  (5) 
IC50

>  <Affinity Unit>  (5) 
nM

>  <Scaffold>  (5) 
[#6&!R]-&!@[#6&!R]-&!@[#6&!R](=&!@[#8&!R])-&!@[#6&!R]-&!@[#6&!R]-&!@[#6&!R]-&!@[#6&!R]-&!@[#6&!R]-&!@[#6&!R](-&!@[#7&!R]-&!@[#6&!R](=&!@[#8&!R])-&!@[#6&R]1-&@[#6&R]-&@[#6&R]-&@12-&@[#6&R]-&@[#6&R]-&@[#7&R](-&@[#6&R]-&@[#6&R]-&@2)-&!@[#6&!R])-&!@[#6&R]1:&@[#7&R]:&@[#6&R]:&@[#6&R](:&@[#7&R]:&@1)-&!@[#6&R]

$$$$
Q92769_Sries57339_idx-in-all-actives-429
     RDKit          2D

 38 41  0  0  0  0  0  0  0  0999 V2000
   14.7990   -8.5442    0.0000 C   0  0  0  0  0  0  0  0  0  0  0  0
   13.2990   -8.5442    0.0000 C   0  0  0  0  0  0  0  0  0  0  0  0
   12.5490   -7.2452    0.0000 C   0  0  0  0  0  0  0  0  0  0  0  0
   13.2990   -5.9462    0.0000 O   0  0  0  0  0  0  0  0  0  0  0  0
   11.0490   -7.2452    0.0000 C   0  0  0  0  0  0  0  0  0  0  0  0
   10.2990   -5.9462    0.0000 C   0  0  0  0  0  0  0  0  0  0  0  0
    8.7990   -5.9462    0.0000 C   0  0  0  0  0  0  0  0  0  0  0  0
    8.0490   -4.6471    0.0000 C   0  0  0  0  0  0  0  0  0  0  0  0
    6.5490   -4.6471    0.0000 C   0  0  0  0  0  0  0  0  0  0  0  0
    5.7990   -3.3481    0.0000 C   0  0  0  0  0  0  0  0  0  0  0  0
    4.2990   -3.3481    0.0000 N   0  0  0  0  0  0  0  0  0  0  0  0
    3.5490   -2.0490    0.0000 C   0  0  0  0  0  0  0  0  0  0  0  0
    4.2990   -0.7500    0.0000 O   0  0  0  0  0  0  0  0  0  0  0  0
    2.0490   -2.0490    0.0000 C   0  0  0  0  0  0  0  0  0  0  0  0
    0.7500   -2.7990    0.0000 C   0  0  0  0  0  0  0  0  0  0  0  0
    0.7500   -1.2990    0.0000 C   0  0  0  0  0  0  0  0  0  0  0  0
    1.5000    0.0000    0.0000 C   0  0  0  0  0  0  0  0  0  0  0  0
    0.7500    1.2990    0.0000 C   0  0  0  0  0  0  0  0  0  0  0  0
   -0.7500    1.2990    0.0000 N   0  0  0  0  0  0  0  0  0  0  0  0
   -1.5000    2.5981    0.0000 C   0  0  0  0  0  0  0  0  0  0  0  0
   -0.7500    3.8971    0.0000 C   0  0  0  0  0  0  0  0  0  0  0  0
   -1.5000    0.0000    0.0000 C   0  0  0  0  0  0  0  0  0  0  0  0
   -0.7500   -1.2990    0.0000 C   0  0  0  0  0  0  0  0  0  0  0  0
    6.5490   -2.0490    0.0000 C   0  0  0  0  0  0  0  0  0  0  0  0
    5.9389   -0.6787    0.0000 N   0  0  0  0  0  0  0  0  0  0  0  0
    7.0537    0.3250    0.0000 C   0  0  0  0  0  0  0  0  0  0  0  0
    8.3527   -0.4250    0.0000 C   0  0  0  0  0  0  0  0  0  0  0  0
    9.7230    0.1851    0.0000 C   0  0  0  0  0  0  0  0  0  0  0  0
   10.9365   -0.6966    0.0000 C   0  0  0  0  0  0  0  0  0  0  0  0
   12.3069   -0.0865    0.0000 C   0  0  0  0  0  0  0  0  0  0  0  0
   13.5204   -0.9682    0.0000 F   0  0  0  0  0  0  0  0  0  0  0  0
   12.4636    1.4053    0.0000 C   0  0  0  0  0  0  0  0  0  0  0  0
   11.2501    2.2870    0.0000 C   0  0  0  0  0  0  0  0  0  0  0  0
   11.4069    3.7788    0.0000 F   0  0  0  0  0  0  0  0  0  0  0  0
    9.8798    1.6769    0.0000 C   0  0  0  0  0  0  0  0  0  0  0  0
    8.6663    2.5585    0.0000 O   0  0  0  0  0  0  0  0  0  0  0  0
    8.8231    4.0503    0.0000 C   0  0  0  0  0  0  0  0  0  0  0  0
    8.0408   -1.8922    0.0000 N   0  0  0  0  0  0  0  0  0  0  0  0
  1  2  1  0
  2  3  1  0
  3  4  2  0
  3  5  1  0
  5  6  1  0
  6  7  1  0
  7  8  1  0
  8  9  1  0
 10  9  1  6
 10 11  1  0
 11 12  1  0
 12 13  2  0
 14 12  1  1
 14 15  1  0
 15 16  1  0
 16 17  1  0
 17 18  1  0
 18 19  1  0
 19 20  1  0
 20 21  1  0
 19 22  1  0
 22 23  1  0
 10 24  1  0
 24 25  2  0
 25 26  1  0
 26 27  2  0
 27 28  1  0
 28 29  2  0
 29 30  1  0
 30 31  1  0
 30 32  2  0
 32 33  1  0
 33 34  1  0
 33 35  2  0
 35 36  1  0
 36 37  1  0
 27 38  1  0
 16 14  1  0
 38 24  1  0
 23 16  1  0
 35 28  1  0
M  END
>  <Affinity>  (6) 
27.0

>  <Affinity Type>  (6) 
IC50

>  <Affinity Unit>  (6) 
nM

>  <Scaffold>  (6) 
[#6&!R]-&!@[#6&!R]-&!@[#6&!R](=&!@[#8&!R])-&!@[#6&!R]-&!@[#6&!R]-&!@[#6&!R]-&!@[#6&!R]-&!@[#6&!R]-&!@[#6&!R](-&!@[#7&!R]-&!@[#6&!R](=&!@[#8&!R])-&!@[#6&R]1-&@[#6&R]-&@[#6&R]-&@12-&@[#6&R]-&@[#6&R]-&@[#7&R](-&@[#6&R]-&@[#6&R]-&@2)-&!@[#6&!R])-&!@[#6&R]1:&@[#7&R]:&@[#6&R]:&@[#6&R](:&@[#7&R]:&@1)-&!@[#6&R]

$$$$
Q92769_Sries57339_idx-in-all-actives-417
     RDKit          2D

 37 40  0  0  0  0  0  0  0  0999 V2000
   14.7990   -8.5442    0.0000 C   0  0  0  0  0  0  0  0  0  0  0  0
   13.2990   -8.5442    0.0000 C   0  0  0  0  0  0  0  0  0  0  0  0
   12.5490   -7.2452    0.0000 C   0  0  0  0  0  0  0  0  0  0  0  0
   13.2990   -5.9462    0.0000 O   0  0  0  0  0  0  0  0  0  0  0  0
   11.0490   -7.2452    0.0000 C   0  0  0  0  0  0  0  0  0  0  0  0
   10.2990   -5.9462    0.0000 C   0  0  0  0  0  0  0  0  0  0  0  0
    8.7990   -5.9462    0.0000 C   0  0  0  0  0  0  0  0  0  0  0  0
    8.0490   -4.6471    0.0000 C   0  0  0  0  0  0  0  0  0  0  0  0
    6.5490   -4.6471    0.0000 C   0  0  0  0  0  0  0  0  0  0  0  0
    5.7990   -3.3481    0.0000 C   0  0  0  0  0  0  0  0  0  0  0  0
    4.2990   -3.3481    0.0000 N   0  0  0  0  0  0  0  0  0  0  0  0
    3.5490   -2.0490    0.0000 C   0  0  0  0  0  0  0  0  0  0  0  0
    4.2990   -0.7500    0.0000 O   0  0  0  0  0  0  0  0  0  0  0  0
    2.0490   -2.0490    0.0000 C   0  0  0  0  0  0  0  0  0  0  0  0
    0.7500   -2.7990    0.0000 C   0  0  0  0  0  0  0  0  0  0  0  0
    0.7500   -1.2990    0.0000 C   0  0  0  0  0  0  0  0  0  0  0  0
    1.5000    0.0000    0.0000 C   0  0  0  0  0  0  0  0  0  0  0  0
    0.7500    1.2990    0.0000 C   0  0  0  0  0  0  0  0  0  0  0  0
   -0.7500    1.2990    0.0000 N   0  0  0  0  0  0  0  0  0  0  0  0
   -1.5000    2.5981    0.0000 C   0  0  0  0  0  0  0  0  0  0  0  0
   -0.7500    3.8971    0.0000 C   0  0  0  0  0  0  0  0  0  0  0  0
   -1.5000    0.0000    0.0000 C   0  0  0  0  0  0  0  0  0  0  0  0
   -0.7500   -1.2990    0.0000 C   0  0  0  0  0  0  0  0  0  0  0  0
    6.5490   -2.0490    0.0000 C   0  0  0  0  0  0  0  0  0  0  0  0
    5.9389   -0.6787    0.0000 N   0  0  0  0  0  0  0  0  0  0  0  0
    7.0537    0.3250    0.0000 C   0  0  0  0  0  0  0  0  0  0  0  0
    8.3527   -0.4250    0.0000 C   0  0  0  0  0  0  0  0  0  0  0  0
    9.7230    0.1851    0.0000 C   0  0  0  0  0  0  0  0  0  0  0  0
   10.9365   -0.6966    0.0000 C   0  0  0  0  0  0  0  0  0  0  0  0
   12.3069   -0.0865    0.0000 C   0  0  0  0  0  0  0  0  0  0  0  0
   13.5204   -0.9682    0.0000 C   0  0  0  0  0  0  0  0  0  0  0  0
   12.4636    1.4053    0.0000 C   0  0  0  0  0  0  0  0  0  0  0  0
   11.2501    2.2870    0.0000 C   0  0  0  0  0  0  0  0  0  0  0  0
    9.8798    1.6769    0.0000 C   0  0  0  0  0  0  0  0  0  0  0  0
    8.6663    2.5585    0.0000 O   0  0  0  0  0  0  0  0  0  0  0  0
    8.8231    4.0503    0.0000 C   0  0  0  0  0  0  0  0  0  0  0  0
    8.0408   -1.8922    0.0000 N   0  0  0  0  0  0  0  0  0  0  0  0
  1  2  1  0
  2  3  1  0
  3  4  2  0
  3  5  1  0
  5  6  1  0
  6  7  1  0
  7  8  1  0
  8  9  1  0
 10  9  1  6
 10 11  1  0
 11 12  1  0
 12 13  2  0
 14 12  1  1
 14 15  1  0
 15 16  1  0
 16 17  1  0
 17 18  1  0
 18 19  1  0
 19 20  1  0
 20 21  1  0
 19 22  1  0
 22 23  1  0
 10 24  1  0
 24 25  2  0
 25 26  1  0
 26 27  2  0
 27 28  1  0
 28 29  2  0
 29 30  1  0
 30 31  1  0
 30 32  2  0
 32 33  1  0
 33 34  2  0
 34 35  1  0
 35 36  1  0
 27 37  1  0
 16 14  1  0
 37 24  1  0
 23 16  1  0
 34 28  1  0
M  END
>  <Affinity>  (7) 
2.0

>  <Affinity Type>  (7) 
IC50

>  <Affinity Unit>  (7) 
nM

>  <Scaffold>  (7) 
[#6&!R]-&!@[#6&!R]-&!@[#6&!R](=&!@[#8&!R])-&!@[#6&!R]-&!@[#6&!R]-&!@[#6&!R]-&!@[#6&!R]-&!@[#6&!R]-&!@[#6&!R](-&!@[#7&!R]-&!@[#6&!R](=&!@[#8&!R])-&!@[#6&R]1-&@[#6&R]-&@[#6&R]-&@12-&@[#6&R]-&@[#6&R]-&@[#7&R](-&@[#6&R]-&@[#6&R]-&@2)-&!@[#6&!R])-&!@[#6&R]1:&@[#7&R]:&@[#6&R]:&@[#6&R](:&@[#7&R]:&@1)-&!@[#6&R]

$$$$
Q92769_Sries57339_idx-in-all-actives-400
     RDKit          2D

 37 41  0  0  0  0  0  0  0  0999 V2000
   -6.0748  -18.5558    0.0000 C   0  0  0  0  0  0  0  0  0  0  0  0
   -6.2315  -17.0640    0.0000 C   0  0  0  0  0  0  0  0  0  0  0  0
   -5.0180  -16.1823    0.0000 C   0  0  0  0  0  0  0  0  0  0  0  0
   -3.6477  -16.7924    0.0000 O   0  0  0  0  0  0  0  0  0  0  0  0
   -5.1748  -14.6905    0.0000 C   0  0  0  0  0  0  0  0  0  0  0  0
   -3.9613  -13.8089    0.0000 C   0  0  0  0  0  0  0  0  0  0  0  0
   -4.1181  -12.3171    0.0000 C   0  0  0  0  0  0  0  0  0  0  0  0
   -2.9046  -11.4354    0.0000 C   0  0  0  0  0  0  0  0  0  0  0  0
   -3.0613   -9.9436    0.0000 C   0  0  0  0  0  0  0  0  0  0  0  0
   -1.8478   -9.0619    0.0000 C   0  0  0  0  0  0  0  0  0  0  0  0
   -0.4775   -9.6721    0.0000 N   0  0  0  0  0  0  0  0  0  0  0  0
   -0.3207  -11.1638    0.0000 C   0  0  0  0  0  0  0  0  0  0  0  0
   -1.5342  -12.0455    0.0000 O   0  0  0  0  0  0  0  0  0  0  0  0
    1.0496  -11.7739    0.0000 C   0  0  0  0  0  0  0  0  0  0  0  0
    2.5414  -11.6171    0.0000 C   0  0  0  0  0  0  0  0  0  0  0  0
    1.9313  -12.9875    0.0000 C   0  0  0  0  0  0  0  0  0  0  0  0
    0.7178  -13.8691    0.0000 C   0  0  0  0  0  0  0  0  0  0  0  0
    0.8746  -15.3609    0.0000 C   0  0  0  0  0  0  0  0  0  0  0  0
    2.2449  -15.9710    0.0000 N   0  0  0  0  0  0  0  0  0  0  0  0
    2.4017  -17.4628    0.0000 C   0  0  0  0  0  0  0  0  0  0  0  0
    3.4584  -15.0894    0.0000 C   0  0  0  0  0  0  0  0  0  0  0  0
    3.3016  -13.5976    0.0000 C   0  0  0  0  0  0  0  0  0  0  0  0
   -2.0046   -7.5702    0.0000 C   0  0  0  0  0  0  0  0  0  0  0  0
   -3.3037   -6.8202    0.0000 N   0  0  0  0  0  0  0  0  0  0  0  0
   -2.9918   -5.3529    0.0000 C   0  0  0  0  0  0  0  0  0  0  0  0
   -1.5000   -5.1962    0.0000 C   0  0  0  0  0  0  0  0  0  0  0  0
   -0.7500   -3.8971    0.0000 C   0  0  0  0  0  0  0  0  0  0  0  0
    0.7500   -3.8971    0.0000 C   0  0  0  0  0  0  0  0  0  0  0  0
    1.5000   -2.5981    0.0000 N   0  0  0  0  0  0  0  0  0  0  0  0
    0.7500   -1.2990    0.0000 C   0  0  0  0  0  0  0  0  0  0  0  0
    1.5000    0.0000    0.0000 C   0  0  0  0  0  0  0  0  0  0  0  0
    0.7500    1.2990    0.0000 C   0  0  0  0  0  0  0  0  0  0  0  0
   -0.7500    1.2990    0.0000 C   0  0  0  0  0  0  0  0  0  0  0  0
   -1.5000    0.0000    0.0000 N   0  0  0  0  0  0  0  0  0  0  0  0
   -0.7500   -1.2990    0.0000 C   0  0  0  0  0  0  0  0  0  0  0  0
   -1.5000   -2.5981    0.0000 C   0  0  0  0  0  0  0  0  0  0  0  0
   -0.8899   -6.5665    0.0000 N   0  0  0  0  0  0  0  0  0  0  0  0
  1  2  1  0
  2  3  1  0
  3  4  2  0
  3  5  1  0
  5  6  1  0
  6  7  1  0
  7  8  1  0
  8  9  1  0
 10  9  1  1
 10 11  1  0
 11 12  1  0
 12 13  2  0
 14 12  1  1
 14 15  1  0
 15 16  1  0
 16 17  1  0
 17 18  1  0
 18 19  1  0
 19 20  1  0
 19 21  1  0
 21 22  1  0
 10 23  1  0
 23 24  2  0
 24 25  1  0
 25 26  2  0
 26 27  1  0
 27 28  2  0
 28 29  1  0
 29 30  2  0
 30 31  1  0
 31 32  2  0
 32 33  1  0
 33 34  2  0
 34 35  1  0
 35 36  2  0
 26 37  1  0
 16 14  1  0
 37 23  1  0
 22 16  1  0
 36 27  1  0
 35 30  1  0
M  END
>  <Affinity>  (8) 
92.0

>  <Affinity Type>  (8) 
IC50

>  <Affinity Unit>  (8) 
nM

>  <Scaffold>  (8) 
[#6&!R]-&!@[#6&!R]-&!@[#6&!R](=&!@[#8&!R])-&!@[#6&!R]-&!@[#6&!R]-&!@[#6&!R]-&!@[#6&!R]-&!@[#6&!R]-&!@[#6&!R](-&!@[#7&!R]-&!@[#6&!R](=&!@[#8&!R])-&!@[#6&R]1-&@[#6&R]-&@[#6&R]-&@12-&@[#6&R]-&@[#6&R]-&@[#7&R](-&@[#6&R]-&@[#6&R]-&@2)-&!@[#6&!R])-&!@[#6&R]1:&@[#7&R]:&@[#6&R]:&@[#6&R](:&@[#7&R]:&@1)-&!@[#6&R]

$$$$
Q92769_Sries57339_idx-in-all-actives-430
     RDKit          2D

 41 44  0  0  0  0  0  0  0  0999 V2000
   14.7990   -8.5442    0.0000 C   0  0  0  0  0  0  0  0  0  0  0  0
   13.2990   -8.5442    0.0000 C   0  0  0  0  0  0  0  0  0  0  0  0
   12.5490   -7.2452    0.0000 C   0  0  0  0  0  0  0  0  0  0  0  0
   13.2990   -5.9462    0.0000 O   0  0  0  0  0  0  0  0  0  0  0  0
   11.0490   -7.2452    0.0000 C   0  0  0  0  0  0  0  0  0  0  0  0
   10.2990   -5.9462    0.0000 C   0  0  0  0  0  0  0  0  0  0  0  0
    8.7990   -5.9462    0.0000 C   0  0  0  0  0  0  0  0  0  0  0  0
    8.0490   -4.6471    0.0000 C   0  0  0  0  0  0  0  0  0  0  0  0
    6.5490   -4.6471    0.0000 C   0  0  0  0  0  0  0  0  0  0  0  0
    5.7990   -3.3481    0.0000 C   0  0  0  0  0  0  0  0  0  0  0  0
    4.2990   -3.3481    0.0000 N   0  0  0  0  0  0  0  0  0  0  0  0
    3.5490   -2.0490    0.0000 C   0  0  0  0  0  0  0  0  0  0  0  0
    4.2990   -0.7500    0.0000 O   0  0  0  0  0  0  0  0  0  0  0  0
    2.0490   -2.0490    0.0000 C   0  0  0  0  0  0  0  0  0  0  0  0
    0.7500   -2.7990    0.0000 C   0  0  0  0  0  0  0  0  0  0  0  0
    0.7500   -1.2990    0.0000 C   0  0  0  0  0  0  0  0  0  0  0  0
    1.5000    0.0000    0.0000 C   0  0  0  0  0  0  0  0  0  0  0  0
    0.7500    1.2990    0.0000 C   0  0  0  0  0  0  0  0  0  0  0  0
   -0.7500    1.2990    0.0000 N   0  0  0  0  0  0  0  0  0  0  0  0
   -1.5000    2.5981    0.0000 C   0  0  0  0  0  0  0  0  0  0  0  0
   -0.7500    3.8971    0.0000 C   0  0  0  0  0  0  0  0  0  0  0  0
   -1.5000    0.0000    0.0000 C   0  0  0  0  0  0  0  0  0  0  0  0
   -0.7500   -1.2990    0.0000 C   0  0  0  0  0  0  0  0  0  0  0  0
    6.5490   -2.0490    0.0000 C   0  0  0  0  0  0  0  0  0  0  0  0
    5.9389   -0.6787    0.0000 N   0  0  0  0  0  0  0  0  0  0  0  0
    7.0537    0.3250    0.0000 C   0  0  0  0  0  0  0  0  0  0  0  0
    8.3527   -0.4250    0.0000 C   0  0  0  0  0  0  0  0  0  0  0  0
    9.7230    0.1851    0.0000 C   0  0  0  0  0  0  0  0  0  0  0  0
   10.9365   -0.6966    0.0000 C   0  0  0  0  0  0  0  0  0  0  0  0
   12.3069   -0.0865    0.0000 C   0  0  0  0  0  0  0  0  0  0  0  0
   13.5204   -0.9682    0.0000 C   0  0  0  0  0  0  0  0  0  0  0  0
   13.3636   -2.4600    0.0000 O   0  0  0  0  0  0  0  0  0  0  0  0
   14.8907   -0.3581    0.0000 O   0  0  0  0  0  0  0  0  0  0  0  0
   16.1042   -1.2397    0.0000 C   0  0  0  0  0  0  0  0  0  0  0  0
   12.4636    1.4053    0.0000 C   0  0  0  0  0  0  0  0  0  0  0  0
   13.8340    2.0154    0.0000 F   0  0  0  0  0  0  0  0  0  0  0  0
   11.2501    2.2870    0.0000 C   0  0  0  0  0  0  0  0  0  0  0  0
    9.8798    1.6769    0.0000 C   0  0  0  0  0  0  0  0  0  0  0  0
    8.6663    2.5585    0.0000 O   0  0  0  0  0  0  0  0  0  0  0  0
    8.8231    4.0503    0.0000 C   0  0  0  0  0  0  0  0  0  0  0  0
    8.0408   -1.8922    0.0000 N   0  0  0  0  0  0  0  0  0  0  0  0
  1  2  1  0
  2  3  1  0
  3  4  2  0
  3  5  1  0
  5  6  1  0
  6  7  1  0
  7  8  1  0
  8  9  1  0
 10  9  1  6
 10 11  1  0
 11 12  1  0
 12 13  2  0
 14 12  1  1
 14 15  1  0
 15 16  1  0
 16 17  1  0
 17 18  1  0
 18 19  1  0
 19 20  1  0
 20 21  1  0
 19 22  1  0
 22 23  1  0
 10 24  1  0
 24 25  2  0
 25 26  1  0
 26 27  2  0
 27 28  1  0
 28 29  2  0
 29 30  1  0
 30 31  1  0
 31 32  2  0
 31 33  1  0
 33 34  1  0
 30 35  2  0
 35 36  1  0
 35 37  1  0
 37 38  2  0
 38 39  1  0
 39 40  1  0
 27 41  1  0
 16 14  1  0
 41 24  1  0
 23 16  1  0
 38 28  1  0
M  END
>  <Affinity>  (9) 
154.0

>  <Affinity Type>  (9) 
IC50

>  <Affinity Unit>  (9) 
nM

>  <Scaffold>  (9) 
[#6&!R]-&!@[#6&!R]-&!@[#6&!R](=&!@[#8&!R])-&!@[#6&!R]-&!@[#6&!R]-&!@[#6&!R]-&!@[#6&!R]-&!@[#6&!R]-&!@[#6&!R](-&!@[#7&!R]-&!@[#6&!R](=&!@[#8&!R])-&!@[#6&R]1-&@[#6&R]-&@[#6&R]-&@12-&@[#6&R]-&@[#6&R]-&@[#7&R](-&@[#6&R]-&@[#6&R]-&@2)-&!@[#6&!R])-&!@[#6&R]1:&@[#7&R]:&@[#6&R]:&@[#6&R](:&@[#7&R]:&@1)-&!@[#6&R]

$$$$
Q92769_Sries57339_idx-in-all-actives-418
     RDKit          2D

 38 41  0  0  0  0  0  0  0  0999 V2000
   14.7990   -8.5442    0.0000 C   0  0  0  0  0  0  0  0  0  0  0  0
   13.2990   -8.5442    0.0000 C   0  0  0  0  0  0  0  0  0  0  0  0
   12.5490   -7.2452    0.0000 C   0  0  0  0  0  0  0  0  0  0  0  0
   13.2990   -5.9462    0.0000 O   0  0  0  0  0  0  0  0  0  0  0  0
   11.0490   -7.2452    0.0000 C   0  0  0  0  0  0  0  0  0  0  0  0
   10.2990   -5.9462    0.0000 C   0  0  0  0  0  0  0  0  0  0  0  0
    8.7990   -5.9462    0.0000 C   0  0  0  0  0  0  0  0  0  0  0  0
    8.0490   -4.6471    0.0000 C   0  0  0  0  0  0  0  0  0  0  0  0
    6.5490   -4.6471    0.0000 C   0  0  0  0  0  0  0  0  0  0  0  0
    5.7990   -3.3481    0.0000 C   0  0  0  0  0  0  0  0  0  0  0  0
    4.2990   -3.3481    0.0000 N   0  0  0  0  0  0  0  0  0  0  0  0
    3.5490   -2.0490    0.0000 C   0  0  0  0  0  0  0  0  0  0  0  0
    4.2990   -0.7500    0.0000 O   0  0  0  0  0  0  0  0  0  0  0  0
    2.0490   -2.0490    0.0000 C   0  0  0  0  0  0  0  0  0  0  0  0
    0.7500   -2.7990    0.0000 C   0  0  0  0  0  0  0  0  0  0  0  0
    0.7500   -1.2990    0.0000 C   0  0  0  0  0  0  0  0  0  0  0  0
    1.5000    0.0000    0.0000 C   0  0  0  0  0  0  0  0  0  0  0  0
    0.7500    1.2990    0.0000 C   0  0  0  0  0  0  0  0  0  0  0  0
   -0.7500    1.2990    0.0000 N   0  0  0  0  0  0  0  0  0  0  0  0
   -1.5000    2.5981    0.0000 C   0  0  0  0  0  0  0  0  0  0  0  0
   -0.7500    3.8971    0.0000 C   0  0  0  0  0  0  0  0  0  0  0  0
   -1.5000    0.0000    0.0000 C   0  0  0  0  0  0  0  0  0  0  0  0
   -0.7500   -1.2990    0.0000 C   0  0  0  0  0  0  0  0  0  0  0  0
    6.5490   -2.0490    0.0000 C   0  0  0  0  0  0  0  0  0  0  0  0
    5.9389   -0.6787    0.0000 N   0  0  0  0  0  0  0  0  0  0  0  0
    7.0537    0.3250    0.0000 C   0  0  0  0  0  0  0  0  0  0  0  0
    8.3527   -0.4250    0.0000 C   0  0  0  0  0  0  0  0  0  0  0  0
    9.7230    0.1851    0.0000 C   0  0  0  0  0  0  0  0  0  0  0  0
   10.9365   -0.6966    0.0000 C   0  0  0  0  0  0  0  0  0  0  0  0
   12.3069   -0.0865    0.0000 C   0  0  0  0  0  0  0  0  0  0  0  0
   13.5204   -0.9682    0.0000 F   0  0  0  0  0  0  0  0  0  0  0  0
   12.4636    1.4053    0.0000 C   0  0  0  0  0  0  0  0  0  0  0  0
   13.8340    2.0154    0.0000 F   0  0  0  0  0  0  0  0  0  0  0  0
   11.2501    2.2870    0.0000 C   0  0  0  0  0  0  0  0  0  0  0  0
    9.8798    1.6769    0.0000 C   0  0  0  0  0  0  0  0  0  0  0  0
    8.6663    2.5585    0.0000 O   0  0  0  0  0  0  0  0  0  0  0  0
    8.8231    4.0503    0.0000 C   0  0  0  0  0  0  0  0  0  0  0  0
    8.0408   -1.8922    0.0000 N   0  0  0  0  0  0  0  0  0  0  0  0
  1  2  1  0
  2  3  1  0
  3  4  2  0
  3  5  1  0
  5  6  1  0
  6  7  1  0
  7  8  1  0
  8  9  1  0
 10  9  1  6
 10 11  1  0
 11 12  1  0
 12 13  2  0
 14 12  1  1
 14 15  1  0
 15 16  1  0
 16 17  1  0
 17 18  1  0
 18 19  1  0
 19 20  1  0
 20 21  1  0
 19 22  1  0
 22 23  1  0
 10 24  1  0
 24 25  2  0
 25 26  1  0
 26 27  2  0
 27 28  1  0
 28 29  2  0
 29 30  1  0
 30 31  1  0
 30 32  2  0
 32 33  1  0
 32 34  1  0
 34 35  2  0
 35 36  1  0
 36 37  1  0
 27 38  1  0
 16 14  1  0
 38 24  1  0
 23 16  1  0
 35 28  1  0
M  END
>  <Affinity>  (10) 
27.0

>  <Affinity Type>  (10) 
IC50

>  <Affinity Unit>  (10) 
nM

>  <Scaffold>  (10) 
[#6&!R]-&!@[#6&!R]-&!@[#6&!R](=&!@[#8&!R])-&!@[#6&!R]-&!@[#6&!R]-&!@[#6&!R]-&!@[#6&!R]-&!@[#6&!R]-&!@[#6&!R](-&!@[#7&!R]-&!@[#6&!R](=&!@[#8&!R])-&!@[#6&R]1-&@[#6&R]-&@[#6&R]-&@12-&@[#6&R]-&@[#6&R]-&@[#7&R](-&@[#6&R]-&@[#6&R]-&@2)-&!@[#6&!R])-&!@[#6&R]1:&@[#7&R]:&@[#6&R]:&@[#6&R](:&@[#7&R]:&@1)-&!@[#6&R]

$$$$
Q92769_Sries57339_idx-in-all-actives-407
     RDKit          2D

 37 41  0  0  0  0  0  0  0  0999 V2000
   -6.0748  -18.5558    0.0000 C   0  0  0  0  0  0  0  0  0  0  0  0
   -6.2315  -17.0640    0.0000 C   0  0  0  0  0  0  0  0  0  0  0  0
   -5.0180  -16.1823    0.0000 C   0  0  0  0  0  0  0  0  0  0  0  0
   -3.6477  -16.7924    0.0000 O   0  0  0  0  0  0  0  0  0  0  0  0
   -5.1748  -14.6905    0.0000 C   0  0  0  0  0  0  0  0  0  0  0  0
   -3.9613  -13.8089    0.0000 C   0  0  0  0  0  0  0  0  0  0  0  0
   -4.1181  -12.3171    0.0000 C   0  0  0  0  0  0  0  0  0  0  0  0
   -2.9046  -11.4354    0.0000 C   0  0  0  0  0  0  0  0  0  0  0  0
   -3.0613   -9.9436    0.0000 C   0  0  0  0  0  0  0  0  0  0  0  0
   -1.8478   -9.0619    0.0000 C   0  0  0  0  0  0  0  0  0  0  0  0
   -0.4775   -9.6721    0.0000 N   0  0  0  0  0  0  0  0  0  0  0  0
   -0.3207  -11.1638    0.0000 C   0  0  0  0  0  0  0  0  0  0  0  0
   -1.5342  -12.0455    0.0000 O   0  0  0  0  0  0  0  0  0  0  0  0
    1.0496  -11.7739    0.0000 C   0  0  0  0  0  0  0  0  0  0  0  0
    2.5414  -11.6171    0.0000 C   0  0  0  0  0  0  0  0  0  0  0  0
    1.9313  -12.9875    0.0000 C   0  0  0  0  0  0  0  0  0  0  0  0
    0.7178  -13.8691    0.0000 C   0  0  0  0  0  0  0  0  0  0  0  0
    0.8746  -15.3609    0.0000 C   0  0  0  0  0  0  0  0  0  0  0  0
    2.2449  -15.9710    0.0000 N   0  0  0  0  0  0  0  0  0  0  0  0
    2.4017  -17.4628    0.0000 C   0  0  0  0  0  0  0  0  0  0  0  0
    3.4584  -15.0894    0.0000 C   0  0  0  0  0  0  0  0  0  0  0  0
    3.3016  -13.5976    0.0000 C   0  0  0  0  0  0  0  0  0  0  0  0
   -2.0046   -7.5702    0.0000 C   0  0  0  0  0  0  0  0  0  0  0  0
   -3.3037   -6.8202    0.0000 N   0  0  0  0  0  0  0  0  0  0  0  0
   -2.9918   -5.3529    0.0000 C   0  0  0  0  0  0  0  0  0  0  0  0
   -1.5000   -5.1962    0.0000 C   0  0  0  0  0  0  0  0  0  0  0  0
   -0.7500   -3.8971    0.0000 C   0  0  0  0  0  0  0  0  0  0  0  0
    0.7500   -3.8971    0.0000 C   0  0  0  0  0  0  0  0  0  0  0  0
    1.5000   -2.5981    0.0000 N   0  0  0  0  0  0  0  0  0  0  0  0
    0.7500   -1.2990    0.0000 C   0  0  0  0  0  0  0  0  0  0  0  0
    1.5000    0.0000    0.0000 C   0  0  0  0  0  0  0  0  0  0  0  0
    0.7500    1.2990    0.0000 C   0  0  0  0  0  0  0  0  0  0  0  0
   -0.7500    1.2990    0.0000 C   0  0  0  0  0  0  0  0  0  0  0  0
   -1.5000    0.0000    0.0000 C   0  0  0  0  0  0  0  0  0  0  0  0
   -0.7500   -1.2990    0.0000 C   0  0  0  0  0  0  0  0  0  0  0  0
   -1.5000   -2.5981    0.0000 C   0  0  0  0  0  0  0  0  0  0  0  0
   -0.8899   -6.5665    0.0000 N   0  0  0  0  0  0  0  0  0  0  0  0
  1  2  1  0
  2  3  1  0
  3  4  2  0
  3  5  1  0
  5  6  1  0
  6  7  1  0
  7  8  1  0
  8  9  1  0
 10  9  1  1
 10 11  1  0
 11 12  1  0
 12 13  2  0
 14 12  1  1
 14 15  1  0
 15 16  1  0
 16 17  1  0
 17 18  1  0
 18 19  1  0
 19 20  1  0
 19 21  1  0
 21 22  1  0
 10 23  1  0
 23 24  2  0
 24 25  1  0
 25 26  2  0
 26 27  1  0
 27 28  2  0
 28 29  1  0
 29 30  2  0
 30 31  1  0
 31 32  2  0
 32 33  1  0
 33 34  2  0
 34 35  1  0
 35 36  2  0
 26 37  1  0
 16 14  1  0
 37 23  1  0
 22 16  1  0
 36 27  1  0
 35 30  1  0
M  END
>  <Affinity>  (11) 
2.3

>  <Affinity Type>  (11) 
IC50

>  <Affinity Unit>  (11) 
nM

>  <Scaffold>  (11) 
[#6&!R]-&!@[#6&!R]-&!@[#6&!R](=&!@[#8&!R])-&!@[#6&!R]-&!@[#6&!R]-&!@[#6&!R]-&!@[#6&!R]-&!@[#6&!R]-&!@[#6&!R](-&!@[#7&!R]-&!@[#6&!R](=&!@[#8&!R])-&!@[#6&R]1-&@[#6&R]-&@[#6&R]-&@12-&@[#6&R]-&@[#6&R]-&@[#7&R](-&@[#6&R]-&@[#6&R]-&@2)-&!@[#6&!R])-&!@[#6&R]1:&@[#7&R]:&@[#6&R]:&@[#6&R](:&@[#7&R]:&@1)-&!@[#6&R]

$$$$
Q92769_Sries57339_idx-in-all-actives-431
     RDKit          2D

 38 41  0  0  0  0  0  0  0  0999 V2000
   14.7990   -8.5442    0.0000 C   0  0  0  0  0  0  0  0  0  0  0  0
   13.2990   -8.5442    0.0000 C   0  0  0  0  0  0  0  0  0  0  0  0
   12.5490   -7.2452    0.0000 C   0  0  0  0  0  0  0  0  0  0  0  0
   13.2990   -5.9462    0.0000 O   0  0  0  0  0  0  0  0  0  0  0  0
   11.0490   -7.2452    0.0000 C   0  0  0  0  0  0  0  0  0  0  0  0
   10.2990   -5.9462    0.0000 C   0  0  0  0  0  0  0  0  0  0  0  0
    8.7990   -5.9462    0.0000 C   0  0  0  0  0  0  0  0  0  0  0  0
    8.0490   -4.6471    0.0000 C   0  0  0  0  0  0  0  0  0  0  0  0
    6.5490   -4.6471    0.0000 C   0  0  0  0  0  0  0  0  0  0  0  0
    5.7990   -3.3481    0.0000 C   0  0  0  0  0  0  0  0  0  0  0  0
    4.2990   -3.3481    0.0000 N   0  0  0  0  0  0  0  0  0  0  0  0
    3.5490   -2.0490    0.0000 C   0  0  0  0  0  0  0  0  0  0  0  0
    4.2990   -0.7500    0.0000 O   0  0  0  0  0  0  0  0  0  0  0  0
    2.0490   -2.0490    0.0000 C   0  0  0  0  0  0  0  0  0  0  0  0
    0.7500   -2.7990    0.0000 C   0  0  0  0  0  0  0  0  0  0  0  0
    0.7500   -1.2990    0.0000 C   0  0  0  0  0  0  0  0  0  0  0  0
    1.5000    0.0000    0.0000 C   0  0  0  0  0  0  0  0  0  0  0  0
    0.7500    1.2990    0.0000 C   0  0  0  0  0  0  0  0  0  0  0  0
   -0.7500    1.2990    0.0000 N   0  0  0  0  0  0  0  0  0  0  0  0
   -1.5000    2.5981    0.0000 C   0  0  0  0  0  0  0  0  0  0  0  0
   -0.7500    3.8971    0.0000 C   0  0  0  0  0  0  0  0  0  0  0  0
   -1.5000    0.0000    0.0000 C   0  0  0  0  0  0  0  0  0  0  0  0
   -0.7500   -1.2990    0.0000 C   0  0  0  0  0  0  0  0  0  0  0  0
    6.5490   -2.0490    0.0000 C   0  0  0  0  0  0  0  0  0  0  0  0
    5.9389   -0.6787    0.0000 N   0  0  0  0  0  0  0  0  0  0  0  0
    7.0537    0.3250    0.0000 C   0  0  0  0  0  0  0  0  0  0  0  0
    8.3527   -0.4250    0.0000 C   0  0  0  0  0  0  0  0  0  0  0  0
    9.7230    0.1851    0.0000 C   0  0  0  0  0  0  0  0  0  0  0  0
   10.9365   -0.6966    0.0000 C   0  0  0  0  0  0  0  0  0  0  0  0
   12.3069   -0.0865    0.0000 C   0  0  0  0  0  0  0  0  0  0  0  0
   13.5204   -0.9682    0.0000 C   0  0  0  0  0  0  0  0  0  0  0  0
   14.7339   -1.8498    0.0000 N   0  0  0  0  0  0  0  0  0  0  0  0
   12.4636    1.4053    0.0000 C   0  0  0  0  0  0  0  0  0  0  0  0
   11.2501    2.2870    0.0000 C   0  0  0  0  0  0  0  0  0  0  0  0
    9.8798    1.6769    0.0000 C   0  0  0  0  0  0  0  0  0  0  0  0
    8.6663    2.5585    0.0000 O   0  0  0  0  0  0  0  0  0  0  0  0
    8.8231    4.0503    0.0000 C   0  0  0  0  0  0  0  0  0  0  0  0
    8.0408   -1.8922    0.0000 N   0  0  0  0  0  0  0  0  0  0  0  0
  1  2  1  0
  2  3  1  0
  3  4  2  0
  3  5  1  0
  5  6  1  0
  6  7  1  0
  7  8  1  0
  8  9  1  0
 10  9  1  6
 10 11  1  0
 11 12  1  0
 12 13  2  0
 14 12  1  1
 14 15  1  0
 15 16  1  0
 16 17  1  0
 17 18  1  0
 18 19  1  0
 19 20  1  0
 20 21  1  0
 19 22  1  0
 22 23  1  0
 10 24  1  0
 24 25  2  0
 25 26  1  0
 26 27  2  0
 27 28  1  0
 28 29  2  0
 29 30  1  0
 30 31  1  0
 31 32  3  0
 30 33  2  0
 33 34  1  0
 34 35  2  0
 35 36  1  0
 36 37  1  0
 27 38  1  0
 16 14  1  0
 38 24  1  0
 23 16  1  0
 35 28  1  0
M  END
>  <Affinity>  (12) 
62.0

>  <Affinity Type>  (12) 
IC50

>  <Affinity Unit>  (12) 
nM

>  <Scaffold>  (12) 
[#6&!R]-&!@[#6&!R]-&!@[#6&!R](=&!@[#8&!R])-&!@[#6&!R]-&!@[#6&!R]-&!@[#6&!R]-&!@[#6&!R]-&!@[#6&!R]-&!@[#6&!R](-&!@[#7&!R]-&!@[#6&!R](=&!@[#8&!R])-&!@[#6&R]1-&@[#6&R]-&@[#6&R]-&@12-&@[#6&R]-&@[#6&R]-&@[#7&R](-&@[#6&R]-&@[#6&R]-&@2)-&!@[#6&!R])-&!@[#6&R]1:&@[#7&R]:&@[#6&R]:&@[#6&R](:&@[#7&R]:&@1)-&!@[#6&R]

$$$$
Q92769_Sries57339_idx-in-all-actives-419
     RDKit          2D

 39 42  0  0  0  0  0  0  0  0999 V2000
   14.7990   -8.5442    0.0000 C   0  0  0  0  0  0  0  0  0  0  0  0
   13.2990   -8.5442    0.0000 C   0  0  0  0  0  0  0  0  0  0  0  0
   12.5490   -7.2452    0.0000 C   0  0  0  0  0  0  0  0  0  0  0  0
   13.2990   -5.9462    0.0000 O   0  0  0  0  0  0  0  0  0  0  0  0
   11.0490   -7.2452    0.0000 C   0  0  0  0  0  0  0  0  0  0  0  0
   10.2990   -5.9462    0.0000 C   0  0  0  0  0  0  0  0  0  0  0  0
    8.7990   -5.9462    0.0000 C   0  0  0  0  0  0  0  0  0  0  0  0
    8.0490   -4.6471    0.0000 C   0  0  0  0  0  0  0  0  0  0  0  0
    6.5490   -4.6471    0.0000 C   0  0  0  0  0  0  0  0  0  0  0  0
    5.7990   -3.3481    0.0000 C   0  0  0  0  0  0  0  0  0  0  0  0
    4.2990   -3.3481    0.0000 N   0  0  0  0  0  0  0  0  0  0  0  0
    3.5490   -2.0490    0.0000 C   0  0  0  0  0  0  0  0  0  0  0  0
    4.2990   -0.7500    0.0000 O   0  0  0  0  0  0  0  0  0  0  0  0
    2.0490   -2.0490    0.0000 C   0  0  0  0  0  0  0  0  0  0  0  0
    0.7500   -2.7990    0.0000 C   0  0  0  0  0  0  0  0  0  0  0  0
    0.7500   -1.2990    0.0000 C   0  0  0  0  0  0  0  0  0  0  0  0
    1.5000    0.0000    0.0000 C   0  0  0  0  0  0  0  0  0  0  0  0
    0.7500    1.2990    0.0000 C   0  0  0  0  0  0  0  0  0  0  0  0
   -0.7500    1.2990    0.0000 N   0  0  0  0  0  0  0  0  0  0  0  0
   -1.5000    2.5981    0.0000 C   0  0  0  0  0  0  0  0  0  0  0  0
   -0.7500    3.8971    0.0000 C   0  0  0  0  0  0  0  0  0  0  0  0
   -1.5000    0.0000    0.0000 C   0  0  0  0  0  0  0  0  0  0  0  0
   -0.7500   -1.2990    0.0000 C   0  0  0  0  0  0  0  0  0  0  0  0
    6.5490   -2.0490    0.0000 C   0  0  0  0  0  0  0  0  0  0  0  0
    5.9389   -0.6787    0.0000 N   0  0  0  0  0  0  0  0  0  0  0  0
    7.0537    0.3250    0.0000 C   0  0  0  0  0  0  0  0  0  0  0  0
    8.3527   -0.4250    0.0000 C   0  0  0  0  0  0  0  0  0  0  0  0
    9.7230    0.1851    0.0000 C   0  0  0  0  0  0  0  0  0  0  0  0
   10.9365   -0.6966    0.0000 C   0  0  0  0  0  0  0  0  0  0  0  0
   12.3069   -0.0865    0.0000 C   0  0  0  0  0  0  0  0  0  0  0  0
   13.5204   -0.9682    0.0000 C   0  0  0  0  0  0  0  0  0  0  0  0
   13.3636   -2.4600    0.0000 C   0  0  0  0  0  0  0  0  0  0  0  0
   14.8907   -0.3581    0.0000 C   0  0  0  0  0  0  0  0  0  0  0  0
   12.4636    1.4053    0.0000 C   0  0  0  0  0  0  0  0  0  0  0  0
   11.2501    2.2870    0.0000 C   0  0  0  0  0  0  0  0  0  0  0  0
    9.8798    1.6769    0.0000 C   0  0  0  0  0  0  0  0  0  0  0  0
    8.6663    2.5585    0.0000 O   0  0  0  0  0  0  0  0  0  0  0  0
    8.8231    4.0503    0.0000 C   0  0  0  0  0  0  0  0  0  0  0  0
    8.0408   -1.8922    0.0000 N   0  0  0  0  0  0  0  0  0  0  0  0
  1  2  1  0
  2  3  1  0
  3  4  2  0
  3  5  1  0
  5  6  1  0
  6  7  1  0
  7  8  1  0
  8  9  1  0
 10  9  1  6
 10 11  1  0
 11 12  1  0
 12 13  2  0
 14 12  1  1
 14 15  1  0
 15 16  1  0
 16 17  1  0
 17 18  1  0
 18 19  1  0
 19 20  1  0
 20 21  1  0
 19 22  1  0
 22 23  1  0
 10 24  1  0
 24 25  2  0
 25 26  1  0
 26 27  2  0
 27 28  1  0
 28 29  2  0
 29 30  1  0
 30 31  1  0
 31 32  1  0
 31 33  1  0
 30 34  2  0
 34 35  1  0
 35 36  2  0
 36 37  1  0
 37 38  1  0
 27 39  1  0
 16 14  1  0
 39 24  1  0
 23 16  1  0
 36 28  1  0
M  END
>  <Affinity>  (13) 
76.0

>  <Affinity Type>  (13) 
IC50

>  <Affinity Unit>  (13) 
nM

>  <Scaffold>  (13) 
[#6&!R]-&!@[#6&!R]-&!@[#6&!R](=&!@[#8&!R])-&!@[#6&!R]-&!@[#6&!R]-&!@[#6&!R]-&!@[#6&!R]-&!@[#6&!R]-&!@[#6&!R](-&!@[#7&!R]-&!@[#6&!R](=&!@[#8&!R])-&!@[#6&R]1-&@[#6&R]-&@[#6&R]-&@12-&@[#6&R]-&@[#6&R]-&@[#7&R](-&@[#6&R]-&@[#6&R]-&@2)-&!@[#6&!R])-&!@[#6&R]1:&@[#7&R]:&@[#6&R]:&@[#6&R](:&@[#7&R]:&@1)-&!@[#6&R]

$$$$
Q92769_Sries57339_idx-in-all-actives-401
     RDKit          2D

 40 44  0  0  0  0  0  0  0  0999 V2000
   14.7990   -8.5442    0.0000 C   0  0  0  0  0  0  0  0  0  0  0  0
   13.2990   -8.5442    0.0000 C   0  0  0  0  0  0  0  0  0  0  0  0
   12.5490   -7.2452    0.0000 C   0  0  0  0  0  0  0  0  0  0  0  0
   13.2990   -5.9462    0.0000 O   0  0  0  0  0  0  0  0  0  0  0  0
   11.0490   -7.2452    0.0000 C   0  0  0  0  0  0  0  0  0  0  0  0
   10.2990   -5.9462    0.0000 C   0  0  0  0  0  0  0  0  0  0  0  0
    8.7990   -5.9462    0.0000 C   0  0  0  0  0  0  0  0  0  0  0  0
    8.0490   -4.6471    0.0000 C   0  0  0  0  0  0  0  0  0  0  0  0
    6.5490   -4.6471    0.0000 C   0  0  0  0  0  0  0  0  0  0  0  0
    5.7990   -3.3481    0.0000 C   0  0  0  0  0  0  0  0  0  0  0  0
    4.2990   -3.3481    0.0000 N   0  0  0  0  0  0  0  0  0  0  0  0
    3.5490   -2.0490    0.0000 C   0  0  0  0  0  0  0  0  0  0  0  0
    4.2990   -0.7500    0.0000 O   0  0  0  0  0  0  0  0  0  0  0  0
    2.0490   -2.0490    0.0000 C   0  0  0  0  0  0  0  0  0  0  0  0
    0.7500   -2.7990    0.0000 C   0  0  0  0  0  0  0  0  0  0  0  0
    0.7500   -1.2990    0.0000 C   0  0  0  0  0  0  0  0  0  0  0  0
    1.5000    0.0000    0.0000 C   0  0  0  0  0  0  0  0  0  0  0  0
    0.7500    1.2990    0.0000 C   0  0  0  0  0  0  0  0  0  0  0  0
   -0.7500    1.2990    0.0000 N   0  0  0  0  0  0  0  0  0  0  0  0
   -1.5000    2.5981    0.0000 C   0  0  0  0  0  0  0  0  0  0  0  0
   -1.5000    0.0000    0.0000 C   0  0  0  0  0  0  0  0  0  0  0  0
   -0.7500   -1.2990    0.0000 C   0  0  0  0  0  0  0  0  0  0  0  0
    6.5490   -2.0490    0.0000 C   0  0  0  0  0  0  0  0  0  0  0  0
    5.9389   -0.6787    0.0000 N   0  0  0  0  0  0  0  0  0  0  0  0
    7.0537    0.3250    0.0000 C   0  0  0  0  0  0  0  0  0  0  0  0
    8.3527   -0.4250    0.0000 C   0  0  0  0  0  0  0  0  0  0  0  0
    9.7230    0.1851    0.0000 C   0  0  0  0  0  0  0  0  0  0  0  0
   10.9365   -0.6966    0.0000 C   0  0  0  0  0  0  0  0  0  0  0  0
   12.3069   -0.0865    0.0000 C   0  0  0  0  0  0  0  0  0  0  0  0
   12.4636    1.4053    0.0000 N   0  0  0  0  0  0  0  0  0  0  0  0
   11.2501    2.2870    0.0000 C   0  0  0  0  0  0  0  0  0  0  0  0
   11.4069    3.7788    0.0000 N   0  0  0  0  0  0  0  0  0  0  0  0
   12.7772    4.3889    0.0000 C   0  0  0  0  0  0  0  0  0  0  0  0
   12.9340    5.8806    0.0000 C   0  0  0  0  0  0  0  0  0  0  0  0
   11.7205    6.7623    0.0000 O   0  0  0  0  0  0  0  0  0  0  0  0
   10.3502    6.1522    0.0000 C   0  0  0  0  0  0  0  0  0  0  0  0
   10.1934    4.6604    0.0000 C   0  0  0  0  0  0  0  0  0  0  0  0
    9.8798    1.6769    0.0000 C   0  0  0  0  0  0  0  0  0  0  0  0
    8.6663    2.5585    0.0000 F   0  0  0  0  0  0  0  0  0  0  0  0
    8.0408   -1.8922    0.0000 N   0  0  0  0  0  0  0  0  0  0  0  0
  1  2  1  0
  2  3  1  0
  3  4  2  0
  3  5  1  0
  5  6  1  0
  6  7  1  0
  7  8  1  0
  8  9  1  0
 10  9  1  6
 10 11  1  0
 11 12  1  0
 12 13  2  0
 14 12  1  1
 14 15  1  0
 15 16  1  0
 16 17  1  0
 17 18  1  0
 18 19  1  0
 19 20  1  0
 19 21  1  0
 21 22  1  0
 10 23  1  0
 23 24  2  0
 24 25  1  0
 25 26  2  0
 26 27  1  0
 27 28  2  0
 28 29  1  0
 29 30  2  0
 30 31  1  0
 31 32  1  0
 32 33  1  0
 33 34  1  0
 34 35  1  0
 35 36  1  0
 36 37  1  0
 31 38  2  0
 38 39  1  0
 26 40  1  0
 16 14  1  0
 40 23  1  0
 22 16  1  0
 38 27  1  0
 37 32  1  0
M  END
>  <Affinity>  (14) 
133.0

>  <Affinity Type>  (14) 
IC50

>  <Affinity Unit>  (14) 
nM

>  <Scaffold>  (14) 
[#6&!R]-&!@[#6&!R]-&!@[#6&!R](=&!@[#8&!R])-&!@[#6&!R]-&!@[#6&!R]-&!@[#6&!R]-&!@[#6&!R]-&!@[#6&!R]-&!@[#6&!R](-&!@[#7&!R]-&!@[#6&!R](=&!@[#8&!R])-&!@[#6&R]1-&@[#6&R]-&@[#6&R]-&@12-&@[#6&R]-&@[#6&R]-&@[#7&R](-&@[#6&R]-&@[#6&R]-&@2)-&!@[#6&!R])-&!@[#6&R]1:&@[#7&R]:&@[#6&R]:&@[#6&R](:&@[#7&R]:&@1)-&!@[#6&R]

$$$$
Q92769_Sries57339_idx-in-all-actives-432
     RDKit          2D

 37 40  0  0  0  0  0  0  0  0999 V2000
   14.7990   -8.5442    0.0000 C   0  0  0  0  0  0  0  0  0  0  0  0
   13.2990   -8.5442    0.0000 C   0  0  0  0  0  0  0  0  0  0  0  0
   12.5490   -7.2452    0.0000 C   0  0  0  0  0  0  0  0  0  0  0  0
   13.2990   -5.9462    0.0000 O   0  0  0  0  0  0  0  0  0  0  0  0
   11.0490   -7.2452    0.0000 C   0  0  0  0  0  0  0  0  0  0  0  0
   10.2990   -5.9462    0.0000 C   0  0  0  0  0  0  0  0  0  0  0  0
    8.7990   -5.9462    0.0000 C   0  0  0  0  0  0  0  0  0  0  0  0
    8.0490   -4.6471    0.0000 C   0  0  0  0  0  0  0  0  0  0  0  0
    6.5490   -4.6471    0.0000 C   0  0  0  0  0  0  0  0  0  0  0  0
    5.7990   -3.3481    0.0000 C   0  0  0  0  0  0  0  0  0  0  0  0
    4.2990   -3.3481    0.0000 N   0  0  0  0  0  0  0  0  0  0  0  0
    3.5490   -2.0490    0.0000 C   0  0  0  0  0  0  0  0  0  0  0  0
    4.2990   -0.7500    0.0000 O   0  0  0  0  0  0  0  0  0  0  0  0
    2.0490   -2.0490    0.0000 C   0  0  0  0  0  0  0  0  0  0  0  0
    0.7500   -2.7990    0.0000 C   0  0  0  0  0  0  0  0  0  0  0  0
    0.7500   -1.2990    0.0000 C   0  0  0  0  0  0  0  0  0  0  0  0
    1.5000    0.0000    0.0000 C   0  0  0  0  0  0  0  0  0  0  0  0
    0.7500    1.2990    0.0000 C   0  0  0  0  0  0  0  0  0  0  0  0
   -0.7500    1.2990    0.0000 N   0  0  0  0  0  0  0  0  0  0  0  0
   -1.5000    2.5981    0.0000 C   0  0  0  0  0  0  0  0  0  0  0  0
   -0.7500    3.8971    0.0000 C   0  0  0  0  0  0  0  0  0  0  0  0
   -1.5000    0.0000    0.0000 C   0  0  0  0  0  0  0  0  0  0  0  0
   -0.7500   -1.2990    0.0000 C   0  0  0  0  0  0  0  0  0  0  0  0
    6.5490   -2.0490    0.0000 C   0  0  0  0  0  0  0  0  0  0  0  0
    5.9389   -0.6787    0.0000 N   0  0  0  0  0  0  0  0  0  0  0  0
    7.0537    0.3250    0.0000 C   0  0  0  0  0  0  0  0  0  0  0  0
    8.3527   -0.4250    0.0000 C   0  0  0  0  0  0  0  0  0  0  0  0
    9.7230    0.1851    0.0000 C   0  0  0  0  0  0  0  0  0  0  0  0
   10.9365   -0.6966    0.0000 C   0  0  0  0  0  0  0  0  0  0  0  0
   12.3069   -0.0865    0.0000 C   0  0  0  0  0  0  0  0  0  0  0  0
   12.4636    1.4053    0.0000 C   0  0  0  0  0  0  0  0  0  0  0  0
   13.8340    2.0154    0.0000 C   0  0  0  0  0  0  0  0  0  0  0  0
   11.2501    2.2870    0.0000 N   0  0  0  0  0  0  0  0  0  0  0  0
    9.8798    1.6769    0.0000 C   0  0  0  0  0  0  0  0  0  0  0  0
    8.6663    2.5585    0.0000 O   0  0  0  0  0  0  0  0  0  0  0  0
    8.8231    4.0503    0.0000 C   0  0  0  0  0  0  0  0  0  0  0  0
    8.0408   -1.8922    0.0000 N   0  0  0  0  0  0  0  0  0  0  0  0
  1  2  1  0
  2  3  1  0
  3  4  2  0
  3  5  1  0
  5  6  1  0
  6  7  1  0
  7  8  1  0
  8  9  1  0
 10  9  1  6
 10 11  1  0
 11 12  1  0
 12 13  2  0
 14 12  1  1
 14 15  1  0
 15 16  1  0
 16 17  1  0
 17 18  1  0
 18 19  1  0
 19 20  1  0
 20 21  1  0
 19 22  1  0
 22 23  1  0
 10 24  1  0
 24 25  2  0
 25 26  1  0
 26 27  2  0
 27 28  1  0
 28 29  2  0
 29 30  1  0
 30 31  1  0
 31 32  1  0
 31 33  1  0
 33 34  2  0
 34 35  1  0
 35 36  1  0
 27 37  1  0
 16 14  1  0
 37 24  1  0
 23 16  1  0
 34 28  1  0
M  END
>  <Affinity>  (15) 
1.4

>  <Affinity Type>  (15) 
IC50

>  <Affinity Unit>  (15) 
nM

>  <Scaffold>  (15) 
[#6&!R]-&!@[#6&!R]-&!@[#6&!R](=&!@[#8&!R])-&!@[#6&!R]-&!@[#6&!R]-&!@[#6&!R]-&!@[#6&!R]-&!@[#6&!R]-&!@[#6&!R](-&!@[#7&!R]-&!@[#6&!R](=&!@[#8&!R])-&!@[#6&R]1-&@[#6&R]-&@[#6&R]-&@12-&@[#6&R]-&@[#6&R]-&@[#7&R](-&@[#6&R]-&@[#6&R]-&@2)-&!@[#6&!R])-&!@[#6&R]1:&@[#7&R]:&@[#6&R]:&@[#6&R](:&@[#7&R]:&@1)-&!@[#6&R]

$$$$
Q92769_Sries57339_idx-in-all-actives-420
     RDKit          2D

 37 40  0  0  0  0  0  0  0  0999 V2000
   14.7990   -8.5442    0.0000 C   0  0  0  0  0  0  0  0  0  0  0  0
   13.2990   -8.5442    0.0000 C   0  0  0  0  0  0  0  0  0  0  0  0
   12.5490   -7.2452    0.0000 C   0  0  0  0  0  0  0  0  0  0  0  0
   13.2990   -5.9462    0.0000 O   0  0  0  0  0  0  0  0  0  0  0  0
   11.0490   -7.2452    0.0000 C   0  0  0  0  0  0  0  0  0  0  0  0
   10.2990   -5.9462    0.0000 C   0  0  0  0  0  0  0  0  0  0  0  0
    8.7990   -5.9462    0.0000 C   0  0  0  0  0  0  0  0  0  0  0  0
    8.0490   -4.6471    0.0000 C   0  0  0  0  0  0  0  0  0  0  0  0
    6.5490   -4.6471    0.0000 C   0  0  0  0  0  0  0  0  0  0  0  0
    5.7990   -3.3481    0.0000 C   0  0  0  0  0  0  0  0  0  0  0  0
    4.2990   -3.3481    0.0000 N   0  0  0  0  0  0  0  0  0  0  0  0
    3.5490   -2.0490    0.0000 C   0  0  0  0  0  0  0  0  0  0  0  0
    4.2990   -0.7500    0.0000 O   0  0  0  0  0  0  0  0  0  0  0  0
    2.0490   -2.0490    0.0000 C   0  0  0  0  0  0  0  0  0  0  0  0
    0.7500   -2.7990    0.0000 C   0  0  0  0  0  0  0  0  0  0  0  0
    0.7500   -1.2990    0.0000 C   0  0  0  0  0  0  0  0  0  0  0  0
    1.5000    0.0000    0.0000 C   0  0  0  0  0  0  0  0  0  0  0  0
    0.7500    1.2990    0.0000 C   0  0  0  0  0  0  0  0  0  0  0  0
   -0.7500    1.2990    0.0000 N   0  0  0  0  0  0  0  0  0  0  0  0
   -1.5000    2.5981    0.0000 C   0  0  0  0  0  0  0  0  0  0  0  0
   -0.7500    3.8971    0.0000 C   0  0  0  0  0  0  0  0  0  0  0  0
   -1.5000    0.0000    0.0000 C   0  0  0  0  0  0  0  0  0  0  0  0
   -0.7500   -1.2990    0.0000 C   0  0  0  0  0  0  0  0  0  0  0  0
    6.5490   -2.0490    0.0000 C   0  0  0  0  0  0  0  0  0  0  0  0
    5.9389   -0.6787    0.0000 N   0  0  0  0  0  0  0  0  0  0  0  0
    7.0537    0.3250    0.0000 C   0  0  0  0  0  0  0  0  0  0  0  0
    8.3527   -0.4250    0.0000 C   0  0  0  0  0  0  0  0  0  0  0  0
    9.7230    0.1851    0.0000 C   0  0  0  0  0  0  0  0  0  0  0  0
   10.9365   -0.6966    0.0000 C   0  0  0  0  0  0  0  0  0  0  0  0
   10.7797   -2.1884    0.0000 F   0  0  0  0  0  0  0  0  0  0  0  0
   12.3069   -0.0865    0.0000 C   0  0  0  0  0  0  0  0  0  0  0  0
   12.4636    1.4053    0.0000 C   0  0  0  0  0  0  0  0  0  0  0  0
   11.2501    2.2870    0.0000 C   0  0  0  0  0  0  0  0  0  0  0  0
    9.8798    1.6769    0.0000 C   0  0  0  0  0  0  0  0  0  0  0  0
    8.6663    2.5585    0.0000 O   0  0  0  0  0  0  0  0  0  0  0  0
    8.8231    4.0503    0.0000 C   0  0  0  0  0  0  0  0  0  0  0  0
    8.0408   -1.8922    0.0000 N   0  0  0  0  0  0  0  0  0  0  0  0
  1  2  1  0
  2  3  1  0
  3  4  2  0
  3  5  1  0
  5  6  1  0
  6  7  1  0
  7  8  1  0
  8  9  1  0
 10  9  1  6
 10 11  1  0
 11 12  1  0
 12 13  2  0
 14 12  1  1
 14 15  1  0
 15 16  1  0
 16 17  1  0
 17 18  1  0
 18 19  1  0
 19 20  1  0
 20 21  1  0
 19 22  1  0
 22 23  1  0
 10 24  1  0
 24 25  2  0
 25 26  1  0
 26 27  2  0
 27 28  1  0
 28 29  2  0
 29 30  1  0
 29 31  1  0
 31 32  2  0
 32 33  1  0
 33 34  2  0
 34 35  1  0
 35 36  1  0
 27 37  1  0
 16 14  1  0
 37 24  1  0
 23 16  1  0
 34 28  1  0
M  END
>  <Affinity>  (16) 
370.0

>  <Affinity Type>  (16) 
IC50

>  <Affinity Unit>  (16) 
nM

>  <Scaffold>  (16) 
[#6&!R]-&!@[#6&!R]-&!@[#6&!R](=&!@[#8&!R])-&!@[#6&!R]-&!@[#6&!R]-&!@[#6&!R]-&!@[#6&!R]-&!@[#6&!R]-&!@[#6&!R](-&!@[#7&!R]-&!@[#6&!R](=&!@[#8&!R])-&!@[#6&R]1-&@[#6&R]-&@[#6&R]-&@12-&@[#6&R]-&@[#6&R]-&@[#7&R](-&@[#6&R]-&@[#6&R]-&@2)-&!@[#6&!R])-&!@[#6&R]1:&@[#7&R]:&@[#6&R]:&@[#6&R](:&@[#7&R]:&@1)-&!@[#6&R]

$$$$
Q92769_Sries57339_idx-in-all-actives-408
     RDKit          2D

 37 40  0  0  0  0  0  0  0  0999 V2000
   14.7990   -8.5442    0.0000 C   0  0  0  0  0  0  0  0  0  0  0  0
   13.2990   -8.5442    0.0000 C   0  0  0  0  0  0  0  0  0  0  0  0
   12.5490   -7.2452    0.0000 C   0  0  0  0  0  0  0  0  0  0  0  0
   13.2990   -5.9462    0.0000 O   0  0  0  0  0  0  0  0  0  0  0  0
   11.0490   -7.2452    0.0000 C   0  0  0  0  0  0  0  0  0  0  0  0
   10.2990   -5.9462    0.0000 C   0  0  0  0  0  0  0  0  0  0  0  0
    8.7990   -5.9462    0.0000 C   0  0  0  0  0  0  0  0  0  0  0  0
    8.0490   -4.6471    0.0000 C   0  0  0  0  0  0  0  0  0  0  0  0
    6.5490   -4.6471    0.0000 C   0  0  0  0  0  0  0  0  0  0  0  0
    5.7990   -3.3481    0.0000 C   0  0  0  0  0  0  0  0  0  0  0  0
    4.2990   -3.3481    0.0000 N   0  0  0  0  0  0  0  0  0  0  0  0
    3.5490   -2.0490    0.0000 C   0  0  0  0  0  0  0  0  0  0  0  0
    4.2990   -0.7500    0.0000 O   0  0  0  0  0  0  0  0  0  0  0  0
    2.0490   -2.0490    0.0000 C   0  0  0  0  0  0  0  0  0  0  0  0
    0.7500   -2.7990    0.0000 C   0  0  0  0  0  0  0  0  0  0  0  0
    0.7500   -1.2990    0.0000 C   0  0  0  0  0  0  0  0  0  0  0  0
    1.5000    0.0000    0.0000 C   0  0  0  0  0  0  0  0  0  0  0  0
    0.7500    1.2990    0.0000 C   0  0  0  0  0  0  0  0  0  0  0  0
   -0.7500    1.2990    0.0000 N   0  0  0  0  0  0  0  0  0  0  0  0
   -1.5000    2.5981    0.0000 C   0  0  0  0  0  0  0  0  0  0  0  0
   -0.7500    3.8971    0.0000 C   0  0  0  0  0  0  0  0  0  0  0  0
   -1.5000    0.0000    0.0000 C   0  0  0  0  0  0  0  0  0  0  0  0
   -0.7500   -1.2990    0.0000 C   0  0  0  0  0  0  0  0  0  0  0  0
    6.5490   -2.0490    0.0000 C   0  0  0  0  0  0  0  0  0  0  0  0
    5.9389   -0.6787    0.0000 N   0  0  0  0  0  0  0  0  0  0  0  0
    7.0537    0.3250    0.0000 C   0  0  0  0  0  0  0  0  0  0  0  0
    8.3527   -0.4250    0.0000 C   0  0  0  0  0  0  0  0  0  0  0  0
    9.7230    0.1851    0.0000 C   0  0  0  0  0  0  0  0  0  0  0  0
   10.9365   -0.6966    0.0000 C   0  0  0  0  0  0  0  0  0  0  0  0
   12.3069   -0.0865    0.0000 C   0  0  0  0  0  0  0  0  0  0  0  0
   13.5204   -0.9682    0.0000 Cl  0  0  0  0  0  0  0  0  0  0  0  0
   12.4636    1.4053    0.0000 C   0  0  0  0  0  0  0  0  0  0  0  0
   11.2501    2.2870    0.0000 C   0  0  0  0  0  0  0  0  0  0  0  0
    9.8798    1.6769    0.0000 C   0  0  0  0  0  0  0  0  0  0  0  0
    8.6663    2.5585    0.0000 O   0  0  0  0  0  0  0  0  0  0  0  0
    8.8231    4.0503    0.0000 C   0  0  0  0  0  0  0  0  0  0  0  0
    8.0408   -1.8922    0.0000 N   0  0  0  0  0  0  0  0  0  0  0  0
  1  2  1  0
  2  3  1  0
  3  4  2  0
  3  5  1  0
  5  6  1  0
  6  7  1  0
  7  8  1  0
  8  9  1  0
 10  9  1  6
 10 11  1  0
 11 12  1  0
 12 13  2  0
 14 12  1  1
 14 15  1  0
 15 16  1  0
 16 17  1  0
 17 18  1  0
 18 19  1  0
 19 20  1  0
 20 21  1  0
 19 22  1  0
 22 23  1  0
 10 24  1  0
 24 25  2  0
 25 26  1  0
 26 27  2  0
 27 28  1  0
 28 29  2  0
 29 30  1  0
 30 31  1  0
 30 32  2  0
 32 33  1  0
 33 34  2  0
 34 35  1  0
 35 36  1  0
 27 37  1  0
 16 14  1  0
 37 24  1  0
 23 16  1  0
 34 28  1  0
M  END
>  <Affinity>  (17) 
1.8

>  <Affinity Type>  (17) 
IC50

>  <Affinity Unit>  (17) 
nM

>  <Scaffold>  (17) 
[#6&!R]-&!@[#6&!R]-&!@[#6&!R](=&!@[#8&!R])-&!@[#6&!R]-&!@[#6&!R]-&!@[#6&!R]-&!@[#6&!R]-&!@[#6&!R]-&!@[#6&!R](-&!@[#7&!R]-&!@[#6&!R](=&!@[#8&!R])-&!@[#6&R]1-&@[#6&R]-&@[#6&R]-&@12-&@[#6&R]-&@[#6&R]-&@[#7&R](-&@[#6&R]-&@[#6&R]-&@2)-&!@[#6&!R])-&!@[#6&R]1:&@[#7&R]:&@[#6&R]:&@[#6&R](:&@[#7&R]:&@1)-&!@[#6&R]

$$$$
Q92769_Sries57339_idx-in-all-actives-421
     RDKit          2D

 44 48  0  0  0  0  0  0  0  0999 V2000
   15.8266    5.7718    0.0000 C   0  0  0  0  0  0  0  0  0  0  0  0
   14.6131    4.8902    0.0000 C   0  0  0  0  0  0  0  0  0  0  0  0
   13.2427    5.5003    0.0000 O   0  0  0  0  0  0  0  0  0  0  0  0
   12.0292    4.6186    0.0000 C   0  0  0  0  0  0  0  0  0  0  0  0
   12.1860    3.1268    0.0000 O   0  0  0  0  0  0  0  0  0  0  0  0
   10.6589    5.2287    0.0000 C   0  0  0  0  0  0  0  0  0  0  0  0
    9.7772    6.4422    0.0000 C   0  0  0  0  0  0  0  0  0  0  0  0
    9.1671    5.0719    0.0000 C   0  0  0  0  0  0  0  0  0  0  0  0
    7.9536    4.1902    0.0000 C   0  0  0  0  0  0  0  0  0  0  0  0
    6.5833    4.8003    0.0000 C   0  0  0  0  0  0  0  0  0  0  0  0
    5.3697    3.9186    0.0000 C   0  0  0  0  0  0  0  0  0  0  0  0
    5.5265    2.4269    0.0000 C   0  0  0  0  0  0  0  0  0  0  0  0
    4.3130    1.5452    0.0000 O   0  0  0  0  0  0  0  0  0  0  0  0
    2.9427    2.1553    0.0000 C   0  0  0  0  0  0  0  0  0  0  0  0
    6.8969    1.8168    0.0000 C   0  0  0  0  0  0  0  0  0  0  0  0
    7.0537    0.3250    0.0000 C   0  0  0  0  0  0  0  0  0  0  0  0
    8.3527   -0.4250    0.0000 C   0  0  0  0  0  0  0  0  0  0  0  0
    8.0408   -1.8922    0.0000 N   0  0  0  0  0  0  0  0  0  0  0  0
    6.5490   -2.0490    0.0000 C   0  0  0  0  0  0  0  0  0  0  0  0
    5.7990   -3.3481    0.0000 C   0  0  0  0  0  0  0  0  0  0  0  0
    6.5490   -4.6471    0.0000 C   0  0  0  0  0  0  0  0  0  0  0  0
    8.0490   -4.6471    0.0000 C   0  0  0  0  0  0  0  0  0  0  0  0
    8.7990   -5.9462    0.0000 C   0  0  0  0  0  0  0  0  0  0  0  0
   10.2990   -5.9462    0.0000 C   0  0  0  0  0  0  0  0  0  0  0  0
   11.0490   -7.2452    0.0000 C   0  0  0  0  0  0  0  0  0  0  0  0
   12.5490   -7.2452    0.0000 C   0  0  0  0  0  0  0  0  0  0  0  0
   13.2990   -5.9462    0.0000 O   0  0  0  0  0  0  0  0  0  0  0  0
   13.2990   -8.5442    0.0000 C   0  0  0  0  0  0  0  0  0  0  0  0
   14.7990   -8.5442    0.0000 C   0  0  0  0  0  0  0  0  0  0  0  0
    4.2990   -3.3481    0.0000 N   0  0  0  0  0  0  0  0  0  0  0  0
    3.5490   -2.0490    0.0000 C   0  0  0  0  0  0  0  0  0  0  0  0
    4.2990   -0.7500    0.0000 O   0  0  0  0  0  0  0  0  0  0  0  0
    2.0490   -2.0490    0.0000 C   0  0  0  0  0  0  0  0  0  0  0  0
    0.7500   -2.7990    0.0000 C   0  0  0  0  0  0  0  0  0  0  0  0
    0.7500   -1.2990    0.0000 C   0  0  0  0  0  0  0  0  0  0  0  0
    1.5000    0.0000    0.0000 C   0  0  0  0  0  0  0  0  0  0  0  0
    0.7500    1.2990    0.0000 C   0  0  0  0  0  0  0  0  0  0  0  0
   -0.7500    1.2990    0.0000 N   0  0  0  0  0  0  0  0  0  0  0  0
   -1.5000    2.5981    0.0000 C   0  0  0  0  0  0  0  0  0  0  0  0
   -0.7500    3.8971    0.0000 C   0  0  0  0  0  0  0  0  0  0  0  0
   -1.5000    0.0000    0.0000 C   0  0  0  0  0  0  0  0  0  0  0  0
   -0.7500   -1.2990    0.0000 C   0  0  0  0  0  0  0  0  0  0  0  0
    5.9389   -0.6787    0.0000 N   0  0  0  0  0  0  0  0  0  0  0  0
    8.1104    2.6984    0.0000 C   0  0  0  0  0  0  0  0  0  0  0  0
  1  2  1  0
  2  3  1  0
  3  4  1  0
  4  5  2  0
  4  6  1  0
  6  7  1  0
  7  8  1  0
  8  9  1  0
  9 10  2  0
 10 11  1  0
 11 12  2  0
 12 13  1  0
 13 14  1  0
 12 15  1  0
 15 16  1  0
 16 17  2  0
 17 18  1  0
 18 19  2  0
 19 20  1  0
 20 21  1  6
 21 22  1  0
 22 23  1  0
 23 24  1  0
 24 25  1  0
 25 26  1  0
 26 27  2  0
 26 28  1  0
 28 29  1  0
 20 30  1  0
 30 31  1  0
 31 32  2  0
 33 31  1  1
 33 34  1  0
 34 35  1  0
 35 36  1  0
 36 37  1  0
 37 38  1  0
 38 39  1  0
 39 40  1  0
 38 41  1  0
 41 42  1  0
 19 43  1  0
 15 44  2  0
  8  6  1  0
 44  9  1  0
 43 16  1  0
 35 33  1  0
 42 35  1  0
M  END
>  <Affinity>  (18) 
39.0

>  <Affinity Type>  (18) 
IC50

>  <Affinity Unit>  (18) 
nM

>  <Scaffold>  (18) 
[#6&!R]-&!@[#6&!R]-&!@[#6&!R](=&!@[#8&!R])-&!@[#6&!R]-&!@[#6&!R]-&!@[#6&!R]-&!@[#6&!R]-&!@[#6&!R]-&!@[#6&!R](-&!@[#7&!R]-&!@[#6&!R](=&!@[#8&!R])-&!@[#6&R]1-&@[#6&R]-&@[#6&R]-&@12-&@[#6&R]-&@[#6&R]-&@[#7&R](-&@[#6&R]-&@[#6&R]-&@2)-&!@[#6&!R])-&!@[#6&R]1:&@[#7&R]:&@[#6&R]:&@[#6&R](:&@[#7&R]:&@1)-&!@[#6&R]

$$$$
Q92769_Sries57339_idx-in-all-actives-402
     RDKit          2D

 39 43  0  0  0  0  0  0  0  0999 V2000
   14.7990   -8.5442    0.0000 C   0  0  0  0  0  0  0  0  0  0  0  0
   13.2990   -8.5442    0.0000 C   0  0  0  0  0  0  0  0  0  0  0  0
   12.5490   -7.2452    0.0000 C   0  0  0  0  0  0  0  0  0  0  0  0
   13.2990   -5.9462    0.0000 O   0  0  0  0  0  0  0  0  0  0  0  0
   11.0490   -7.2452    0.0000 C   0  0  0  0  0  0  0  0  0  0  0  0
   10.2990   -5.9462    0.0000 C   0  0  0  0  0  0  0  0  0  0  0  0
    8.7990   -5.9462    0.0000 C   0  0  0  0  0  0  0  0  0  0  0  0
    8.0490   -4.6471    0.0000 C   0  0  0  0  0  0  0  0  0  0  0  0
    6.5490   -4.6471    0.0000 C   0  0  0  0  0  0  0  0  0  0  0  0
    5.7990   -3.3481    0.0000 C   0  0  0  0  0  0  0  0  0  0  0  0
    4.2990   -3.3481    0.0000 N   0  0  0  0  0  0  0  0  0  0  0  0
    3.5490   -2.0490    0.0000 C   0  0  0  0  0  0  0  0  0  0  0  0
    4.2990   -0.7500    0.0000 O   0  0  0  0  0  0  0  0  0  0  0  0
    2.0490   -2.0490    0.0000 C   0  0  0  0  0  0  0  0  0  0  0  0
    0.7500   -2.7990    0.0000 C   0  0  0  0  0  0  0  0  0  0  0  0
    0.7500   -1.2990    0.0000 C   0  0  0  0  0  0  0  0  0  0  0  0
    1.5000    0.0000    0.0000 C   0  0  0  0  0  0  0  0  0  0  0  0
    0.7500    1.2990    0.0000 C   0  0  0  0  0  0  0  0  0  0  0  0
   -0.7500    1.2990    0.0000 N   0  0  0  0  0  0  0  0  0  0  0  0
   -1.5000    2.5981    0.0000 C   0  0  0  0  0  0  0  0  0  0  0  0
   -1.5000    0.0000    0.0000 C   0  0  0  0  0  0  0  0  0  0  0  0
   -0.7500   -1.2990    0.0000 C   0  0  0  0  0  0  0  0  0  0  0  0
    6.5490   -2.0490    0.0000 C   0  0  0  0  0  0  0  0  0  0  0  0
    5.9389   -0.6787    0.0000 N   0  0  0  0  0  0  0  0  0  0  0  0
    7.0537    0.3250    0.0000 C   0  0  0  0  0  0  0  0  0  0  0  0
    8.3527   -0.4250    0.0000 C   0  0  0  0  0  0  0  0  0  0  0  0
    9.7230    0.1851    0.0000 C   0  0  0  0  0  0  0  0  0  0  0  0
   10.9365   -0.6966    0.0000 C   0  0  0  0  0  0  0  0  0  0  0  0
   12.3069   -0.0865    0.0000 C   0  0  0  0  0  0  0  0  0  0  0  0
   12.4636    1.4053    0.0000 C   0  0  0  0  0  0  0  0  0  0  0  0
   13.8340    2.0154    0.0000 C   0  0  0  0  0  0  0  0  0  0  0  0
   15.0475    1.1337    0.0000 C   0  0  0  0  0  0  0  0  0  0  0  0
   16.4178    1.7438    0.0000 C   0  0  0  0  0  0  0  0  0  0  0  0
   16.5746    3.2356    0.0000 C   0  0  0  0  0  0  0  0  0  0  0  0
   15.3611    4.1173    0.0000 N   0  0  0  0  0  0  0  0  0  0  0  0
   13.9908    3.5072    0.0000 C   0  0  0  0  0  0  0  0  0  0  0  0
   11.2501    2.2870    0.0000 N   0  0  0  0  0  0  0  0  0  0  0  0
    9.8798    1.6769    0.0000 C   0  0  0  0  0  0  0  0  0  0  0  0
    8.0408   -1.8922    0.0000 N   0  0  0  0  0  0  0  0  0  0  0  0
  1  2  1  0
  2  3  1  0
  3  4  2  0
  3  5  1  0
  5  6  1  0
  6  7  1  0
  7  8  1  0
  8  9  1  0
 10  9  1  6
 10 11  1  0
 11 12  1  0
 12 13  2  0
 14 12  1  1
 14 15  1  0
 15 16  1  0
 16 17  1  0
 17 18  1  0
 18 19  1  0
 19 20  1  0
 19 21  1  0
 21 22  1  0
 10 23  1  0
 23 24  2  0
 24 25  1  0
 25 26  2  0
 26 27  1  0
 27 28  2  0
 28 29  1  0
 29 30  2  0
 30 31  1  0
 31 32  2  0
 32 33  1  0
 33 34  2  0
 34 35  1  0
 35 36  2  0
 30 37  1  0
 37 38  2  0
 26 39  1  0
 16 14  1  0
 39 23  1  0
 22 16  1  0
 38 27  1  0
 36 31  1  0
M  END
>  <Affinity>  (19) 
14.0

>  <Affinity Type>  (19) 
IC50

>  <Affinity Unit>  (19) 
nM

>  <Scaffold>  (19) 
[#6&!R]-&!@[#6&!R]-&!@[#6&!R](=&!@[#8&!R])-&!@[#6&!R]-&!@[#6&!R]-&!@[#6&!R]-&!@[#6&!R]-&!@[#6&!R]-&!@[#6&!R](-&!@[#7&!R]-&!@[#6&!R](=&!@[#8&!R])-&!@[#6&R]1-&@[#6&R]-&@[#6&R]-&@12-&@[#6&R]-&@[#6&R]-&@[#7&R](-&@[#6&R]-&@[#6&R]-&@2)-&!@[#6&!R])-&!@[#6&R]1:&@[#7&R]:&@[#6&R]:&@[#6&R](:&@[#7&R]:&@1)-&!@[#6&R]

$$$$
Q92769_Sries57339_idx-in-all-actives-422
     RDKit          2D

 39 42  0  0  0  0  0  0  0  0999 V2000
   14.7990   -8.5442    0.0000 C   0  0  0  0  0  0  0  0  0  0  0  0
   13.2990   -8.5442    0.0000 C   0  0  0  0  0  0  0  0  0  0  0  0
   12.5490   -7.2452    0.0000 C   0  0  0  0  0  0  0  0  0  0  0  0
   13.2990   -5.9462    0.0000 O   0  0  0  0  0  0  0  0  0  0  0  0
   11.0490   -7.2452    0.0000 C   0  0  0  0  0  0  0  0  0  0  0  0
   10.2990   -5.9462    0.0000 C   0  0  0  0  0  0  0  0  0  0  0  0
    8.7990   -5.9462    0.0000 C   0  0  0  0  0  0  0  0  0  0  0  0
    8.0490   -4.6471    0.0000 C   0  0  0  0  0  0  0  0  0  0  0  0
    6.5490   -4.6471    0.0000 C   0  0  0  0  0  0  0  0  0  0  0  0
    5.7990   -3.3481    0.0000 C   0  0  0  0  0  0  0  0  0  0  0  0
    4.2990   -3.3481    0.0000 N   0  0  0  0  0  0  0  0  0  0  0  0
    3.5490   -2.0490    0.0000 C   0  0  0  0  0  0  0  0  0  0  0  0
    4.2990   -0.7500    0.0000 O   0  0  0  0  0  0  0  0  0  0  0  0
    2.0490   -2.0490    0.0000 C   0  0  0  0  0  0  0  0  0  0  0  0
    0.7500   -2.7990    0.0000 C   0  0  0  0  0  0  0  0  0  0  0  0
    0.7500   -1.2990    0.0000 C   0  0  0  0  0  0  0  0  0  0  0  0
    1.5000    0.0000    0.0000 C   0  0  0  0  0  0  0  0  0  0  0  0
    0.7500    1.2990    0.0000 C   0  0  0  0  0  0  0  0  0  0  0  0
   -0.7500    1.2990    0.0000 N   0  0  0  0  0  0  0  0  0  0  0  0
   -1.5000    2.5981    0.0000 C   0  0  0  0  0  0  0  0  0  0  0  0
   -0.7500    3.8971    0.0000 C   0  0  0  0  0  0  0  0  0  0  0  0
   -1.5000    0.0000    0.0000 C   0  0  0  0  0  0  0  0  0  0  0  0
   -0.7500   -1.2990    0.0000 C   0  0  0  0  0  0  0  0  0  0  0  0
    6.5490   -2.0490    0.0000 C   0  0  0  0  0  0  0  0  0  0  0  0
    5.9389   -0.6787    0.0000 N   0  0  0  0  0  0  0  0  0  0  0  0
    7.0537    0.3250    0.0000 C   0  0  0  0  0  0  0  0  0  0  0  0
    8.3527   -0.4250    0.0000 C   0  0  0  0  0  0  0  0  0  0  0  0
    9.7230    0.1851    0.0000 C   0  0  0  0  0  0  0  0  0  0  0  0
   10.9365   -0.6966    0.0000 C   0  0  0  0  0  0  0  0  0  0  0  0
   12.3069   -0.0865    0.0000 C   0  0  0  0  0  0  0  0  0  0  0  0
   13.5204   -0.9682    0.0000 N   0  0  0  0  0  4  0  0  0  0  0  0
   13.3636   -2.4600    0.0000 O   0  0  0  0  0  0  0  0  0  0  0  0
   14.8907   -0.3581    0.0000 O   0  0  0  0  0  1  0  0  0  0  0  0
   12.4636    1.4053    0.0000 C   0  0  0  0  0  0  0  0  0  0  0  0
   11.2501    2.2870    0.0000 C   0  0  0  0  0  0  0  0  0  0  0  0
    9.8798    1.6769    0.0000 C   0  0  0  0  0  0  0  0  0  0  0  0
    8.6663    2.5585    0.0000 O   0  0  0  0  0  0  0  0  0  0  0  0
    8.8231    4.0503    0.0000 C   0  0  0  0  0  0  0  0  0  0  0  0
    8.0408   -1.8922    0.0000 N   0  0  0  0  0  0  0  0  0  0  0  0
  1  2  1  0
  2  3  1  0
  3  4  2  0
  3  5  1  0
  5  6  1  0
  6  7  1  0
  7  8  1  0
  8  9  1  0
 10  9  1  6
 10 11  1  0
 11 12  1  0
 12 13  2  0
 14 12  1  1
 14 15  1  0
 15 16  1  0
 16 17  1  0
 17 18  1  0
 18 19  1  0
 19 20  1  0
 20 21  1  0
 19 22  1  0
 22 23  1  0
 10 24  1  0
 24 25  2  0
 25 26  1  0
 26 27  2  0
 27 28  1  0
 28 29  2  0
 29 30  1  0
 30 31  1  0
 31 32  2  0
 31 33  1  0
 30 34  2  0
 34 35  1  0
 35 36  2  0
 36 37  1  0
 37 38  1  0
 27 39  1  0
 16 14  1  0
 39 24  1  0
 23 16  1  0
 36 28  1  0
M  CHG  2  31   1  33  -1
M  END
>  <Affinity>  (20) 
43.0

>  <Affinity Type>  (20) 
IC50

>  <Affinity Unit>  (20) 
nM

>  <Scaffold>  (20) 
[#6&!R]-&!@[#6&!R]-&!@[#6&!R](=&!@[#8&!R])-&!@[#6&!R]-&!@[#6&!R]-&!@[#6&!R]-&!@[#6&!R]-&!@[#6&!R]-&!@[#6&!R](-&!@[#7&!R]-&!@[#6&!R](=&!@[#8&!R])-&!@[#6&R]1-&@[#6&R]-&@[#6&R]-&@12-&@[#6&R]-&@[#6&R]-&@[#7&R](-&@[#6&R]-&@[#6&R]-&@2)-&!@[#6&!R])-&!@[#6&R]1:&@[#7&R]:&@[#6&R]:&@[#6&R](:&@[#7&R]:&@1)-&!@[#6&R]

$$$$
Q92769_Sries57339_idx-in-all-actives-409
     RDKit          2D

 37 40  0  0  0  0  0  0  0  0999 V2000
   14.7990   -8.5442    0.0000 C   0  0  0  0  0  0  0  0  0  0  0  0
   13.2990   -8.5442    0.0000 C   0  0  0  0  0  0  0  0  0  0  0  0
   12.5490   -7.2452    0.0000 C   0  0  0  0  0  0  0  0  0  0  0  0
   13.2990   -5.9462    0.0000 O   0  0  0  0  0  0  0  0  0  0  0  0
   11.0490   -7.2452    0.0000 C   0  0  0  0  0  0  0  0  0  0  0  0
   10.2990   -5.9462    0.0000 C   0  0  0  0  0  0  0  0  0  0  0  0
    8.7990   -5.9462    0.0000 C   0  0  0  0  0  0  0  0  0  0  0  0
    8.0490   -4.6471    0.0000 C   0  0  0  0  0  0  0  0  0  0  0  0
    6.5490   -4.6471    0.0000 C   0  0  0  0  0  0  0  0  0  0  0  0
    5.7990   -3.3481    0.0000 C   0  0  0  0  0  0  0  0  0  0  0  0
    4.2990   -3.3481    0.0000 N   0  0  0  0  0  0  0  0  0  0  0  0
    3.5490   -2.0490    0.0000 C   0  0  0  0  0  0  0  0  0  0  0  0
    4.2990   -0.7500    0.0000 O   0  0  0  0  0  0  0  0  0  0  0  0
    2.0490   -2.0490    0.0000 C   0  0  0  0  0  0  0  0  0  0  0  0
    0.7500   -2.7990    0.0000 C   0  0  0  0  0  0  0  0  0  0  0  0
    0.7500   -1.2990    0.0000 C   0  0  0  0  0  0  0  0  0  0  0  0
    1.5000    0.0000    0.0000 C   0  0  0  0  0  0  0  0  0  0  0  0
    0.7500    1.2990    0.0000 C   0  0  0  0  0  0  0  0  0  0  0  0
   -0.7500    1.2990    0.0000 N   0  0  0  0  0  0  0  0  0  0  0  0
   -1.5000    2.5981    0.0000 C   0  0  0  0  0  0  0  0  0  0  0  0
   -0.7500    3.8971    0.0000 C   0  0  0  0  0  0  0  0  0  0  0  0
   -1.5000    0.0000    0.0000 C   0  0  0  0  0  0  0  0  0  0  0  0
   -0.7500   -1.2990    0.0000 C   0  0  0  0  0  0  0  0  0  0  0  0
    6.5490   -2.0490    0.0000 C   0  0  0  0  0  0  0  0  0  0  0  0
    5.9389   -0.6787    0.0000 N   0  0  0  0  0  0  0  0  0  0  0  0
    7.0537    0.3250    0.0000 C   0  0  0  0  0  0  0  0  0  0  0  0
    8.3527   -0.4250    0.0000 C   0  0  0  0  0  0  0  0  0  0  0  0
    9.7230    0.1851    0.0000 C   0  0  0  0  0  0  0  0  0  0  0  0
   10.9365   -0.6966    0.0000 C   0  0  0  0  0  0  0  0  0  0  0  0
   12.3069   -0.0865    0.0000 C   0  0  0  0  0  0  0  0  0  0  0  0
   12.4636    1.4053    0.0000 C   0  0  0  0  0  0  0  0  0  0  0  0
   13.8340    2.0154    0.0000 Cl  0  0  0  0  0  0  0  0  0  0  0  0
   11.2501    2.2870    0.0000 C   0  0  0  0  0  0  0  0  0  0  0  0
    9.8798    1.6769    0.0000 C   0  0  0  0  0  0  0  0  0  0  0  0
    8.6663    2.5585    0.0000 O   0  0  0  0  0  0  0  0  0  0  0  0
    8.8231    4.0503    0.0000 C   0  0  0  0  0  0  0  0  0  0  0  0
    8.0408   -1.8922    0.0000 N   0  0  0  0  0  0  0  0  0  0  0  0
  1  2  1  0
  2  3  1  0
  3  4  2  0
  3  5  1  0
  5  6  1  0
  6  7  1  0
  7  8  1  0
  8  9  1  0
 10  9  1  6
 10 11  1  0
 11 12  1  0
 12 13  2  0
 14 12  1  1
 14 15  1  0
 15 16  1  0
 16 17  1  0
 17 18  1  0
 18 19  1  0
 19 20  1  0
 20 21  1  0
 19 22  1  0
 22 23  1  0
 10 24  1  0
 24 25  2  0
 25 26  1  0
 26 27  2  0
 27 28  1  0
 28 29  2  0
 29 30  1  0
 30 31  2  0
 31 32  1  0
 31 33  1  0
 33 34  2  0
 34 35  1  0
 35 36  1  0
 27 37  1  0
 16 14  1  0
 37 24  1  0
 23 16  1  0
 34 28  1  0
M  END
>  <Affinity>  (21) 
64.0

>  <Affinity Type>  (21) 
IC50

>  <Affinity Unit>  (21) 
nM

>  <Scaffold>  (21) 
[#6&!R]-&!@[#6&!R]-&!@[#6&!R](=&!@[#8&!R])-&!@[#6&!R]-&!@[#6&!R]-&!@[#6&!R]-&!@[#6&!R]-&!@[#6&!R]-&!@[#6&!R](-&!@[#7&!R]-&!@[#6&!R](=&!@[#8&!R])-&!@[#6&R]1-&@[#6&R]-&@[#6&R]-&@12-&@[#6&R]-&@[#6&R]-&@[#7&R](-&@[#6&R]-&@[#6&R]-&@2)-&!@[#6&!R])-&!@[#6&R]1:&@[#7&R]:&@[#6&R]:&@[#6&R](:&@[#7&R]:&@1)-&!@[#6&R]

$$$$
Q92769_Sries57339_idx-in-all-actives-403
     RDKit          2D

 36 39  0  0  0  0  0  0  0  0999 V2000
    7.4832    8.6656    0.0000 C   0  0  0  0  0  0  0  0  0  0  0  0
    7.6400    7.1738    0.0000 C   0  0  0  0  0  0  0  0  0  0  0  0
    6.4265    6.2921    0.0000 O   0  0  0  0  0  0  0  0  0  0  0  0
    6.5833    4.8003    0.0000 C   0  0  0  0  0  0  0  0  0  0  0  0
    7.9536    4.1902    0.0000 N   0  0  0  0  0  0  0  0  0  0  0  0
    8.1104    2.6984    0.0000 C   0  0  0  0  0  0  0  0  0  0  0  0
    6.8969    1.8168    0.0000 C   0  0  0  0  0  0  0  0  0  0  0  0
    7.0537    0.3250    0.0000 C   0  0  0  0  0  0  0  0  0  0  0  0
    8.3527   -0.4250    0.0000 C   0  0  0  0  0  0  0  0  0  0  0  0
    8.0408   -1.8922    0.0000 N   0  0  0  0  0  0  0  0  0  0  0  0
    6.5490   -2.0490    0.0000 C   0  0  0  0  0  0  0  0  0  0  0  0
    5.7990   -3.3481    0.0000 C   0  0  0  0  0  0  0  0  0  0  0  0
    6.5490   -4.6471    0.0000 C   0  0  0  0  0  0  0  0  0  0  0  0
    8.0490   -4.6471    0.0000 C   0  0  0  0  0  0  0  0  0  0  0  0
    8.7990   -5.9462    0.0000 C   0  0  0  0  0  0  0  0  0  0  0  0
   10.2990   -5.9462    0.0000 C   0  0  0  0  0  0  0  0  0  0  0  0
   11.0490   -7.2452    0.0000 C   0  0  0  0  0  0  0  0  0  0  0  0
   12.5490   -7.2452    0.0000 C   0  0  0  0  0  0  0  0  0  0  0  0
   13.2990   -5.9462    0.0000 O   0  0  0  0  0  0  0  0  0  0  0  0
   13.2990   -8.5442    0.0000 C   0  0  0  0  0  0  0  0  0  0  0  0
   14.7990   -8.5442    0.0000 C   0  0  0  0  0  0  0  0  0  0  0  0
    4.2990   -3.3481    0.0000 N   0  0  0  0  0  0  0  0  0  0  0  0
    3.5490   -2.0490    0.0000 C   0  0  0  0  0  0  0  0  0  0  0  0
    4.2990   -0.7500    0.0000 O   0  0  0  0  0  0  0  0  0  0  0  0
    2.0490   -2.0490    0.0000 C   0  0  0  0  0  0  0  0  0  0  0  0
    0.7500   -2.7990    0.0000 C   0  0  0  0  0  0  0  0  0  0  0  0
    0.7500   -1.2990    0.0000 C   0  0  0  0  0  0  0  0  0  0  0  0
    1.5000    0.0000    0.0000 C   0  0  0  0  0  0  0  0  0  0  0  0
    0.7500    1.2990    0.0000 C   0  0  0  0  0  0  0  0  0  0  0  0
   -0.7500    1.2990    0.0000 N   0  0  0  0  0  0  0  0  0  0  0  0
   -1.5000    2.5981    0.0000 C   0  0  0  0  0  0  0  0  0  0  0  0
   -1.5000    0.0000    0.0000 C   0  0  0  0  0  0  0  0  0  0  0  0
   -0.7500   -1.2990    0.0000 C   0  0  0  0  0  0  0  0  0  0  0  0
    5.9389   -0.6787    0.0000 N   0  0  0  0  0  0  0  0  0  0  0  0
    5.5265    2.4269    0.0000 C   0  0  0  0  0  0  0  0  0  0  0  0
    5.3697    3.9186    0.0000 N   0  0  0  0  0  0  0  0  0  0  0  0
  1  2  1  0
  2  3  1  0
  3  4  1  0
  4  5  2  0
  5  6  1  0
  6  7  2  0
  7  8  1  0
  8  9  2  0
  9 10  1  0
 10 11  2  0
 11 12  1  0
 12 13  1  6
 13 14  1  0
 14 15  1  0
 15 16  1  0
 16 17  1  0
 17 18  1  0
 18 19  2  0
 18 20  1  0
 20 21  1  0
 12 22  1  0
 22 23  1  0
 23 24  2  0
 25 23  1  1
 25 26  1  0
 26 27  1  0
 27 28  1  0
 28 29  1  0
 29 30  1  0
 30 31  1  0
 30 32  1  0
 32 33  1  0
 11 34  1  0
  7 35  1  0
 35 36  2  0
 36  4  1  0
 34  8  1  0
 27 25  1  0
 33 27  1  0
M  END
>  <Affinity>  (22) 
583.0

>  <Affinity Type>  (22) 
IC50

>  <Affinity Unit>  (22) 
nM

>  <Scaffold>  (22) 
[#6&!R]-&!@[#6&!R]-&!@[#6&!R](=&!@[#8&!R])-&!@[#6&!R]-&!@[#6&!R]-&!@[#6&!R]-&!@[#6&!R]-&!@[#6&!R]-&!@[#6&!R](-&!@[#7&!R]-&!@[#6&!R](=&!@[#8&!R])-&!@[#6&R]1-&@[#6&R]-&@[#6&R]-&@12-&@[#6&R]-&@[#6&R]-&@[#7&R](-&@[#6&R]-&@[#6&R]-&@2)-&!@[#6&!R])-&!@[#6&R]1:&@[#7&R]:&@[#6&R]:&@[#6&R](:&@[#7&R]:&@1)-&!@[#6&R]

$$$$
Q92769_Sries57339_idx-in-all-actives-423
     RDKit          2D

 40 43  0  0  0  0  0  0  0  0999 V2000
   14.7990   -8.5442    0.0000 C   0  0  0  0  0  0  0  0  0  0  0  0
   13.2990   -8.5442    0.0000 C   0  0  0  0  0  0  0  0  0  0  0  0
   12.5490   -7.2452    0.0000 C   0  0  0  0  0  0  0  0  0  0  0  0
   13.2990   -5.9462    0.0000 O   0  0  0  0  0  0  0  0  0  0  0  0
   11.0490   -7.2452    0.0000 C   0  0  0  0  0  0  0  0  0  0  0  0
   10.2990   -5.9462    0.0000 C   0  0  0  0  0  0  0  0  0  0  0  0
    8.7990   -5.9462    0.0000 C   0  0  0  0  0  0  0  0  0  0  0  0
    8.0490   -4.6471    0.0000 C   0  0  0  0  0  0  0  0  0  0  0  0
    6.5490   -4.6471    0.0000 C   0  0  0  0  0  0  0  0  0  0  0  0
    5.7990   -3.3481    0.0000 C   0  0  0  0  0  0  0  0  0  0  0  0
    4.2990   -3.3481    0.0000 N   0  0  0  0  0  0  0  0  0  0  0  0
    3.5490   -2.0490    0.0000 C   0  0  0  0  0  0  0  0  0  0  0  0
    4.2990   -0.7500    0.0000 O   0  0  0  0  0  0  0  0  0  0  0  0
    2.0490   -2.0490    0.0000 C   0  0  0  0  0  0  0  0  0  0  0  0
    0.7500   -2.7990    0.0000 C   0  0  0  0  0  0  0  0  0  0  0  0
    0.7500   -1.2990    0.0000 C   0  0  0  0  0  0  0  0  0  0  0  0
    1.5000    0.0000    0.0000 C   0  0  0  0  0  0  0  0  0  0  0  0
    0.7500    1.2990    0.0000 C   0  0  0  0  0  0  0  0  0  0  0  0
   -0.7500    1.2990    0.0000 N   0  0  0  0  0  0  0  0  0  0  0  0
   -1.5000    2.5981    0.0000 C   0  0  0  0  0  0  0  0  0  0  0  0
   -0.7500    3.8971    0.0000 C   0  0  0  0  0  0  0  0  0  0  0  0
   -1.5000    0.0000    0.0000 C   0  0  0  0  0  0  0  0  0  0  0  0
   -0.7500   -1.2990    0.0000 C   0  0  0  0  0  0  0  0  0  0  0  0
    6.5490   -2.0490    0.0000 C   0  0  0  0  0  0  0  0  0  0  0  0
    5.9389   -0.6787    0.0000 N   0  0  0  0  0  0  0  0  0  0  0  0
    7.0537    0.3250    0.0000 C   0  0  0  0  0  0  0  0  0  0  0  0
    8.3527   -0.4250    0.0000 C   0  0  0  0  0  0  0  0  0  0  0  0
    9.7230    0.1851    0.0000 C   0  0  0  0  0  0  0  0  0  0  0  0
   10.9365   -0.6966    0.0000 C   0  0  0  0  0  0  0  0  0  0  0  0
   12.3069   -0.0865    0.0000 C   0  0  0  0  0  0  0  0  0  0  0  0
   13.5204   -0.9682    0.0000 C   0  0  0  0  0  0  0  0  0  0  0  0
   13.3636   -2.4600    0.0000 C   0  0  0  0  0  0  0  0  0  0  0  0
   14.8907   -0.3581    0.0000 C   0  0  0  0  0  0  0  0  0  0  0  0
   12.4636    1.4053    0.0000 C   0  0  0  0  0  0  0  0  0  0  0  0
   13.8340    2.0154    0.0000 F   0  0  0  0  0  0  0  0  0  0  0  0
   11.2501    2.2870    0.0000 C   0  0  0  0  0  0  0  0  0  0  0  0
    9.8798    1.6769    0.0000 C   0  0  0  0  0  0  0  0  0  0  0  0
    8.6663    2.5585    0.0000 O   0  0  0  0  0  0  0  0  0  0  0  0
    8.8231    4.0503    0.0000 C   0  0  0  0  0  0  0  0  0  0  0  0
    8.0408   -1.8922    0.0000 N   0  0  0  0  0  0  0  0  0  0  0  0
  1  2  1  0
  2  3  1  0
  3  4  2  0
  3  5  1  0
  5  6  1  0
  6  7  1  0
  7  8  1  0
  8  9  1  0
 10  9  1  6
 10 11  1  0
 11 12  1  0
 12 13  2  0
 14 12  1  1
 14 15  1  0
 15 16  1  0
 16 17  1  0
 17 18  1  0
 18 19  1  0
 19 20  1  0
 20 21  1  0
 19 22  1  0
 22 23  1  0
 10 24  1  0
 24 25  2  0
 25 26  1  0
 26 27  2  0
 27 28  1  0
 28 29  2  0
 29 30  1  0
 30 31  1  0
 31 32  1  0
 31 33  1  0
 30 34  2  0
 34 35  1  0
 34 36  1  0
 36 37  2  0
 37 38  1  0
 38 39  1  0
 27 40  1  0
 16 14  1  0
 40 24  1  0
 23 16  1  0
 37 28  1  0
M  END
>  <Affinity>  (23) 
279.0

>  <Affinity Type>  (23) 
IC50

>  <Affinity Unit>  (23) 
nM

>  <Scaffold>  (23) 
[#6&!R]-&!@[#6&!R]-&!@[#6&!R](=&!@[#8&!R])-&!@[#6&!R]-&!@[#6&!R]-&!@[#6&!R]-&!@[#6&!R]-&!@[#6&!R]-&!@[#6&!R](-&!@[#7&!R]-&!@[#6&!R](=&!@[#8&!R])-&!@[#6&R]1-&@[#6&R]-&@[#6&R]-&@12-&@[#6&R]-&@[#6&R]-&@[#7&R](-&@[#6&R]-&@[#6&R]-&@2)-&!@[#6&!R])-&!@[#6&R]1:&@[#7&R]:&@[#6&R]:&@[#6&R](:&@[#7&R]:&@1)-&!@[#6&R]

$$$$
Q92769_Sries57339_idx-in-all-actives-411
     RDKit          2D

 44 48  0  0  0  0  0  0  0  0999 V2000
    5.7760    2.5981    0.0000 C   0  0  0  0  0  0  0  0  0  0  0  0
    5.0260    1.2990    0.0000 C   0  0  0  0  0  0  0  0  0  0  0  0
    3.5260    1.2990    0.0000 O   0  0  0  0  0  0  0  0  0  0  0  0
    2.7760    0.0000    0.0000 C   0  0  0  0  0  0  0  0  0  0  0  0
    3.5260   -1.2990    0.0000 O   0  0  0  0  0  0  0  0  0  0  0  0
    1.2760    0.0000    0.0000 C   0  0  0  0  0  0  0  0  0  0  0  0
    0.3943    1.2135    0.0000 C   0  0  0  0  0  0  0  0  0  0  0  0
   -1.0323    0.7500    0.0000 C   0  0  0  0  0  0  0  0  0  0  0  0
   -2.3313    1.5000    0.0000 C   0  0  0  0  0  0  0  0  0  0  0  0
   -3.6304    0.7500    0.0000 C   0  0  0  0  0  0  0  0  0  0  0  0
   -4.9294    1.5000    0.0000 O   0  0  0  0  0  0  0  0  0  0  0  0
   -4.9294    3.0000    0.0000 C   0  0  0  0  0  0  0  0  0  0  0  0
   -3.6304   -0.7500    0.0000 C   0  0  0  0  0  0  0  0  0  0  0  0
   -4.9294   -1.5000    0.0000 C   0  0  0  0  0  0  0  0  0  0  0  0
   -5.0862   -2.9918    0.0000 C   0  0  0  0  0  0  0  0  0  0  0  0
   -6.5534   -3.3037    0.0000 N   0  0  0  0  0  0  0  0  0  0  0  0
   -7.3034   -2.0046    0.0000 C   0  0  0  0  0  0  0  0  0  0  0  0
   -8.7952   -1.8478    0.0000 C   0  0  0  0  0  0  0  0  0  0  0  0
   -9.4053   -0.4775    0.0000 C   0  0  0  0  0  0  0  0  0  0  0  0
  -10.8971   -0.3207    0.0000 C   0  0  0  0  0  0  0  0  0  0  0  0
  -11.5072    1.0496    0.0000 C   0  0  0  0  0  0  0  0  0  0  0  0
  -12.9990    1.2064    0.0000 C   0  0  0  0  0  0  0  0  0  0  0  0
  -13.6091    2.5767    0.0000 C   0  0  0  0  0  0  0  0  0  0  0  0
  -15.1009    2.7335    0.0000 C   0  0  0  0  0  0  0  0  0  0  0  0
  -15.9825    1.5200    0.0000 O   0  0  0  0  0  0  0  0  0  0  0  0
  -15.7110    4.1038    0.0000 C   0  0  0  0  0  0  0  0  0  0  0  0
  -17.2027    4.2606    0.0000 C   0  0  0  0  0  0  0  0  0  0  0  0
   -9.6769   -3.0613    0.0000 N   0  0  0  0  0  0  0  0  0  0  0  0
  -11.1687   -2.9046    0.0000 C   0  0  0  0  0  0  0  0  0  0  0  0
  -11.7788   -1.5342    0.0000 O   0  0  0  0  0  0  0  0  0  0  0  0
  -12.0503   -4.1181    0.0000 C   0  0  0  0  0  0  0  0  0  0  0  0
  -12.2071   -5.6099    0.0000 C   0  0  0  0  0  0  0  0  0  0  0  0
  -13.4207   -4.7282    0.0000 C   0  0  0  0  0  0  0  0  0  0  0  0
  -14.0308   -3.3579    0.0000 C   0  0  0  0  0  0  0  0  0  0  0  0
  -15.5225   -3.2011    0.0000 C   0  0  0  0  0  0  0  0  0  0  0  0
  -16.4042   -4.4146    0.0000 N   0  0  0  0  0  0  0  0  0  0  0  0
  -17.8960   -4.2578    0.0000 C   0  0  0  0  0  0  0  0  0  0  0  0
  -18.5061   -2.8875    0.0000 C   0  0  0  0  0  0  0  0  0  0  0  0
  -15.7941   -5.7849    0.0000 C   0  0  0  0  0  0  0  0  0  0  0  0
  -14.3023   -5.9417    0.0000 C   0  0  0  0  0  0  0  0  0  0  0  0
   -6.2997   -0.8899    0.0000 N   0  0  0  0  0  0  0  0  0  0  0  0
   -2.3313   -1.5000    0.0000 C   0  0  0  0  0  0  0  0  0  0  0  0
   -1.0323   -0.7500    0.0000 C   0  0  0  0  0  0  0  0  0  0  0  0
    0.3943   -1.2135    0.0000 O   0  0  0  0  0  0  0  0  0  0  0  0
  1  2  1  0
  2  3  1  0
  3  4  1  0
  4  5  2  0
  4  6  1  0
  6  7  2  0
  7  8  1  0
  8  9  2  0
  9 10  1  0
 10 11  1  0
 11 12  1  0
 10 13  2  0
 13 14  1  0
 14 15  2  0
 15 16  1  0
 16 17  2  0
 17 18  1  0
 18 19  1  1
 19 20  1  0
 20 21  1  0
 21 22  1  0
 22 23  1  0
 23 24  1  0
 24 25  2  0
 24 26  1  0
 26 27  1  0
 18 28  1  0
 28 29  1  0
 29 30  2  0
 31 29  1  1
 31 32  1  0
 32 33  1  0
 33 34  1  0
 34 35  1  0
 35 36  1  0
 36 37  1  0
 37 38  1  0
 36 39  1  0
 39 40  1  0
 17 41  1  0
 13 42  1  0
 42 43  2  0
 43 44  1  0
 44  6  1  0
 43  8  1  0
 41 14  1  0
 33 31  1  0
 40 33  1  0
M  END
>  <Affinity>  (24) 
9.1

>  <Affinity Type>  (24) 
IC50

>  <Affinity Unit>  (24) 
nM

>  <Scaffold>  (24) 
[#6&!R]-&!@[#6&!R]-&!@[#6&!R](=&!@[#8&!R])-&!@[#6&!R]-&!@[#6&!R]-&!@[#6&!R]-&!@[#6&!R]-&!@[#6&!R]-&!@[#6&!R](-&!@[#7&!R]-&!@[#6&!R](=&!@[#8&!R])-&!@[#6&R]1-&@[#6&R]-&@[#6&R]-&@12-&@[#6&R]-&@[#6&R]-&@[#7&R](-&@[#6&R]-&@[#6&R]-&@2)-&!@[#6&!R])-&!@[#6&R]1:&@[#7&R]:&@[#6&R]:&@[#6&R](:&@[#7&R]:&@1)-&!@[#6&R]

$$$$
Q92769_Sries57339_idx-in-all-actives-424
     RDKit          2D

 38 41  0  0  0  0  0  0  0  0999 V2000
   14.7990   -8.5442    0.0000 C   0  0  0  0  0  0  0  0  0  0  0  0
   13.2990   -8.5442    0.0000 C   0  0  0  0  0  0  0  0  0  0  0  0
   12.5490   -7.2452    0.0000 C   0  0  0  0  0  0  0  0  0  0  0  0
   13.2990   -5.9462    0.0000 O   0  0  0  0  0  0  0  0  0  0  0  0
   11.0490   -7.2452    0.0000 C   0  0  0  0  0  0  0  0  0  0  0  0
   10.2990   -5.9462    0.0000 C   0  0  0  0  0  0  0  0  0  0  0  0
    8.7990   -5.9462    0.0000 C   0  0  0  0  0  0  0  0  0  0  0  0
    8.0490   -4.6471    0.0000 C   0  0  0  0  0  0  0  0  0  0  0  0
    6.5490   -4.6471    0.0000 C   0  0  0  0  0  0  0  0  0  0  0  0
    5.7990   -3.3481    0.0000 C   0  0  0  0  0  0  0  0  0  0  0  0
    4.2990   -3.3481    0.0000 N   0  0  0  0  0  0  0  0  0  0  0  0
    3.5490   -2.0490    0.0000 C   0  0  0  0  0  0  0  0  0  0  0  0
    4.2990   -0.7500    0.0000 O   0  0  0  0  0  0  0  0  0  0  0  0
    2.0490   -2.0490    0.0000 C   0  0  0  0  0  0  0  0  0  0  0  0
    0.7500   -2.7990    0.0000 C   0  0  0  0  0  0  0  0  0  0  0  0
    0.7500   -1.2990    0.0000 C   0  0  0  0  0  0  0  0  0  0  0  0
    1.5000    0.0000    0.0000 C   0  0  0  0  0  0  0  0  0  0  0  0
    0.7500    1.2990    0.0000 C   0  0  0  0  0  0  0  0  0  0  0  0
   -0.7500    1.2990    0.0000 N   0  0  0  0  0  0  0  0  0  0  0  0
   -1.5000    2.5981    0.0000 C   0  0  0  0  0  0  0  0  0  0  0  0
   -0.7500    3.8971    0.0000 C   0  0  0  0  0  0  0  0  0  0  0  0
   -1.5000    0.0000    0.0000 C   0  0  0  0  0  0  0  0  0  0  0  0
   -0.7500   -1.2990    0.0000 C   0  0  0  0  0  0  0  0  0  0  0  0
    6.5490   -2.0490    0.0000 C   0  0  0  0  0  0  0  0  0  0  0  0
    5.9389   -0.6787    0.0000 N   0  0  0  0  0  0  0  0  0  0  0  0
    7.0537    0.3250    0.0000 C   0  0  0  0  0  0  0  0  0  0  0  0
    8.3527   -0.4250    0.0000 C   0  0  0  0  0  0  0  0  0  0  0  0
    9.7230    0.1851    0.0000 C   0  0  0  0  0  0  0  0  0  0  0  0
   10.9365   -0.6966    0.0000 C   0  0  0  0  0  0  0  0  0  0  0  0
   12.3069   -0.0865    0.0000 C   0  0  0  0  0  0  0  0  0  0  0  0
   12.4636    1.4053    0.0000 C   0  0  0  0  0  0  0  0  0  0  0  0
   13.8340    2.0154    0.0000 O   0  0  0  0  0  0  0  0  0  0  0  0
   15.0475    1.1337    0.0000 C   0  0  0  0  0  0  0  0  0  0  0  0
   11.2501    2.2870    0.0000 N   0  0  0  0  0  0  0  0  0  0  0  0
    9.8798    1.6769    0.0000 C   0  0  0  0  0  0  0  0  0  0  0  0
    8.6663    2.5585    0.0000 O   0  0  0  0  0  0  0  0  0  0  0  0
    8.8231    4.0503    0.0000 C   0  0  0  0  0  0  0  0  0  0  0  0
    8.0408   -1.8922    0.0000 N   0  0  0  0  0  0  0  0  0  0  0  0
  1  2  1  0
  2  3  1  0
  3  4  2  0
  3  5  1  0
  5  6  1  0
  6  7  1  0
  7  8  1  0
  8  9  1  0
 10  9  1  6
 10 11  1  0
 11 12  1  0
 12 13  2  0
 14 12  1  1
 14 15  1  0
 15 16  1  0
 16 17  1  0
 17 18  1  0
 18 19  1  0
 19 20  1  0
 20 21  1  0
 19 22  1  0
 22 23  1  0
 10 24  1  0
 24 25  2  0
 25 26  1  0
 26 27  2  0
 27 28  1  0
 28 29  2  0
 29 30  1  0
 30 31  2  0
 31 32  1  0
 32 33  1  0
 31 34  1  0
 34 35  2  0
 35 36  1  0
 36 37  1  0
 27 38  1  0
 16 14  1  0
 38 24  1  0
 23 16  1  0
 35 28  1  0
M  END
>  <Affinity>  (25) 
18.0

>  <Affinity Type>  (25) 
IC50

>  <Affinity Unit>  (25) 
nM

>  <Scaffold>  (25) 
[#6&!R]-&!@[#6&!R]-&!@[#6&!R](=&!@[#8&!R])-&!@[#6&!R]-&!@[#6&!R]-&!@[#6&!R]-&!@[#6&!R]-&!@[#6&!R]-&!@[#6&!R](-&!@[#7&!R]-&!@[#6&!R](=&!@[#8&!R])-&!@[#6&R]1-&@[#6&R]-&@[#6&R]-&@12-&@[#6&R]-&@[#6&R]-&@[#7&R](-&@[#6&R]-&@[#6&R]-&@2)-&!@[#6&!R])-&!@[#6&R]1:&@[#7&R]:&@[#6&R]:&@[#6&R](:&@[#7&R]:&@1)-&!@[#6&R]

$$$$
Q92769_Sries57339_idx-in-all-actives-410
     RDKit          2D

 36 39  0  0  0  0  0  0  0  0999 V2000
   14.7990   -8.5442    0.0000 C   0  0  0  0  0  0  0  0  0  0  0  0
   13.2990   -8.5442    0.0000 C   0  0  0  0  0  0  0  0  0  0  0  0
   12.5490   -7.2452    0.0000 C   0  0  0  0  0  0  0  0  0  0  0  0
   13.2990   -5.9462    0.0000 O   0  0  0  0  0  0  0  0  0  0  0  0
   11.0490   -7.2452    0.0000 C   0  0  0  0  0  0  0  0  0  0  0  0
   10.2990   -5.9462    0.0000 C   0  0  0  0  0  0  0  0  0  0  0  0
    8.7990   -5.9462    0.0000 C   0  0  0  0  0  0  0  0  0  0  0  0
    8.0490   -4.6471    0.0000 C   0  0  0  0  0  0  0  0  0  0  0  0
    6.5490   -4.6471    0.0000 C   0  0  0  0  0  0  0  0  0  0  0  0
    5.7990   -3.3481    0.0000 C   0  0  0  0  0  0  0  0  0  0  0  0
    4.2990   -3.3481    0.0000 N   0  0  0  0  0  0  0  0  0  0  0  0
    3.5490   -2.0490    0.0000 C   0  0  0  0  0  0  0  0  0  0  0  0
    4.2990   -0.7500    0.0000 O   0  0  0  0  0  0  0  0  0  0  0  0
    2.0490   -2.0490    0.0000 C   0  0  0  0  0  0  0  0  0  0  0  0
    0.7500   -2.7990    0.0000 C   0  0  0  0  0  0  0  0  0  0  0  0
    0.7500   -1.2990    0.0000 C   0  0  0  0  0  0  0  0  0  0  0  0
    1.5000    0.0000    0.0000 C   0  0  0  0  0  0  0  0  0  0  0  0
    0.7500    1.2990    0.0000 C   0  0  0  0  0  0  0  0  0  0  0  0
   -0.7500    1.2990    0.0000 N   0  0  0  0  0  0  0  0  0  0  0  0
   -1.5000    2.5981    0.0000 C   0  0  0  0  0  0  0  0  0  0  0  0
   -0.7500    3.8971    0.0000 C   0  0  0  0  0  0  0  0  0  0  0  0
   -1.5000    0.0000    0.0000 C   0  0  0  0  0  0  0  0  0  0  0  0
   -0.7500   -1.2990    0.0000 C   0  0  0  0  0  0  0  0  0  0  0  0
    6.5490   -2.0490    0.0000 C   0  0  0  0  0  0  0  0  0  0  0  0
    5.9389   -0.6787    0.0000 N   0  0  0  0  0  0  0  0  0  0  0  0
    7.0537    0.3250    0.0000 C   0  0  0  0  0  0  0  0  0  0  0  0
    8.3527   -0.4250    0.0000 C   0  0  0  0  0  0  0  0  0  0  0  0
    9.7230    0.1851    0.0000 C   0  0  0  0  0  0  0  0  0  0  0  0
   10.9365   -0.6966    0.0000 C   0  0  0  0  0  0  0  0  0  0  0  0
   12.3069   -0.0865    0.0000 C   0  0  0  0  0  0  0  0  0  0  0  0
   12.4636    1.4053    0.0000 C   0  0  0  0  0  0  0  0  0  0  0  0
   11.2501    2.2870    0.0000 N   0  0  0  0  0  0  0  0  0  0  0  0
    9.8798    1.6769    0.0000 C   0  0  0  0  0  0  0  0  0  0  0  0
    8.6663    2.5585    0.0000 O   0  0  0  0  0  0  0  0  0  0  0  0
    8.8231    4.0503    0.0000 C   0  0  0  0  0  0  0  0  0  0  0  0
    8.0408   -1.8922    0.0000 N   0  0  0  0  0  0  0  0  0  0  0  0
  1  2  1  0
  2  3  1  0
  3  4  2  0
  3  5  1  0
  5  6  1  0
  6  7  1  0
  7  8  1  0
  8  9  1  0
 10  9  1  6
 10 11  1  0
 11 12  1  0
 12 13  2  0
 14 12  1  1
 14 15  1  0
 15 16  1  0
 16 17  1  0
 17 18  1  0
 18 19  1  0
 19 20  1  0
 20 21  1  0
 19 22  1  0
 22 23  1  0
 10 24  1  0
 24 25  2  0
 25 26  1  0
 26 27  2  0
 27 28  1  0
 28 29  2  0
 29 30  1  0
 30 31  2  0
 31 32  1  0
 32 33  2  0
 33 34  1  0
 34 35  1  0
 27 36  1  0
 16 14  1  0
 36 24  1  0
 23 16  1  0
 33 28  1  0
M  END
>  <Affinity>  (26) 
56.0

>  <Affinity Type>  (26) 
IC50

>  <Affinity Unit>  (26) 
nM

>  <Scaffold>  (26) 
[#6&!R]-&!@[#6&!R]-&!@[#6&!R](=&!@[#8&!R])-&!@[#6&!R]-&!@[#6&!R]-&!@[#6&!R]-&!@[#6&!R]-&!@[#6&!R]-&!@[#6&!R](-&!@[#7&!R]-&!@[#6&!R](=&!@[#8&!R])-&!@[#6&R]1-&@[#6&R]-&@[#6&R]-&@12-&@[#6&R]-&@[#6&R]-&@[#7&R](-&@[#6&R]-&@[#6&R]-&@2)-&!@[#6&!R])-&!@[#6&R]1:&@[#7&R]:&@[#6&R]:&@[#6&R](:&@[#7&R]:&@1)-&!@[#6&R]

$$$$
Q92769_Sries57339_idx-in-all-actives-397
     RDKit          2D

 39 43  0  0  0  0  0  0  0  0999 V2000
   14.7990   -8.5442    0.0000 C   0  0  0  0  0  0  0  0  0  0  0  0
   13.2990   -8.5442    0.0000 C   0  0  0  0  0  0  0  0  0  0  0  0
   12.5490   -7.2452    0.0000 C   0  0  0  0  0  0  0  0  0  0  0  0
   13.2990   -5.9462    0.0000 O   0  0  0  0  0  0  0  0  0  0  0  0
   11.0490   -7.2452    0.0000 C   0  0  0  0  0  0  0  0  0  0  0  0
   10.2990   -5.9462    0.0000 C   0  0  0  0  0  0  0  0  0  0  0  0
    8.7990   -5.9462    0.0000 C   0  0  0  0  0  0  0  0  0  0  0  0
    8.0490   -4.6471    0.0000 C   0  0  0  0  0  0  0  0  0  0  0  0
    6.5490   -4.6471    0.0000 C   0  0  0  0  0  0  0  0  0  0  0  0
    5.7990   -3.3481    0.0000 C   0  0  0  0  0  0  0  0  0  0  0  0
    4.2990   -3.3481    0.0000 N   0  0  0  0  0  0  0  0  0  0  0  0
    3.5490   -2.0490    0.0000 C   0  0  0  0  0  0  0  0  0  0  0  0
    4.2990   -0.7500    0.0000 O   0  0  0  0  0  0  0  0  0  0  0  0
    2.0490   -2.0490    0.0000 C   0  0  0  0  0  0  0  0  0  0  0  0
    0.7500   -2.7990    0.0000 C   0  0  0  0  0  0  0  0  0  0  0  0
    0.7500   -1.2990    0.0000 C   0  0  0  0  0  0  0  0  0  0  0  0
    1.5000    0.0000    0.0000 C   0  0  0  0  0  0  0  0  0  0  0  0
    0.7500    1.2990    0.0000 C   0  0  0  0  0  0  0  0  0  0  0  0
   -0.7500    1.2990    0.0000 N   0  0  0  0  0  0  0  0  0  0  0  0
   -1.5000    2.5981    0.0000 C   0  0  0  0  0  0  0  0  0  0  0  0
   -1.5000    0.0000    0.0000 C   0  0  0  0  0  0  0  0  0  0  0  0
   -0.7500   -1.2990    0.0000 C   0  0  0  0  0  0  0  0  0  0  0  0
    6.5490   -2.0490    0.0000 C   0  0  0  0  0  0  0  0  0  0  0  0
    5.9389   -0.6787    0.0000 N   0  0  0  0  0  0  0  0  0  0  0  0
    7.0537    0.3250    0.0000 C   0  0  0  0  0  0  0  0  0  0  0  0
    8.3527   -0.4250    0.0000 C   0  0  0  0  0  0  0  0  0  0  0  0
    9.7230    0.1851    0.0000 C   0  0  0  0  0  0  0  0  0  0  0  0
   10.9365   -0.6966    0.0000 C   0  0  0  0  0  0  0  0  0  0  0  0
   12.3069   -0.0865    0.0000 N   0  0  0  0  0  0  0  0  0  0  0  0
   12.4636    1.4053    0.0000 C   0  0  0  0  0  0  0  0  0  0  0  0
   13.8340    2.0154    0.0000 N   0  0  0  0  0  0  0  0  0  0  0  0
   14.1458    3.4826    0.0000 C   0  0  0  0  0  0  0  0  0  0  0  0
   15.6376    3.6394    0.0000 C   0  0  0  0  0  0  0  0  0  0  0  0
   16.3876    4.9384    0.0000 C   0  0  0  0  0  0  0  0  0  0  0  0
   16.2477    2.2691    0.0000 C   0  0  0  0  0  0  0  0  0  0  0  0
   15.1330    1.2654    0.0000 N   0  0  0  0  0  0  0  0  0  0  0  0
   11.2501    2.2870    0.0000 N   0  0  0  0  0  0  0  0  0  0  0  0
    9.8798    1.6769    0.0000 C   0  0  0  0  0  0  0  0  0  0  0  0
    8.0408   -1.8922    0.0000 N   0  0  0  0  0  0  0  0  0  0  0  0
  1  2  1  0
  2  3  1  0
  3  4  2  0
  3  5  1  0
  5  6  1  0
  6  7  1  0
  7  8  1  0
  8  9  1  0
 10  9  1  6
 10 11  1  0
 11 12  1  0
 12 13  2  0
 14 12  1  1
 14 15  1  0
 15 16  1  0
 16 17  1  0
 17 18  1  0
 18 19  1  0
 19 20  1  0
 19 21  1  0
 21 22  1  0
 10 23  1  0
 23 24  2  0
 24 25  1  0
 25 26  2  0
 26 27  1  0
 27 28  2  0
 28 29  1  0
 29 30  2  0
 30 31  1  0
 31 32  1  0
 32 33  2  0
 33 34  1  0
 33 35  1  0
 35 36  2  0
 30 37  1  0
 37 38  2  0
 26 39  1  0
 16 14  1  0
 39 23  1  0
 22 16  1  0
 38 27  1  0
 36 31  1  0
M  END
>  <Affinity>  (27) 
491.0

>  <Affinity Type>  (27) 
IC50

>  <Affinity Unit>  (27) 
nM

>  <Scaffold>  (27) 
[#6&!R]-&!@[#6&!R]-&!@[#6&!R](=&!@[#8&!R])-&!@[#6&!R]-&!@[#6&!R]-&!@[#6&!R]-&!@[#6&!R]-&!@[#6&!R]-&!@[#6&!R](-&!@[#7&!R]-&!@[#6&!R](=&!@[#8&!R])-&!@[#6&R]1-&@[#6&R]-&@[#6&R]-&@12-&@[#6&R]-&@[#6&R]-&@[#7&R](-&@[#6&R]-&@[#6&R]-&@2)-&!@[#6&!R])-&!@[#6&R]1:&@[#7&R]:&@[#6&R]:&@[#6&R](:&@[#7&R]:&@1)-&!@[#6&R]

$$$$
Q92769_Sries57339_idx-in-all-actives-412
     RDKit          2D

 37 40  0  0  0  0  0  0  0  0999 V2000
   14.7990   -8.5442    0.0000 C   0  0  0  0  0  0  0  0  0  0  0  0
   13.2990   -8.5442    0.0000 C   0  0  0  0  0  0  0  0  0  0  0  0
   12.5490   -7.2452    0.0000 C   0  0  0  0  0  0  0  0  0  0  0  0
   13.2990   -5.9462    0.0000 O   0  0  0  0  0  0  0  0  0  0  0  0
   11.0490   -7.2452    0.0000 C   0  0  0  0  0  0  0  0  0  0  0  0
   10.2990   -5.9462    0.0000 C   0  0  0  0  0  0  0  0  0  0  0  0
    8.7990   -5.9462    0.0000 C   0  0  0  0  0  0  0  0  0  0  0  0
    8.0490   -4.6471    0.0000 C   0  0  0  0  0  0  0  0  0  0  0  0
    6.5490   -4.6471    0.0000 C   0  0  0  0  0  0  0  0  0  0  0  0
    5.7990   -3.3481    0.0000 C   0  0  0  0  0  0  0  0  0  0  0  0
    4.2990   -3.3481    0.0000 N   0  0  0  0  0  0  0  0  0  0  0  0
    3.5490   -2.0490    0.0000 C   0  0  0  0  0  0  0  0  0  0  0  0
    4.2990   -0.7500    0.0000 O   0  0  0  0  0  0  0  0  0  0  0  0
    2.0490   -2.0490    0.0000 C   0  0  0  0  0  0  0  0  0  0  0  0
    0.7500   -2.7990    0.0000 C   0  0  0  0  0  0  0  0  0  0  0  0
    0.7500   -1.2990    0.0000 C   0  0  0  0  0  0  0  0  0  0  0  0
    1.5000    0.0000    0.0000 C   0  0  0  0  0  0  0  0  0  0  0  0
    0.7500    1.2990    0.0000 C   0  0  0  0  0  0  0  0  0  0  0  0
   -0.7500    1.2990    0.0000 N   0  0  0  0  0  0  0  0  0  0  0  0
   -1.5000    2.5981    0.0000 C   0  0  0  0  0  0  0  0  0  0  0  0
   -0.7500    3.8971    0.0000 C   0  0  0  0  0  0  0  0  0  0  0  0
   -1.5000    0.0000    0.0000 C   0  0  0  0  0  0  0  0  0  0  0  0
   -0.7500   -1.2990    0.0000 C   0  0  0  0  0  0  0  0  0  0  0  0
    6.5490   -2.0490    0.0000 C   0  0  0  0  0  0  0  0  0  0  0  0
    5.9389   -0.6787    0.0000 N   0  0  0  0  0  0  0  0  0  0  0  0
    7.0537    0.3250    0.0000 C   0  0  0  0  0  0  0  0  0  0  0  0
    8.3527   -0.4250    0.0000 C   0  0  0  0  0  0  0  0  0  0  0  0
    9.7230    0.1851    0.0000 C   0  0  0  0  0  0  0  0  0  0  0  0
   10.9365   -0.6966    0.0000 C   0  0  0  0  0  0  0  0  0  0  0  0
   12.3069   -0.0865    0.0000 C   0  0  0  0  0  0  0  0  0  0  0  0
   13.5204   -0.9682    0.0000 F   0  0  0  0  0  0  0  0  0  0  0  0
   12.4636    1.4053    0.0000 C   0  0  0  0  0  0  0  0  0  0  0  0
   11.2501    2.2870    0.0000 C   0  0  0  0  0  0  0  0  0  0  0  0
    9.8798    1.6769    0.0000 C   0  0  0  0  0  0  0  0  0  0  0  0
    8.6663    2.5585    0.0000 O   0  0  0  0  0  0  0  0  0  0  0  0
    8.8231    4.0503    0.0000 C   0  0  0  0  0  0  0  0  0  0  0  0
    8.0408   -1.8922    0.0000 N   0  0  0  0  0  0  0  0  0  0  0  0
  1  2  1  0
  2  3  1  0
  3  4  2  0
  3  5  1  0
  5  6  1  0
  6  7  1  0
  7  8  1  0
  8  9  1  0
 10  9  1  6
 10 11  1  0
 11 12  1  0
 12 13  2  0
 14 12  1  1
 14 15  1  0
 15 16  1  0
 16 17  1  0
 17 18  1  0
 18 19  1  0
 19 20  1  0
 20 21  1  0
 19 22  1  0
 22 23  1  0
 10 24  1  0
 24 25  2  0
 25 26  1  0
 26 27  2  0
 27 28  1  0
 28 29  2  0
 29 30  1  0
 30 31  1  0
 30 32  2  0
 32 33  1  0
 33 34  2  0
 34 35  1  0
 35 36  1  0
 27 37  1  0
 16 14  1  0
 37 24  1  0
 23 16  1  0
 34 28  1  0
M  END
>  <Affinity>  (28) 
9.4

>  <Affinity Type>  (28) 
IC50

>  <Affinity Unit>  (28) 
nM

>  <Scaffold>  (28) 
[#6&!R]-&!@[#6&!R]-&!@[#6&!R](=&!@[#8&!R])-&!@[#6&!R]-&!@[#6&!R]-&!@[#6&!R]-&!@[#6&!R]-&!@[#6&!R]-&!@[#6&!R](-&!@[#7&!R]-&!@[#6&!R](=&!@[#8&!R])-&!@[#6&R]1-&@[#6&R]-&@[#6&R]-&@12-&@[#6&R]-&@[#6&R]-&@[#7&R](-&@[#6&R]-&@[#6&R]-&@2)-&!@[#6&!R])-&!@[#6&R]1:&@[#7&R]:&@[#6&R]:&@[#6&R](:&@[#7&R]:&@1)-&!@[#6&R]

$$$$
Q92769_Sries57339_idx-in-all-actives-404
     RDKit          2D

 36 40  0  0  0  0  0  0  0  0999 V2000
  -15.0664   11.4770    0.0000 C   0  0  0  0  0  0  0  0  0  0  0  0
  -13.5746   11.3202    0.0000 C   0  0  0  0  0  0  0  0  0  0  0  0
  -12.9645    9.9499    0.0000 C   0  0  0  0  0  0  0  0  0  0  0  0
  -13.8462    8.7364    0.0000 O   0  0  0  0  0  0  0  0  0  0  0  0
  -11.4727    9.7931    0.0000 C   0  0  0  0  0  0  0  0  0  0  0  0
  -10.8626    8.4228    0.0000 C   0  0  0  0  0  0  0  0  0  0  0  0
   -9.3709    8.2660    0.0000 C   0  0  0  0  0  0  0  0  0  0  0  0
   -8.7607    6.8957    0.0000 C   0  0  0  0  0  0  0  0  0  0  0  0
   -7.2690    6.7389    0.0000 C   0  0  0  0  0  0  0  0  0  0  0  0
   -6.6589    5.3686    0.0000 C   0  0  0  0  0  0  0  0  0  0  0  0
   -7.5405    4.1551    0.0000 N   0  0  0  0  0  0  0  0  0  0  0  0
   -9.0323    4.3118    0.0000 C   0  0  0  0  0  0  0  0  0  0  0  0
   -9.6424    5.6822    0.0000 O   0  0  0  0  0  0  0  0  0  0  0  0
   -9.9140    3.0983    0.0000 C   0  0  0  0  0  0  0  0  0  0  0  0
  -10.0708    1.6065    0.0000 C   0  0  0  0  0  0  0  0  0  0  0  0
  -11.2843    2.4882    0.0000 C   0  0  0  0  0  0  0  0  0  0  0  0
  -11.8944    3.8585    0.0000 C   0  0  0  0  0  0  0  0  0  0  0  0
  -13.3862    4.0153    0.0000 C   0  0  0  0  0  0  0  0  0  0  0  0
  -14.2679    2.8018    0.0000 N   0  0  0  0  0  0  0  0  0  0  0  0
  -15.7597    2.9586    0.0000 C   0  0  0  0  0  0  0  0  0  0  0  0
  -13.6578    1.4315    0.0000 C   0  0  0  0  0  0  0  0  0  0  0  0
  -12.1660    1.2747    0.0000 C   0  0  0  0  0  0  0  0  0  0  0  0
   -5.1671    5.2118    0.0000 C   0  0  0  0  0  0  0  0  0  0  0  0
   -4.1634    6.3265    0.0000 N   0  0  0  0  0  0  0  0  0  0  0  0
   -2.7931    5.7164    0.0000 C   0  0  0  0  0  0  0  0  0  0  0  0
   -2.9499    4.2246    0.0000 C   0  0  0  0  0  0  0  0  0  0  0  0
   -1.8351    3.2209    0.0000 C   0  0  0  0  0  0  0  0  0  0  0  0
   -0.4086    3.6844    0.0000 C   0  0  0  0  0  0  0  0  0  0  0  0
    0.7062    2.6807    0.0000 C   0  0  0  0  0  0  0  0  0  0  0  0
    0.3943    1.2135    0.0000 N   0  0  0  0  0  0  0  0  0  0  0  0
    1.2760    0.0000    0.0000 N   0  0  0  0  0  0  0  0  0  0  0  0
    0.3943   -1.2135    0.0000 C   0  0  0  0  0  0  0  0  0  0  0  0
   -1.0323   -0.7500    0.0000 N   0  0  0  0  0  0  0  0  0  0  0  0
   -1.0323    0.7500    0.0000 C   0  0  0  0  0  0  0  0  0  0  0  0
   -2.1470    1.7537    0.0000 C   0  0  0  0  0  0  0  0  0  0  0  0
   -4.4171    3.9127    0.0000 N   0  0  0  0  0  0  0  0  0  0  0  0
  1  2  1  0
  2  3  1  0
  3  4  2  0
  3  5  1  0
  5  6  1  0
  6  7  1  0
  7  8  1  0
  8  9  1  0
 10  9  1  1
 10 11  1  0
 11 12  1  0
 12 13  2  0
 14 12  1  1
 14 15  1  0
 15 16  1  0
 16 17  1  0
 17 18  1  0
 18 19  1  0
 19 20  1  0
 19 21  1  0
 21 22  1  0
 10 23  1  0
 23 24  2  0
 24 25  1  0
 25 26  2  0
 26 27  1  0
 27 28  1  0
 28 29  2  0
 29 30  1  0
 30 31  1  0
 31 32  2  0
 32 33  1  0
 33 34  2  0
 34 35  1  0
 26 36  1  0
 16 14  1  0
 36 23  1  0
 22 16  1  0
 35 27  2  0
 34 30  1  0
M  END
>  <Affinity>  (29) 
249.0

>  <Affinity Type>  (29) 
IC50

>  <Affinity Unit>  (29) 
nM

>  <Scaffold>  (29) 
[#6&!R]-&!@[#6&!R]-&!@[#6&!R](=&!@[#8&!R])-&!@[#6&!R]-&!@[#6&!R]-&!@[#6&!R]-&!@[#6&!R]-&!@[#6&!R]-&!@[#6&!R](-&!@[#7&!R]-&!@[#6&!R](=&!@[#8&!R])-&!@[#6&R]1-&@[#6&R]-&@[#6&R]-&@12-&@[#6&R]-&@[#6&R]-&@[#7&R](-&@[#6&R]-&@[#6&R]-&@2)-&!@[#6&!R])-&!@[#6&R]1:&@[#7&R]:&@[#6&R]:&@[#6&R](:&@[#7&R]:&@1)-&!@[#6&R]

$$$$
Q92769_Sries57339_idx-in-all-actives-425
     RDKit          2D

 38 41  0  0  0  0  0  0  0  0999 V2000
   14.7990   -8.5442    0.0000 C   0  0  0  0  0  0  0  0  0  0  0  0
   13.2990   -8.5442    0.0000 C   0  0  0  0  0  0  0  0  0  0  0  0
   12.5490   -7.2452    0.0000 C   0  0  0  0  0  0  0  0  0  0  0  0
   13.2990   -5.9462    0.0000 O   0  0  0  0  0  0  0  0  0  0  0  0
   11.0490   -7.2452    0.0000 C   0  0  0  0  0  0  0  0  0  0  0  0
   10.2990   -5.9462    0.0000 C   0  0  0  0  0  0  0  0  0  0  0  0
    8.7990   -5.9462    0.0000 C   0  0  0  0  0  0  0  0  0  0  0  0
    8.0490   -4.6471    0.0000 C   0  0  0  0  0  0  0  0  0  0  0  0
    6.5490   -4.6471    0.0000 C   0  0  0  0  0  0  0  0  0  0  0  0
    5.7990   -3.3481    0.0000 C   0  0  0  0  0  0  0  0  0  0  0  0
    4.2990   -3.3481    0.0000 N   0  0  0  0  0  0  0  0  0  0  0  0
    3.5490   -2.0490    0.0000 C   0  0  0  0  0  0  0  0  0  0  0  0
    4.2990   -0.7500    0.0000 O   0  0  0  0  0  0  0  0  0  0  0  0
    2.0490   -2.0490    0.0000 C   0  0  0  0  0  0  0  0  0  0  0  0
    0.7500   -2.7990    0.0000 C   0  0  0  0  0  0  0  0  0  0  0  0
    0.7500   -1.2990    0.0000 C   0  0  0  0  0  0  0  0  0  0  0  0
    1.5000    0.0000    0.0000 C   0  0  0  0  0  0  0  0  0  0  0  0
    0.7500    1.2990    0.0000 C   0  0  0  0  0  0  0  0  0  0  0  0
   -0.7500    1.2990    0.0000 N   0  0  0  0  0  0  0  0  0  0  0  0
   -1.5000    2.5981    0.0000 C   0  0  0  0  0  0  0  0  0  0  0  0
   -0.7500    3.8971    0.0000 C   0  0  0  0  0  0  0  0  0  0  0  0
   -1.5000    0.0000    0.0000 C   0  0  0  0  0  0  0  0  0  0  0  0
   -0.7500   -1.2990    0.0000 C   0  0  0  0  0  0  0  0  0  0  0  0
    6.5490   -2.0490    0.0000 C   0  0  0  0  0  0  0  0  0  0  0  0
    5.9389   -0.6787    0.0000 N   0  0  0  0  0  0  0  0  0  0  0  0
    7.0537    0.3250    0.0000 C   0  0  0  0  0  0  0  0  0  0  0  0
    8.3527   -0.4250    0.0000 C   0  0  0  0  0  0  0  0  0  0  0  0
    9.7230    0.1851    0.0000 C   0  0  0  0  0  0  0  0  0  0  0  0
   10.9365   -0.6966    0.0000 C   0  0  0  0  0  0  0  0  0  0  0  0
   10.7797   -2.1884    0.0000 O   0  0  0  0  0  0  0  0  0  0  0  0
   11.9933   -3.0701    0.0000 C   0  0  0  0  0  0  0  0  0  0  0  0
   12.3069   -0.0865    0.0000 C   0  0  0  0  0  0  0  0  0  0  0  0
   12.4636    1.4053    0.0000 C   0  0  0  0  0  0  0  0  0  0  0  0
   11.2501    2.2870    0.0000 C   0  0  0  0  0  0  0  0  0  0  0  0
   11.4069    3.7788    0.0000 F   0  0  0  0  0  0  0  0  0  0  0  0
    9.8798    1.6769    0.0000 C   0  0  0  0  0  0  0  0  0  0  0  0
    8.6663    2.5585    0.0000 F   0  0  0  0  0  0  0  0  0  0  0  0
    8.0408   -1.8922    0.0000 N   0  0  0  0  0  0  0  0  0  0  0  0
  1  2  1  0
  2  3  1  0
  3  4  2  0
  3  5  1  0
  5  6  1  0
  6  7  1  0
  7  8  1  0
  8  9  1  0
 10  9  1  6
 10 11  1  0
 11 12  1  0
 12 13  2  0
 14 12  1  1
 14 15  1  0
 15 16  1  0
 16 17  1  0
 17 18  1  0
 18 19  1  0
 19 20  1  0
 20 21  1  0
 19 22  1  0
 22 23  1  0
 10 24  1  0
 24 25  2  0
 25 26  1  0
 26 27  2  0
 27 28  1  0
 28 29  2  0
 29 30  1  0
 30 31  1  0
 29 32  1  0
 32 33  2  0
 33 34  1  0
 34 35  1  0
 34 36  2  0
 36 37  1  0
 27 38  1  0
 16 14  1  0
 38 24  1  0
 23 16  1  0
 36 28  1  0
M  END
>  <Affinity>  (30) 
1553.0

>  <Affinity Type>  (30) 
IC50

>  <Affinity Unit>  (30) 
nM

>  <Scaffold>  (30) 
[#6&!R]-&!@[#6&!R]-&!@[#6&!R](=&!@[#8&!R])-&!@[#6&!R]-&!@[#6&!R]-&!@[#6&!R]-&!@[#6&!R]-&!@[#6&!R]-&!@[#6&!R](-&!@[#7&!R]-&!@[#6&!R](=&!@[#8&!R])-&!@[#6&R]1-&@[#6&R]-&@[#6&R]-&@12-&@[#6&R]-&@[#6&R]-&@[#7&R](-&@[#6&R]-&@[#6&R]-&@2)-&!@[#6&!R])-&!@[#6&R]1:&@[#7&R]:&@[#6&R]:&@[#6&R](:&@[#7&R]:&@1)-&!@[#6&R]

$$$$
Q92769_Sries57339_idx-in-all-actives-413
     RDKit          2D

 40 43  0  0  0  0  0  0  0  0999 V2000
   14.7990   -8.5442    0.0000 C   0  0  0  0  0  0  0  0  0  0  0  0
   13.2990   -8.5442    0.0000 C   0  0  0  0  0  0  0  0  0  0  0  0
   12.5490   -7.2452    0.0000 C   0  0  0  0  0  0  0  0  0  0  0  0
   13.2990   -5.9462    0.0000 O   0  0  0  0  0  0  0  0  0  0  0  0
   11.0490   -7.2452    0.0000 C   0  0  0  0  0  0  0  0  0  0  0  0
   10.2990   -5.9462    0.0000 C   0  0  0  0  0  0  0  0  0  0  0  0
    8.7990   -5.9462    0.0000 C   0  0  0  0  0  0  0  0  0  0  0  0
    8.0490   -4.6471    0.0000 C   0  0  0  0  0  0  0  0  0  0  0  0
    6.5490   -4.6471    0.0000 C   0  0  0  0  0  0  0  0  0  0  0  0
    5.7990   -3.3481    0.0000 C   0  0  0  0  0  0  0  0  0  0  0  0
    4.2990   -3.3481    0.0000 N   0  0  0  0  0  0  0  0  0  0  0  0
    3.5490   -2.0490    0.0000 C   0  0  0  0  0  0  0  0  0  0  0  0
    4.2990   -0.7500    0.0000 O   0  0  0  0  0  0  0  0  0  0  0  0
    2.0490   -2.0490    0.0000 C   0  0  0  0  0  0  0  0  0  0  0  0
    0.7500   -2.7990    0.0000 C   0  0  0  0  0  0  0  0  0  0  0  0
    0.7500   -1.2990    0.0000 C   0  0  0  0  0  0  0  0  0  0  0  0
    1.5000    0.0000    0.0000 C   0  0  0  0  0  0  0  0  0  0  0  0
    0.7500    1.2990    0.0000 C   0  0  0  0  0  0  0  0  0  0  0  0
   -0.7500    1.2990    0.0000 N   0  0  0  0  0  0  0  0  0  0  0  0
   -1.5000    2.5981    0.0000 C   0  0  0  0  0  0  0  0  0  0  0  0
   -0.7500    3.8971    0.0000 C   0  0  0  0  0  0  0  0  0  0  0  0
   -1.5000    0.0000    0.0000 C   0  0  0  0  0  0  0  0  0  0  0  0
   -0.7500   -1.2990    0.0000 C   0  0  0  0  0  0  0  0  0  0  0  0
    6.5490   -2.0490    0.0000 C   0  0  0  0  0  0  0  0  0  0  0  0
    5.9389   -0.6787    0.0000 N   0  0  0  0  0  0  0  0  0  0  0  0
    7.0537    0.3250    0.0000 C   0  0  0  0  0  0  0  0  0  0  0  0
    8.3527   -0.4250    0.0000 C   0  0  0  0  0  0  0  0  0  0  0  0
    9.7230    0.1851    0.0000 C   0  0  0  0  0  0  0  0  0  0  0  0
   10.9365   -0.6966    0.0000 C   0  0  0  0  0  0  0  0  0  0  0  0
   12.3069   -0.0865    0.0000 C   0  0  0  0  0  0  0  0  0  0  0  0
   12.4636    1.4053    0.0000 C   0  0  0  0  0  0  0  0  0  0  0  0
   11.2501    2.2870    0.0000 C   0  0  0  0  0  0  0  0  0  0  0  0
   11.4069    3.7788    0.0000 C   0  0  0  0  0  0  0  0  0  0  0  0
   11.5637    5.2705    0.0000 F   0  0  0  0  0  0  0  0  0  0  0  0
   12.8987    3.6220    0.0000 F   0  0  0  0  0  0  0  0  0  0  0  0
    9.9151    3.9355    0.0000 F   0  0  0  0  0  0  0  0  0  0  0  0
    9.8798    1.6769    0.0000 C   0  0  0  0  0  0  0  0  0  0  0  0
    8.6663    2.5585    0.0000 O   0  0  0  0  0  0  0  0  0  0  0  0
    8.8231    4.0503    0.0000 C   0  0  0  0  0  0  0  0  0  0  0  0
    8.0408   -1.8922    0.0000 N   0  0  0  0  0  0  0  0  0  0  0  0
  1  2  1  0
  2  3  1  0
  3  4  2  0
  3  5  1  0
  5  6  1  0
  6  7  1  0
  7  8  1  0
  8  9  1  0
 10  9  1  6
 10 11  1  0
 11 12  1  0
 12 13  2  0
 14 12  1  1
 14 15  1  0
 15 16  1  0
 16 17  1  0
 17 18  1  0
 18 19  1  0
 19 20  1  0
 20 21  1  0
 19 22  1  0
 22 23  1  0
 10 24  1  0
 24 25  2  0
 25 26  1  0
 26 27  2  0
 27 28  1  0
 28 29  2  0
 29 30  1  0
 30 31  2  0
 31 32  1  0
 32 33  1  0
 33 34  1  0
 33 35  1  0
 33 36  1  0
 32 37  2  0
 37 38  1  0
 38 39  1  0
 27 40  1  0
 16 14  1  0
 40 24  1  0
 23 16  1  0
 37 28  1  0
M  END
>  <Affinity>  (31) 
63.0

>  <Affinity Type>  (31) 
IC50

>  <Affinity Unit>  (31) 
nM

>  <Scaffold>  (31) 
[#6&!R]-&!@[#6&!R]-&!@[#6&!R](=&!@[#8&!R])-&!@[#6&!R]-&!@[#6&!R]-&!@[#6&!R]-&!@[#6&!R]-&!@[#6&!R]-&!@[#6&!R](-&!@[#7&!R]-&!@[#6&!R](=&!@[#8&!R])-&!@[#6&R]1-&@[#6&R]-&@[#6&R]-&@12-&@[#6&R]-&@[#6&R]-&@[#7&R](-&@[#6&R]-&@[#6&R]-&@2)-&!@[#6&!R])-&!@[#6&R]1:&@[#7&R]:&@[#6&R]:&@[#6&R](:&@[#7&R]:&@1)-&!@[#6&R]

$$$$
Q92769_Sries57339_idx-in-all-actives-426
     RDKit          2D

 40 43  0  0  0  0  0  0  0  0999 V2000
   14.7990   -8.5442    0.0000 C   0  0  0  0  0  0  0  0  0  0  0  0
   13.2990   -8.5442    0.0000 C   0  0  0  0  0  0  0  0  0  0  0  0
   12.5490   -7.2452    0.0000 C   0  0  0  0  0  0  0  0  0  0  0  0
   13.2990   -5.9462    0.0000 O   0  0  0  0  0  0  0  0  0  0  0  0
   11.0490   -7.2452    0.0000 C   0  0  0  0  0  0  0  0  0  0  0  0
   10.2990   -5.9462    0.0000 C   0  0  0  0  0  0  0  0  0  0  0  0
    8.7990   -5.9462    0.0000 C   0  0  0  0  0  0  0  0  0  0  0  0
    8.0490   -4.6471    0.0000 C   0  0  0  0  0  0  0  0  0  0  0  0
    6.5490   -4.6471    0.0000 C   0  0  0  0  0  0  0  0  0  0  0  0
    5.7990   -3.3481    0.0000 C   0  0  0  0  0  0  0  0  0  0  0  0
    4.2990   -3.3481    0.0000 N   0  0  0  0  0  0  0  0  0  0  0  0
    3.5490   -2.0490    0.0000 C   0  0  0  0  0  0  0  0  0  0  0  0
    4.2990   -0.7500    0.0000 O   0  0  0  0  0  0  0  0  0  0  0  0
    2.0490   -2.0490    0.0000 C   0  0  0  0  0  0  0  0  0  0  0  0
    0.7500   -2.7990    0.0000 C   0  0  0  0  0  0  0  0  0  0  0  0
    0.7500   -1.2990    0.0000 C   0  0  0  0  0  0  0  0  0  0  0  0
    1.5000    0.0000    0.0000 C   0  0  0  0  0  0  0  0  0  0  0  0
    0.7500    1.2990    0.0000 C   0  0  0  0  0  0  0  0  0  0  0  0
   -0.7500    1.2990    0.0000 N   0  0  0  0  0  0  0  0  0  0  0  0
   -1.5000    2.5981    0.0000 C   0  0  0  0  0  0  0  0  0  0  0  0
   -0.7500    3.8971    0.0000 C   0  0  0  0  0  0  0  0  0  0  0  0
   -1.5000    0.0000    0.0000 C   0  0  0  0  0  0  0  0  0  0  0  0
   -0.7500   -1.2990    0.0000 C   0  0  0  0  0  0  0  0  0  0  0  0
    6.5490   -2.0490    0.0000 C   0  0  0  0  0  0  0  0  0  0  0  0
    5.9389   -0.6787    0.0000 N   0  0  0  0  0  0  0  0  0  0  0  0
    7.0537    0.3250    0.0000 C   0  0  0  0  0  0  0  0  0  0  0  0
    8.3527   -0.4250    0.0000 C   0  0  0  0  0  0  0  0  0  0  0  0
    9.7230    0.1851    0.0000 C   0  0  0  0  0  0  0  0  0  0  0  0
   10.9365   -0.6966    0.0000 C   0  0  0  0  0  0  0  0  0  0  0  0
   12.3069   -0.0865    0.0000 C   0  0  0  0  0  0  0  0  0  0  0  0
   13.5204   -0.9682    0.0000 C   0  0  0  0  0  0  0  0  0  0  0  0
   14.7339   -1.8498    0.0000 F   0  0  0  0  0  0  0  0  0  0  0  0
   12.6387   -2.1817    0.0000 F   0  0  0  0  0  0  0  0  0  0  0  0
   14.4021    0.2454    0.0000 F   0  0  0  0  0  0  0  0  0  0  0  0
   12.4636    1.4053    0.0000 C   0  0  0  0  0  0  0  0  0  0  0  0
   11.2501    2.2870    0.0000 C   0  0  0  0  0  0  0  0  0  0  0  0
    9.8798    1.6769    0.0000 C   0  0  0  0  0  0  0  0  0  0  0  0
    8.6663    2.5585    0.0000 O   0  0  0  0  0  0  0  0  0  0  0  0
    8.8231    4.0503    0.0000 C   0  0  0  0  0  0  0  0  0  0  0  0
    8.0408   -1.8922    0.0000 N   0  0  0  0  0  0  0  0  0  0  0  0
  1  2  1  0
  2  3  1  0
  3  4  2  0
  3  5  1  0
  5  6  1  0
  6  7  1  0
  7  8  1  0
  8  9  1  0
 10  9  1  6
 10 11  1  0
 11 12  1  0
 12 13  2  0
 14 12  1  1
 14 15  1  0
 15 16  1  0
 16 17  1  0
 17 18  1  0
 18 19  1  0
 19 20  1  0
 20 21  1  0
 19 22  1  0
 22 23  1  0
 10 24  1  0
 24 25  2  0
 25 26  1  0
 26 27  2  0
 27 28  1  0
 28 29  2  0
 29 30  1  0
 30 31  1  0
 31 32  1  0
 31 33  1  0
 31 34  1  0
 30 35  2  0
 35 36  1  0
 36 37  2  0
 37 38  1  0
 38 39  1  0
 27 40  1  0
 16 14  1  0
 40 24  1  0
 23 16  1  0
 37 28  1  0
M  END
>  <Affinity>  (32) 
16.0

>  <Affinity Type>  (32) 
IC50

>  <Affinity Unit>  (32) 
nM

>  <Scaffold>  (32) 
[#6&!R]-&!@[#6&!R]-&!@[#6&!R](=&!@[#8&!R])-&!@[#6&!R]-&!@[#6&!R]-&!@[#6&!R]-&!@[#6&!R]-&!@[#6&!R]-&!@[#6&!R](-&!@[#7&!R]-&!@[#6&!R](=&!@[#8&!R])-&!@[#6&R]1-&@[#6&R]-&@[#6&R]-&@12-&@[#6&R]-&@[#6&R]-&@[#7&R](-&@[#6&R]-&@[#6&R]-&@2)-&!@[#6&!R])-&!@[#6&R]1:&@[#7&R]:&@[#6&R]:&@[#6&R](:&@[#7&R]:&@1)-&!@[#6&R]

$$$$
Q92769_Sries57339_idx-in-all-actives-398
     RDKit          2D

 41 45  0  0  0  0  0  0  0  0999 V2000
   14.7990   -8.5442    0.0000 C   0  0  0  0  0  0  0  0  0  0  0  0
   13.2990   -8.5442    0.0000 C   0  0  0  0  0  0  0  0  0  0  0  0
   12.5490   -7.2452    0.0000 C   0  0  0  0  0  0  0  0  0  0  0  0
   13.2990   -5.9462    0.0000 O   0  0  0  0  0  0  0  0  0  0  0  0
   11.0490   -7.2452    0.0000 C   0  0  0  0  0  0  0  0  0  0  0  0
   10.2990   -5.9462    0.0000 C   0  0  0  0  0  0  0  0  0  0  0  0
    8.7990   -5.9462    0.0000 C   0  0  0  0  0  0  0  0  0  0  0  0
    8.0490   -4.6471    0.0000 C   0  0  0  0  0  0  0  0  0  0  0  0
    6.5490   -4.6471    0.0000 C   0  0  0  0  0  0  0  0  0  0  0  0
    5.7990   -3.3481    0.0000 C   0  0  0  0  0  0  0  0  0  0  0  0
    4.2990   -3.3481    0.0000 N   0  0  0  0  0  0  0  0  0  0  0  0
    3.5490   -2.0490    0.0000 C   0  0  0  0  0  0  0  0  0  0  0  0
    4.2990   -0.7500    0.0000 O   0  0  0  0  0  0  0  0  0  0  0  0
    2.0490   -2.0490    0.0000 C   0  0  0  0  0  0  0  0  0  0  0  0
    0.7500   -2.7990    0.0000 C   0  0  0  0  0  0  0  0  0  0  0  0
    0.7500   -1.2990    0.0000 C   0  0  0  0  0  0  0  0  0  0  0  0
    1.5000    0.0000    0.0000 C   0  0  0  0  0  0  0  0  0  0  0  0
    0.7500    1.2990    0.0000 C   0  0  0  0  0  0  0  0  0  0  0  0
   -0.7500    1.2990    0.0000 N   0  0  0  0  0  0  0  0  0  0  0  0
   -1.5000    2.5981    0.0000 C   0  0  0  0  0  0  0  0  0  0  0  0
   -1.5000    0.0000    0.0000 C   0  0  0  0  0  0  0  0  0  0  0  0
   -0.7500   -1.2990    0.0000 C   0  0  0  0  0  0  0  0  0  0  0  0
    6.5490   -2.0490    0.0000 C   0  0  0  0  0  0  0  0  0  0  0  0
    5.9389   -0.6787    0.0000 N   0  0  0  0  0  0  0  0  0  0  0  0
    7.0537    0.3250    0.0000 C   0  0  0  0  0  0  0  0  0  0  0  0
    8.3527   -0.4250    0.0000 C   0  0  0  0  0  0  0  0  0  0  0  0
    9.7230    0.1851    0.0000 C   0  0  0  0  0  0  0  0  0  0  0  0
   10.9365   -0.6966    0.0000 C   0  0  0  0  0  0  0  0  0  0  0  0
   12.3069   -0.0865    0.0000 C   0  0  0  0  0  0  0  0  0  0  0  0
   12.4636    1.4053    0.0000 C   0  0  0  0  0  0  0  0  0  0  0  0
   13.8340    2.0154    0.0000 C   0  0  0  0  0  0  0  0  0  0  0  0
   13.9908    3.5072    0.0000 O   0  0  0  0  0  0  0  0  0  0  0  0
   15.0475    1.1337    0.0000 N   0  0  0  0  0  0  0  0  0  0  0  0
   16.4178    1.7438    0.0000 C   0  0  0  0  0  0  0  0  0  0  0  0
   16.7297    3.2110    0.0000 C   0  0  0  0  0  0  0  0  0  0  0  0
   18.2215    3.3678    0.0000 C   0  0  0  0  0  0  0  0  0  0  0  0
   18.8316    1.9975    0.0000 O   0  0  0  0  0  0  0  0  0  0  0  0
   17.7168    0.9938    0.0000 C   0  0  0  0  0  0  0  0  0  0  0  0
   11.2501    2.2870    0.0000 C   0  0  0  0  0  0  0  0  0  0  0  0
    9.8798    1.6769    0.0000 C   0  0  0  0  0  0  0  0  0  0  0  0
    8.0408   -1.8922    0.0000 N   0  0  0  0  0  0  0  0  0  0  0  0
  1  2  1  0
  2  3  1  0
  3  4  2  0
  3  5  1  0
  5  6  1  0
  6  7  1  0
  7  8  1  0
  8  9  1  0
 10  9  1  6
 10 11  1  0
 11 12  1  0
 12 13  2  0
 14 12  1  1
 14 15  1  0
 15 16  1  0
 16 17  1  0
 17 18  1  0
 18 19  1  0
 19 20  1  0
 19 21  1  0
 21 22  1  0
 10 23  1  0
 23 24  2  0
 24 25  1  0
 25 26  2  0
 26 27  1  0
 27 28  2  0
 28 29  1  0
 29 30  2  0
 30 31  1  0
 31 32  2  0
 31 33  1  0
 33 34  1  0
 34 35  1  0
 35 36  1  0
 36 37  1  0
 37 38  1  0
 30 39  1  0
 39 40  2  0
 26 41  1  0
 16 14  1  0
 41 23  1  0
 22 16  1  0
 40 27  1  0
 38 34  1  0
M  END
>  <Affinity>  (33) 
70.0

>  <Affinity Type>  (33) 
IC50

>  <Affinity Unit>  (33) 
nM

>  <Scaffold>  (33) 
[#6&!R]-&!@[#6&!R]-&!@[#6&!R](=&!@[#8&!R])-&!@[#6&!R]-&!@[#6&!R]-&!@[#6&!R]-&!@[#6&!R]-&!@[#6&!R]-&!@[#6&!R](-&!@[#7&!R]-&!@[#6&!R](=&!@[#8&!R])-&!@[#6&R]1-&@[#6&R]-&@[#6&R]-&@12-&@[#6&R]-&@[#6&R]-&@[#7&R](-&@[#6&R]-&@[#6&R]-&@2)-&!@[#6&!R])-&!@[#6&R]1:&@[#7&R]:&@[#6&R]:&@[#6&R](:&@[#7&R]:&@1)-&!@[#6&R]

$$$$
Q92769_Sries57339_idx-in-all-actives-414
     RDKit          2D

 50 54  0  0  0  0  0  0  0  0999 V2000
   14.7990   -8.5442    0.0000 C   0  0  0  0  0  0  0  0  0  0  0  0
   13.2990   -8.5442    0.0000 C   0  0  0  0  0  0  0  0  0  0  0  0
   12.5490   -7.2452    0.0000 C   0  0  0  0  0  0  0  0  0  0  0  0
   13.2990   -5.9462    0.0000 O   0  0  0  0  0  0  0  0  0  0  0  0
   11.0490   -7.2452    0.0000 C   0  0  0  0  0  0  0  0  0  0  0  0
   10.2990   -5.9462    0.0000 C   0  0  0  0  0  0  0  0  0  0  0  0
    8.7990   -5.9462    0.0000 C   0  0  0  0  0  0  0  0  0  0  0  0
    8.0490   -4.6471    0.0000 C   0  0  0  0  0  0  0  0  0  0  0  0
    6.5490   -4.6471    0.0000 C   0  0  0  0  0  0  0  0  0  0  0  0
    5.7990   -3.3481    0.0000 C   0  0  0  0  0  0  0  0  0  0  0  0
    4.2990   -3.3481    0.0000 N   0  0  0  0  0  0  0  0  0  0  0  0
    3.5490   -2.0490    0.0000 C   0  0  0  0  0  0  0  0  0  0  0  0
    4.2990   -0.7500    0.0000 O   0  0  0  0  0  0  0  0  0  0  0  0
    2.0490   -2.0490    0.0000 C   0  0  0  0  0  0  0  0  0  0  0  0
    0.7500   -2.7990    0.0000 C   0  0  0  0  0  0  0  0  0  0  0  0
    0.7500   -1.2990    0.0000 C   0  0  0  0  0  0  0  0  0  0  0  0
    1.5000    0.0000    0.0000 C   0  0  0  0  0  0  0  0  0  0  0  0
    0.7500    1.2990    0.0000 C   0  0  0  0  0  0  0  0  0  0  0  0
   -0.7500    1.2990    0.0000 N   0  0  0  0  0  0  0  0  0  0  0  0
   -1.5000    2.5981    0.0000 C   0  0  0  0  0  0  0  0  0  0  0  0
   -0.7500    3.8971    0.0000 C   0  0  0  0  0  0  0  0  0  0  0  0
   -1.5000    0.0000    0.0000 C   0  0  0  0  0  0  0  0  0  0  0  0
   -0.7500   -1.2990    0.0000 C   0  0  0  0  0  0  0  0  0  0  0  0
    6.5490   -2.0490    0.0000 C   0  0  0  0  0  0  0  0  0  0  0  0
    5.9389   -0.6787    0.0000 N   0  0  0  0  0  0  0  0  0  0  0  0
    7.0537    0.3250    0.0000 C   0  0  0  0  0  0  0  0  0  0  0  0
    8.3527   -0.4250    0.0000 C   0  0  0  0  0  0  0  0  0  0  0  0
    9.7230    0.1851    0.0000 C   0  0  0  0  0  0  0  0  0  0  0  0
   10.9365   -0.6966    0.0000 C   0  0  0  0  0  0  0  0  0  0  0  0
   10.7797   -2.1884    0.0000 F   0  0  0  0  0  0  0  0  0  0  0  0
   12.3069   -0.0865    0.0000 C   0  0  0  0  0  0  0  0  0  0  0  0
   12.4636    1.4053    0.0000 C   0  0  0  0  0  0  0  0  0  0  0  0
   13.8340    2.0154    0.0000 C   0  0  0  0  0  0  0  0  0  0  0  0
   13.9908    3.5072    0.0000 O   0  0  0  0  0  0  0  0  0  0  0  0
   15.0475    1.1337    0.0000 N   0  0  0  0  0  0  0  0  0  0  0  0
   16.4178    1.7438    0.0000 C   0  0  0  0  0  0  0  0  0  0  0  0
   17.6313    0.8621    0.0000 C   0  0  0  0  0  0  0  0  0  0  0  0
   19.0016    1.4723    0.0000 C   0  0  0  0  0  0  0  0  0  0  0  0
   20.2152    0.5906    0.0000 C   0  0  0  0  0  0  0  0  0  0  0  0
   21.4287   -0.2911    0.0000 F   0  0  0  0  0  0  0  0  0  0  0  0
   19.3335   -0.6230    0.0000 F   0  0  0  0  0  0  0  0  0  0  0  0
   21.0969    1.8041    0.0000 F   0  0  0  0  0  0  0  0  0  0  0  0
   19.1584    2.9640    0.0000 C   0  0  0  0  0  0  0  0  0  0  0  0
   17.9449    3.8457    0.0000 C   0  0  0  0  0  0  0  0  0  0  0  0
   16.5746    3.2356    0.0000 N   0  0  0  0  0  0  0  0  0  0  0  0
   11.2501    2.2870    0.0000 C   0  0  0  0  0  0  0  0  0  0  0  0
    9.8798    1.6769    0.0000 C   0  0  0  0  0  0  0  0  0  0  0  0
    8.6663    2.5585    0.0000 O   0  0  0  0  0  0  0  0  0  0  0  0
    8.8231    4.0503    0.0000 C   0  0  0  0  0  0  0  0  0  0  0  0
    8.0408   -1.8922    0.0000 N   0  0  0  0  0  0  0  0  0  0  0  0
  1  2  1  0
  2  3  1  0
  3  4  2  0
  3  5  1  0
  5  6  1  0
  6  7  1  0
  7  8  1  0
  8  9  1  0
 10  9  1  6
 10 11  1  0
 11 12  1  0
 12 13  2  0
 14 12  1  1
 14 15  1  0
 15 16  1  0
 16 17  1  0
 17 18  1  0
 18 19  1  0
 19 20  1  0
 20 21  1  0
 19 22  1  0
 22 23  1  0
 10 24  1  0
 24 25  2  0
 25 26  1  0
 26 27  2  0
 27 28  1  0
 28 29  2  0
 29 30  1  0
 29 31  1  0
 31 32  2  0
 32 33  1  0
 33 34  2  0
 33 35  1  0
 35 36  1  0
 36 37  2  0
 37 38  1  0
 38 39  1  0
 39 40  1  0
 39 41  1  0
 39 42  1  0
 38 43  2  0
 43 44  1  0
 44 45  2  0
 32 46  1  0
 46 47  2  0
 47 48  1  0
 48 49  1  0
 27 50  1  0
 16 14  1  0
 50 24  1  0
 23 16  1  0
 47 28  1  0
 45 36  1  0
M  END
>  <Affinity>  (34) 
320.0

>  <Affinity Type>  (34) 
IC50

>  <Affinity Unit>  (34) 
nM

>  <Scaffold>  (34) 
[#6&!R]-&!@[#6&!R]-&!@[#6&!R](=&!@[#8&!R])-&!@[#6&!R]-&!@[#6&!R]-&!@[#6&!R]-&!@[#6&!R]-&!@[#6&!R]-&!@[#6&!R](-&!@[#7&!R]-&!@[#6&!R](=&!@[#8&!R])-&!@[#6&R]1-&@[#6&R]-&@[#6&R]-&@12-&@[#6&R]-&@[#6&R]-&@[#7&R](-&@[#6&R]-&@[#6&R]-&@2)-&!@[#6&!R])-&!@[#6&R]1:&@[#7&R]:&@[#6&R]:&@[#6&R](:&@[#7&R]:&@1)-&!@[#6&R]

$$$$
Q92769_Sries57339_idx-in-all-actives-405
     RDKit          2D

 35 38  0  0  0  0  0  0  0  0999 V2000
   14.7990   -8.5442    0.0000 C   0  0  0  0  0  0  0  0  0  0  0  0
   13.2990   -8.5442    0.0000 C   0  0  0  0  0  0  0  0  0  0  0  0
   12.5490   -7.2452    0.0000 C   0  0  0  0  0  0  0  0  0  0  0  0
   13.2990   -5.9462    0.0000 O   0  0  0  0  0  0  0  0  0  0  0  0
   11.0490   -7.2452    0.0000 C   0  0  0  0  0  0  0  0  0  0  0  0
   10.2990   -5.9462    0.0000 C   0  0  0  0  0  0  0  0  0  0  0  0
    8.7990   -5.9462    0.0000 C   0  0  0  0  0  0  0  0  0  0  0  0
    8.0490   -4.6471    0.0000 C   0  0  0  0  0  0  0  0  0  0  0  0
    6.5490   -4.6471    0.0000 C   0  0  0  0  0  0  0  0  0  0  0  0
    5.7990   -3.3481    0.0000 C   0  0  0  0  0  0  0  0  0  0  0  0
    4.2990   -3.3481    0.0000 N   0  0  0  0  0  0  0  0  0  0  0  0
    3.5490   -2.0490    0.0000 C   0  0  0  0  0  0  0  0  0  0  0  0
    4.2990   -0.7500    0.0000 O   0  0  0  0  0  0  0  0  0  0  0  0
    2.0490   -2.0490    0.0000 C   0  0  0  0  0  0  0  0  0  0  0  0
    0.7500   -2.7990    0.0000 C   0  0  0  0  0  0  0  0  0  0  0  0
    0.7500   -1.2990    0.0000 C   0  0  0  0  0  0  0  0  0  0  0  0
    1.5000    0.0000    0.0000 C   0  0  0  0  0  0  0  0  0  0  0  0
    0.7500    1.2990    0.0000 C   0  0  0  0  0  0  0  0  0  0  0  0
   -0.7500    1.2990    0.0000 N   0  0  0  0  0  0  0  0  0  0  0  0
   -1.5000    2.5981    0.0000 C   0  0  0  0  0  0  0  0  0  0  0  0
   -1.5000    0.0000    0.0000 C   0  0  0  0  0  0  0  0  0  0  0  0
   -0.7500   -1.2990    0.0000 C   0  0  0  0  0  0  0  0  0  0  0  0
    6.5490   -2.0490    0.0000 C   0  0  0  0  0  0  0  0  0  0  0  0
    5.9389   -0.6787    0.0000 N   0  0  0  0  0  0  0  0  0  0  0  0
    7.0537    0.3250    0.0000 C   0  0  0  0  0  0  0  0  0  0  0  0
    8.3527   -0.4250    0.0000 C   0  0  0  0  0  0  0  0  0  0  0  0
    9.7230    0.1851    0.0000 C   0  0  0  0  0  0  0  0  0  0  0  0
   10.9365   -0.6966    0.0000 C   0  0  0  0  0  0  0  0  0  0  0  0
   12.3069   -0.0865    0.0000 C   0  0  0  0  0  0  0  0  0  0  0  0
   13.5204   -0.9682    0.0000 O   0  0  0  0  0  0  0  0  0  0  0  0
   12.4636    1.4053    0.0000 N   0  0  0  0  0  0  0  0  0  0  0  0
   13.8340    2.0154    0.0000 C   0  0  0  0  0  0  0  0  0  0  0  0
   11.2501    2.2870    0.0000 C   0  0  0  0  0  0  0  0  0  0  0  0
    9.8798    1.6769    0.0000 C   0  0  0  0  0  0  0  0  0  0  0  0
    8.0408   -1.8922    0.0000 N   0  0  0  0  0  0  0  0  0  0  0  0
  1  2  1  0
  2  3  1  0
  3  4  2  0
  3  5  1  0
  5  6  1  0
  6  7  1  0
  7  8  1  0
  8  9  1  0
 10  9  1  6
 10 11  1  0
 11 12  1  0
 12 13  2  0
 14 12  1  1
 14 15  1  0
 15 16  1  0
 16 17  1  0
 17 18  1  0
 18 19  1  0
 19 20  1  0
 19 21  1  0
 21 22  1  0
 10 23  1  0
 23 24  2  0
 24 25  1  0
 25 26  2  0
 26 27  1  0
 27 28  2  0
 28 29  1  0
 29 30  2  0
 29 31  1  0
 31 32  1  0
 31 33  1  0
 33 34  1  0
 26 35  1  0
 16 14  1  0
 35 23  1  0
 22 16  1  0
 34 27  1  0
M  END
>  <Affinity>  (35) 
1664.0

>  <Affinity Type>  (35) 
IC50

>  <Affinity Unit>  (35) 
nM

>  <Scaffold>  (35) 
[#6&!R]-&!@[#6&!R]-&!@[#6&!R](=&!@[#8&!R])-&!@[#6&!R]-&!@[#6&!R]-&!@[#6&!R]-&!@[#6&!R]-&!@[#6&!R]-&!@[#6&!R](-&!@[#7&!R]-&!@[#6&!R](=&!@[#8&!R])-&!@[#6&R]1-&@[#6&R]-&@[#6&R]-&@12-&@[#6&R]-&@[#6&R]-&@[#7&R](-&@[#6&R]-&@[#6&R]-&@2)-&!@[#6&!R])-&!@[#6&R]1:&@[#7&R]:&@[#6&R]:&@[#6&R](:&@[#7&R]:&@1)-&!@[#6&R]

$$$$
Q92769_Sries57339_idx-in-all-actives-427
     RDKit          2D

 37 40  0  0  0  0  0  0  0  0999 V2000
   14.7990   -8.5442    0.0000 C   0  0  0  0  0  0  0  0  0  0  0  0
   13.2990   -8.5442    0.0000 C   0  0  0  0  0  0  0  0  0  0  0  0
   12.5490   -7.2452    0.0000 C   0  0  0  0  0  0  0  0  0  0  0  0
   13.2990   -5.9462    0.0000 O   0  0  0  0  0  0  0  0  0  0  0  0
   11.0490   -7.2452    0.0000 C   0  0  0  0  0  0  0  0  0  0  0  0
   10.2990   -5.9462    0.0000 C   0  0  0  0  0  0  0  0  0  0  0  0
    8.7990   -5.9462    0.0000 C   0  0  0  0  0  0  0  0  0  0  0  0
    8.0490   -4.6471    0.0000 C   0  0  0  0  0  0  0  0  0  0  0  0
    6.5490   -4.6471    0.0000 C   0  0  0  0  0  0  0  0  0  0  0  0
    5.7990   -3.3481    0.0000 C   0  0  0  0  0  0  0  0  0  0  0  0
    4.2990   -3.3481    0.0000 N   0  0  0  0  0  0  0  0  0  0  0  0
    3.5490   -2.0490    0.0000 C   0  0  0  0  0  0  0  0  0  0  0  0
    4.2990   -0.7500    0.0000 O   0  0  0  0  0  0  0  0  0  0  0  0
    2.0490   -2.0490    0.0000 C   0  0  0  0  0  0  0  0  0  0  0  0
    0.7500   -2.7990    0.0000 C   0  0  0  0  0  0  0  0  0  0  0  0
    0.7500   -1.2990    0.0000 C   0  0  0  0  0  0  0  0  0  0  0  0
    1.5000    0.0000    0.0000 C   0  0  0  0  0  0  0  0  0  0  0  0
    0.7500    1.2990    0.0000 C   0  0  0  0  0  0  0  0  0  0  0  0
   -0.7500    1.2990    0.0000 N   0  0  0  0  0  0  0  0  0  0  0  0
   -1.5000    2.5981    0.0000 C   0  0  0  0  0  0  0  0  0  0  0  0
   -0.7500    3.8971    0.0000 C   0  0  0  0  0  0  0  0  0  0  0  0
   -1.5000    0.0000    0.0000 C   0  0  0  0  0  0  0  0  0  0  0  0
   -0.7500   -1.2990    0.0000 C   0  0  0  0  0  0  0  0  0  0  0  0
    6.5490   -2.0490    0.0000 C   0  0  0  0  0  0  0  0  0  0  0  0
    5.9389   -0.6787    0.0000 N   0  0  0  0  0  0  0  0  0  0  0  0
    7.0537    0.3250    0.0000 C   0  0  0  0  0  0  0  0  0  0  0  0
    8.3527   -0.4250    0.0000 C   0  0  0  0  0  0  0  0  0  0  0  0
    9.7230    0.1851    0.0000 C   0  0  0  0  0  0  0  0  0  0  0  0
   10.9365   -0.6966    0.0000 C   0  0  0  0  0  0  0  0  0  0  0  0
   12.3069   -0.0865    0.0000 C   0  0  0  0  0  0  0  0  0  0  0  0
   12.4636    1.4053    0.0000 C   0  0  0  0  0  0  0  0  0  0  0  0
   11.2501    2.2870    0.0000 C   0  0  0  0  0  0  0  0  0  0  0  0
   11.4069    3.7788    0.0000 F   0  0  0  0  0  0  0  0  0  0  0  0
    9.8798    1.6769    0.0000 C   0  0  0  0  0  0  0  0  0  0  0  0
    8.6663    2.5585    0.0000 O   0  0  0  0  0  0  0  0  0  0  0  0
    8.8231    4.0503    0.0000 C   0  0  0  0  0  0  0  0  0  0  0  0
    8.0408   -1.8922    0.0000 N   0  0  0  0  0  0  0  0  0  0  0  0
  1  2  1  0
  2  3  1  0
  3  4  2  0
  3  5  1  0
  5  6  1  0
  6  7  1  0
  7  8  1  0
  8  9  1  0
 10  9  1  6
 10 11  1  0
 11 12  1  0
 12 13  2  0
 14 12  1  1
 14 15  1  0
 15 16  1  0
 16 17  1  0
 17 18  1  0
 18 19  1  0
 19 20  1  0
 20 21  1  0
 19 22  1  0
 22 23  1  0
 10 24  1  0
 24 25  2  0
 25 26  1  0
 26 27  2  0
 27 28  1  0
 28 29  2  0
 29 30  1  0
 30 31  2  0
 31 32  1  0
 32 33  1  0
 32 34  2  0
 34 35  1  0
 35 36  1  0
 27 37  1  0
 16 14  1  0
 37 24  1  0
 23 16  1  0
 34 28  1  0
M  END
>  <Affinity>  (36) 
25.0

>  <Affinity Type>  (36) 
IC50

>  <Affinity Unit>  (36) 
nM

>  <Scaffold>  (36) 
[#6&!R]-&!@[#6&!R]-&!@[#6&!R](=&!@[#8&!R])-&!@[#6&!R]-&!@[#6&!R]-&!@[#6&!R]-&!@[#6&!R]-&!@[#6&!R]-&!@[#6&!R](-&!@[#7&!R]-&!@[#6&!R](=&!@[#8&!R])-&!@[#6&R]1-&@[#6&R]-&@[#6&R]-&@12-&@[#6&R]-&@[#6&R]-&@[#7&R](-&@[#6&R]-&@[#6&R]-&@2)-&!@[#6&!R])-&!@[#6&R]1:&@[#7&R]:&@[#6&R]:&@[#6&R](:&@[#7&R]:&@1)-&!@[#6&R]

$$$$
