Q92769_Sries57339_idx-in-all-actives-424
     RDKit          3D

 82 85  0  0  0  0  0  0  0  0999 V2000
   18.7942  -19.9174    0.8371 C   0  0  0  0  0  0  0  0  0  0  0  0
   20.3335  -19.9034    0.8224 C   0  0  0  0  0  0  0  0  0  0  0  0
   20.9767  -18.9574   -0.2021 C   0  0  0  0  0  0  0  0  0  0  0  0
   20.2874  -18.3116   -0.9979 O   0  0  0  0  0  0  0  0  0  0  0  0
   22.5074  -18.8408   -0.1814 C   0  0  0  0  0  0  0  0  0  0  0  0
   23.0822  -17.5621   -0.8361 C   0  0  0  0  0  0  0  0  0  0  0  0
   24.6091  -17.6022   -1.0590 C   0  0  0  0  0  0  0  0  0  0  0  0
   25.4030  -17.5025    0.2494 C   0  0  0  0  0  0  0  0  0  0  0  0
   26.8976  -17.8901    0.1811 C   0  0  0  0  0  0  0  0  0  0  0  0
   27.8840  -16.8058   -0.3190 C   0  0  2  0  0  0  0  0  0  0  0  0
   29.2584  -17.3127   -0.1978 N   0  0  0  0  0  0  0  0  0  0  0  0
   30.3264  -16.7496   -0.7808 C   0  0  0  0  0  0  0  0  0  0  0  0
   30.2434  -15.8894   -1.6588 O   0  0  0  0  0  0  0  0  0  0  0  0
   31.6789  -17.1567   -0.1668 C   0  0  1  0  0  0  0  0  0  0  0  0
   32.9236  -16.4477   -0.6935 C   0  0  0  0  0  0  0  0  0  0  0  0
   32.4168  -16.1190    0.6916 C   0  0  1  0  0  0  0  0  0  0  0  0
   31.7532  -14.7509    1.0001 C   0  0  0  0  0  0  0  0  0  0  0  0
   32.7303  -13.7362    1.6169 C   0  0  0  0  0  0  0  0  0  0  0  0
   33.4003  -14.3549    2.8700 N   0  0  2  0  0  0  0  0  0  0  0  0
   34.3727  -13.3668    3.5599 C   0  0  0  0  0  0  0  0  0  0  0  0
   33.6164  -12.1749    4.1732 C   0  0  0  0  0  0  0  0  0  0  0  0
   34.1507  -15.6598    2.5009 C   0  0  0  0  0  0  0  0  0  0  0  0
   33.1494  -16.6779    1.9255 C   0  0  0  0  0  0  0  0  0  0  0  0
   27.7497  -15.4996    0.4769 C   0  0  0  0  0  0  0  0  0  0  0  0
   27.0889  -14.4365    0.0842 N   0  0  0  0  0  0  0  0  0  0  0  0
   27.2424  -13.5567    1.0631 C   0  0  0  0  0  0  0  0  0  0  0  0
   27.9755  -14.0468    2.1488 C   0  0  0  0  0  0  0  0  0  0  0  0
   28.3733  -13.4838    3.4847 C   0  0  0  0  0  0  0  0  0  0  0  0
   29.0610  -14.2939    4.4012 C   0  0  0  0  0  0  0  0  0  0  0  0
   29.4215  -13.8028    5.6525 C   0  0  0  0  0  0  0  0  0  0  0  0
   29.0729  -12.4898    5.9861 C   0  0  0  0  0  0  0  0  0  0  0  0
   29.3421  -11.8836    7.1961 O   0  0  0  0  0  0  0  0  0  0  0  0
   30.0520  -12.6209    8.1861 C   0  0  0  0  0  0  0  0  0  0  0  0
   28.4197  -11.6845    5.1154 N   0  0  0  0  0  0  0  0  0  0  0  0
   28.0866  -12.1648    3.8816 C   0  0  0  0  0  0  0  0  0  0  0  0
   27.4464  -11.3056    3.0032 O   0  0  0  0  0  0  0  0  0  0  0  0
   27.3562   -9.9141    3.3091 C   0  0  0  0  0  0  0  0  0  0  0  0
   28.2873  -15.3129    1.7247 N   0  0  0  0  0  0  0  0  0  0  0  0
   18.4258  -20.6867    1.5174 H   0  0  0  0  0  0  0  0  0  0  0  0
   18.4012  -18.9646    1.1897 H   0  0  0  0  0  0  0  0  0  0  0  0
   18.3718  -20.1232   -0.1475 H   0  0  0  0  0  0  0  0  0  0  0  0
   20.6873  -20.9122    0.6193 H   0  0  0  0  0  0  0  0  0  0  0  0
   20.6916  -19.6336    1.8157 H   0  0  0  0  0  0  0  0  0  0  0  0
   22.9029  -19.7132   -0.7011 H   0  0  0  0  0  0  0  0  0  0  0  0
   22.8510  -18.9126    0.8489 H   0  0  0  0  0  0  0  0  0  0  0  0
   22.8181  -16.6867   -0.2389 H   0  0  0  0  0  0  0  0  0  0  0  0
   22.6120  -17.4116   -1.7979 H   0  0  0  0  0  0  0  0  0  0  0  0
   24.9052  -16.7824   -1.7151 H   0  0  0  0  0  0  0  0  0  0  0  0
   24.8682  -18.5128   -1.5900 H   0  0  0  0  0  0  0  0  0  0  0  0
   24.9346  -18.1338    1.0043 H   0  0  0  0  0  0  0  0  0  0  0  0
   25.2912  -16.4828    0.6022 H   0  0  0  0  0  0  0  0  0  0  0  0
   27.0077  -18.7920   -0.4222 H   0  0  0  0  0  0  0  0  0  0  0  0
   27.2085  -18.1895    1.1837 H   0  0  0  0  0  0  0  0  0  0  0  0
   27.6753  -16.6163   -1.3746 H   0  0  0  0  0  0  0  0  0  0  0  0
   29.4596  -17.8861    0.6241 H   0  0  0  0  0  0  0  0  0  0  0  0
   31.7488  -18.2115    0.1038 H   0  0  0  0  0  0  0  0  0  0  0  0
   32.8368  -15.6948   -1.4783 H   0  0  0  0  0  0  0  0  0  0  0  0
   33.8445  -17.0221   -0.7993 H   0  0  0  0  0  0  0  0  0  0  0  0
   30.9315  -14.9066    1.6988 H   0  0  0  0  0  0  0  0  0  0  0  0
   31.3140  -14.3069    0.1069 H   0  0  0  0  0  0  0  0  0  0  0  0
   32.1977  -12.8383    1.9301 H   0  0  0  0  0  0  0  0  0  0  0  0
   33.5277  -13.4618    0.9235 H   0  0  0  0  0  0  0  0  0  0  0  0
   35.1216  -13.0726    2.8223 H   0  0  0  0  0  0  0  0  0  0  0  0
   34.8502  -13.9438    4.3555 H   0  0  0  0  0  0  0  0  0  0  0  0
   34.2848  -11.5786    4.7947 H   0  0  0  0  0  0  0  0  0  0  0  0
   32.7997  -12.5129    4.8145 H   0  0  0  0  0  0  0  0  0  0  0  0
   33.2029  -11.5070    3.4195 H   0  0  0  0  0  0  0  0  0  0  0  0
   34.9211  -15.3950    1.7733 H   0  0  0  0  0  0  0  0  0  0  0  0
   34.6347  -16.0368    3.4022 H   0  0  0  0  0  0  0  0  0  0  0  0
   33.6720  -17.6036    1.6819 H   0  0  0  0  0  0  0  0  0  0  0  0
   32.4111  -16.9452    2.6845 H   0  0  0  0  0  0  0  0  0  0  0  0
   26.8010  -12.5742    0.9910 H   0  0  0  0  0  0  0  0  0  0  0  0
   29.3286  -15.3127    4.1639 H   0  0  0  0  0  0  0  0  0  0  0  0
   29.9607  -14.4473    6.3317 H   0  0  0  0  0  0  0  0  0  0  0  0
   30.1910  -11.9965    9.0698 H   0  0  0  0  0  0  0  0  0  0  0  0
   29.5037  -13.5124    8.4946 H   0  0  0  0  0  0  0  0  0  0  0  0
   31.0407  -12.9182    7.8317 H   0  0  0  0  0  0  0  0  0  0  0  0
   26.8724   -9.3975    2.4799 H   0  0  0  0  0  0  0  0  0  0  0  0
   26.7659   -9.7240    4.2073 H   0  0  0  0  0  0  0  0  0  0  0  0
   28.3477   -9.4745    3.4400 H   0  0  0  0  0  0  0  0  0  0  0  0
   28.8521  -15.9947    2.2333 H   0  0  0  0  0  0  0  0  0  0  0  0
   32.6880  -14.5867    3.5599 H   0  0  0  0  0  0  0  0  0  0  0  0
  1  2  1  0
  1 39  1  0
  1 40  1  0
  1 41  1  0
  2  3  1  0
  2 42  1  0
  2 43  1  0
  3  4  2  0
  3  5  1  0
  5  6  1  0
  5 44  1  0
  5 45  1  0
  6  7  1  0
  6 46  1  0
  6 47  1  0
  7  8  1  0
  7 48  1  0
  7 49  1  0
  8  9  1  0
  8 50  1  0
  8 51  1  0
  9 10  1  0
  9 52  1  0
  9 53  1  0
 10 11  1  0
 10 24  1  0
 10 54  1  6
 11 12  1  0
 11 55  1  0
 12 13  2  0
 12 14  1  0
 14 15  1  0
 16 14  1  0
 14 56  1  1
 16 15  1  6
 15 57  1  0
 15 58  1  0
 16 17  1  0
 16 23  1  0
 17 18  1  0
 17 59  1  0
 17 60  1  0
 18 19  1  0
 18 61  1  0
 18 62  1  0
 19 20  1  0
 19 22  1  0
 19 82  1  1
 20 21  1  0
 20 63  1  0
 20 64  1  0
 21 65  1  0
 21 66  1  0
 21 67  1  0
 22 23  1  0
 22 68  1  0
 22 69  1  0
 23 70  1  0
 23 71  1  0
 24 25  2  0
 24 38  1  0
 25 26  1  0
 26 27  2  0
 26 72  1  0
 27 28  1  0
 27 38  1  0
 28 29  2  0
 28 35  1  0
 29 30  1  0
 29 73  1  0
 30 31  2  0
 30 74  1  0
 31 32  1  0
 31 34  1  0
 32 33  1  0
 33 75  1  0
 33 76  1  0
 33 77  1  0
 34 35  2  0
 35 36  1  0
 36 37  1  0
 37 78  1  0
 37 79  1  0
 37 80  1  0
 38 81  1  0
M  CHG  1  19   1
M  END
>  <s_epik_cmdline>  (1) 
J2VwaWtfcHl0aG9uJywgJy1waHQnLCAnMi4wJywgJy1waCcsICc3LjAnLCAnLXRuJywgJzgnLCAnLW1hJywgJzUwMCcsICctaW1hZScsICc8aW5maWxlLm1hZT4nLCAnLW9tYWUnLCAnPG91dGZpbGUubWFlPic=

>  <s_epik_input>  (1) 
W0NIM11bQ0gyXU4oW0NIMl1bQ0gyXTEpW0NIMl1bQ0gyXUMxMltDQEhdKFtDSDJdMilDKD1PKVtOSF1bQ0BASF0oW0NIMl1bQ0gyXVtDSDJdW0NIMl1bQ0gyXUMoPU8pW0NIMl1bQ0gzXSljM25bY0hdYyhbbkhdMyktYzRbY0hdW2NIXWMoT1tDSDNdKW5jNE9bQ0gzXQ==

>  <s_i_glide_gridfile>  (1) 
Q92769_Sries18355_Sries63329_grid

>  <s_lp_Force_Field>  (1) 
S-OPLS

>  <s_lp_Variant>  (1) 
Q92769_Sries57339_idx-in-all-actives-424-3

>  <s_m_source_file>  (1) 
/home/fanzhehuan/myprojects/selfGenBench/Smiles_min_50_max_inf_Scaffold_50_Serise_20_pocket/Q92769/Q92769_all_active_molecules_new_20241120.sdf

>  <s_sd_Affinity_Type>  (1) 
IC50

>  <s_sd_Affinity_Unit>  (1) 
nM

>  <r_epik_Charging_Adjusted_Penalty>  (1) 
1.30403

>  <r_epik_Ionization_Penalty>  (1) 
0.55320000000000003

>  <r_epik_Ionization_Penalty_Charging>  (1) 
0.55320000000000003

>  <r_epik_Ionization_Penalty_Neutral>  (1) 
0

>  <r_epik_State_Penalty>  (1) 
0.75090000000000001

>  <r_glide_res:A100_Eint>  (1) 
-0.57014347472413096

>  <r_glide_res:A100_coul>  (1) 
-0.47250328488094301

>  <r_glide_res:A100_dist>  (1) 
6.3033546833875

>  <r_glide_res:A100_hbond>  (1) 
0

>  <r_glide_res:A100_vdw>  (1) 
-0.0976401898431878

>  <r_glide_res:A101_Eint>  (1) 
0.14918368976295199

>  <r_glide_res:A101_coul>  (1) 
0.191575985760392

>  <r_glide_res:A101_dist>  (1) 
9.2861996370410793

>  <r_glide_res:A101_hbond>  (1) 
0

>  <r_glide_res:A101_vdw>  (1) 
-0.042392295997439898

>  <r_glide_res:A102_Eint>  (1) 
-0.068618444114597194

>  <r_glide_res:A102_coul>  (1) 
0.043652719539811702

>  <r_glide_res:A102_dist>  (1) 
6.1984940330234597

>  <r_glide_res:A102_hbond>  (1) 
0

>  <r_glide_res:A102_vdw>  (1) 
-0.11227116365440901

>  <r_glide_res:A103_Eint>  (1) 
-44.909681588709198

>  <r_glide_res:A103_coul>  (1) 
-39.806911804753703

>  <r_glide_res:A103_dist>  (1) 
2.07493215263219

>  <r_glide_res:A103_hbond>  (1) 
-0.128474871697695

>  <r_glide_res:A103_vdw>  (1) 
-4.97429491225778

>  <r_glide_res:A104_Eint>  (1) 
-53.7997915429644

>  <r_glide_res:A104_coul>  (1) 
-48.792736755752401

>  <r_glide_res:A104_dist>  (1) 
1.74524908206991

>  <r_glide_res:A104_hbond>  (1) 
-0.28838028378825897

>  <r_glide_res:A104_vdw>  (1) 
-4.71867450342378

>  <r_glide_res:A105_Eint>  (1) 
-0.52110465687518803

>  <r_glide_res:A105_coul>  (1) 
-0.24892358066647999

>  <r_glide_res:A105_dist>  (1) 
5.7435524893544896

>  <r_glide_res:A105_hbond>  (1) 
0

>  <r_glide_res:A105_vdw>  (1) 
-0.27218107620870902

>  <r_glide_res:A106_Eint>  (1) 
0.34645752302761901

>  <r_glide_res:A106_coul>  (1) 
0.60339198757382395

>  <r_glide_res:A106_dist>  (1) 
4.4114563601964996

>  <r_glide_res:A106_hbond>  (1) 
0

>  <r_glide_res:A106_vdw>  (1) 
-0.256934464546205

>  <r_glide_res:A108_Eint>  (1) 
0.026111997026281999

>  <r_glide_res:A108_coul>  (1) 
0.054702350875073101

>  <r_glide_res:A108_dist>  (1) 
8.5817928190374992

>  <r_glide_res:A108_hbond>  (1) 
0

>  <r_glide_res:A108_vdw>  (1) 
-0.028590353848791099

>  <r_glide_res:A144_Eint>  (1) 
-0.40253279244644102

>  <r_glide_res:A144_coul>  (1) 
0.22201942867703101

>  <r_glide_res:A144_dist>  (1) 
2.7905649274675901

>  <r_glide_res:A144_hbond>  (1) 
0

>  <r_glide_res:A144_vdw>  (1) 
-0.62455222112347097

>  <r_glide_res:A145_Eint>  (1) 
-1.20281967035003

>  <r_glide_res:A145_coul>  (1) 
0.022994659444800902

>  <r_glide_res:A145_dist>  (1) 
2.7306839722915899

>  <r_glide_res:A145_hbond>  (1) 
0

>  <r_glide_res:A145_vdw>  (1) 
-1.2258143297948301

>  <r_glide_res:A146_Eint>  (1) 
-1.5827020294662599

>  <r_glide_res:A146_coul>  (1) 
0.046073520241899098

>  <r_glide_res:A146_dist>  (1) 
1.8862446334444301

>  <r_glide_res:A146_hbond>  (1) 
0

>  <r_glide_res:A146_vdw>  (1) 
-1.62877554970815

>  <r_glide_res:A147_Eint>  (1) 
0.16778276509170301

>  <r_glide_res:A147_coul>  (1) 
0.202250516229598

>  <r_glide_res:A147_dist>  (1) 
6.4227363092892098

>  <r_glide_res:A147_hbond>  (1) 
0

>  <r_glide_res:A147_vdw>  (1) 
-0.034467751137895603

>  <r_glide_res:A148_Eint>  (1) 
9.8130457411263006

>  <r_glide_res:A148_coul>  (1) 
9.8361615001324392

>  <r_glide_res:A148_dist>  (1) 
8.7199598989136895

>  <r_glide_res:A148_hbond>  (1) 
0

>  <r_glide_res:A148_vdw>  (1) 
-0.0231157590061471

>  <r_glide_res:A152_Eint>  (1) 
-0.24941836451462099

>  <r_glide_res:A152_coul>  (1) 
-0.20717490730631799

>  <r_glide_res:A152_dist>  (1) 
8.4284432750223193

>  <r_glide_res:A152_hbond>  (1) 
0

>  <r_glide_res:A152_vdw>  (1) 
-0.042243457208302797

>  <r_glide_res:A153_Eint>  (1) 
0.0378627873372471

>  <r_glide_res:A153_coul>  (1) 
0.31816025917273399

>  <r_glide_res:A153_dist>  (1) 
5.2431421344442199

>  <r_glide_res:A153_hbond>  (1) 
0

>  <r_glide_res:A153_vdw>  (1) 
-0.28029747183548698

>  <r_glide_res:A154_Eint>  (1) 
-0.32460309255702702

>  <r_glide_res:A154_coul>  (1) 
0.33343925682729297

>  <r_glide_res:A154_dist>  (1) 
2.1847195840510398

>  <r_glide_res:A154_hbond>  (1) 
0

>  <r_glide_res:A154_vdw>  (1) 
-0.65804234938432005

>  <r_glide_res:A155_Eint>  (1) 
-5.73330287286909

>  <r_glide_res:A155_coul>  (1) 
0.48797808013202598

>  <r_glide_res:A155_dist>  (1) 
2.3873438927631301

>  <r_glide_res:A155_hbond>  (1) 
0

>  <r_glide_res:A155_vdw>  (1) 
-6.2212809530011199

>  <r_glide_res:A156_Eint>  (1) 
-1.2926163294400601

>  <r_glide_res:A156_coul>  (1) 
-0.33868232589587299

>  <r_glide_res:A156_dist>  (1) 
2.6890334932437598

>  <r_glide_res:A156_hbond>  (1) 
0

>  <r_glide_res:A156_vdw>  (1) 
-0.953934003544191

>  <r_glide_res:A157_Eint>  (1) 
-0.34068805631620502

>  <r_glide_res:A157_coul>  (1) 
-0.26728439550135202

>  <r_glide_res:A157_dist>  (1) 
7.79949782212302

>  <r_glide_res:A157_hbond>  (1) 
0

>  <r_glide_res:A157_vdw>  (1) 
-0.073403660814852598

>  <r_glide_res:A181_Eint>  (1) 
-3.9166613175624199

>  <r_glide_res:A181_coul>  (1) 
-2.91566816887602

>  <r_glide_res:A181_dist>  (1) 
3.1358421837331401

>  <r_glide_res:A181_hbond>  (1) 
0

>  <r_glide_res:A181_vdw>  (1) 
-1.0009931486864101

>  <r_glide_res:A182_Eint>  (1) 
-0.40711572382623801

>  <r_glide_res:A182_coul>  (1) 
-0.22178115758752501

>  <r_glide_res:A182_dist>  (1) 
5.0336914938541302

>  <r_glide_res:A182_hbond>  (1) 
0

>  <r_glide_res:A182_vdw>  (1) 
-0.185334566238713

>  <r_glide_res:A183_Eint>  (1) 
-0.39768307275126102

>  <r_glide_res:A183_coul>  (1) 
1.9370713177546199

>  <r_glide_res:A183_dist>  (1) 
2.3517159581490601

>  <r_glide_res:A183_hbond>  (1) 
0

>  <r_glide_res:A183_vdw>  (1) 
-2.3347543905058799

>  <r_glide_res:A184_Eint>  (1) 
6.3288579921494499

>  <r_glide_res:A184_coul>  (1) 
6.4138203928965201

>  <r_glide_res:A184_dist>  (1) 
6.8430343070259099

>  <r_glide_res:A184_hbond>  (1) 
0

>  <r_glide_res:A184_vdw>  (1) 
-0.084962400747073202

>  <r_glide_res:A186_Eint>  (1) 
-9.5965452187877496

>  <r_glide_res:A186_coul>  (1) 
-9.5470666853441095

>  <r_glide_res:A186_dist>  (1) 
7.3608747268545702

>  <r_glide_res:A186_hbond>  (1) 
0

>  <r_glide_res:A186_vdw>  (1) 
-0.049478533443649102

>  <r_glide_res:A205_Eint>  (1) 
6.3046798928276004

>  <r_glide_res:A205_coul>  (1) 
6.3376635778470298

>  <r_glide_res:A205_dist>  (1) 
8.5361552771816793

>  <r_glide_res:A205_hbond>  (1) 
0

>  <r_glide_res:A205_vdw>  (1) 
-0.032983685019428201

>  <r_glide_res:A208_Eint>  (1) 
-7.5451480788227396

>  <r_glide_res:A208_coul>  (1) 
-7.5016278639272302

>  <r_glide_res:A208_dist>  (1) 
8.1865833021969703

>  <r_glide_res:A208_hbond>  (1) 
0

>  <r_glide_res:A208_vdw>  (1) 
-0.043520214895513297

>  <r_glide_res:A209_Eint>  (1) 
-0.179109884299675

>  <r_glide_res:A209_coul>  (1) 
0.102899685524701

>  <r_glide_res:A209_dist>  (1) 
5.7637156709322497

>  <r_glide_res:A209_hbond>  (1) 
0

>  <r_glide_res:A209_vdw>  (1) 
-0.28200956982437603

>  <r_glide_res:A210_Eint>  (1) 
-4.4306958491925599

>  <r_glide_res:A210_coul>  (1) 
0.119520950235969

>  <r_glide_res:A210_dist>  (1) 
2.4224017636970898

>  <r_glide_res:A210_hbond>  (1) 
0

>  <r_glide_res:A210_vdw>  (1) 
-4.5502167994285303

>  <r_glide_res:A211_Eint>  (1) 
-0.33639891676693301

>  <r_glide_res:A211_coul>  (1) 
-0.091765056259151101

>  <r_glide_res:A211_dist>  (1) 
5.2335331046819604

>  <r_glide_res:A211_hbond>  (1) 
0

>  <r_glide_res:A211_vdw>  (1) 
-0.24463386050778199

>  <r_glide_res:A212_Eint>  (1) 
-0.0412716438245894

>  <r_glide_res:A212_coul>  (1) 
-0.0095500967160094801

>  <r_glide_res:A212_dist>  (1) 
7.6650485520947704

>  <r_glide_res:A212_hbond>  (1) 
0

>  <r_glide_res:A212_vdw>  (1) 
-0.031721547108579898

>  <r_glide_res:A265_Eint>  (1) 
0.175260726166338

>  <r_glide_res:A265_coul>  (1) 
0.334127712791225

>  <r_glide_res:A265_dist>  (1) 
3.6925002445347599

>  <r_glide_res:A265_hbond>  (1) 
0

>  <r_glide_res:A265_vdw>  (1) 
-0.15886698662488699

>  <r_glide_res:A269_Eint>  (1) 
-2.1075063951114399

>  <r_glide_res:A269_coul>  (1) 
-1.2839923775666

>  <r_glide_res:A269_dist>  (1) 
3.1472703101258199

>  <r_glide_res:A269_hbond>  (1) 
0

>  <r_glide_res:A269_vdw>  (1) 
-0.823514017544834

>  <r_glide_res:A274_Eint>  (1) 
-6.2546254638118199

>  <r_glide_res:A274_coul>  (1) 
-6.1914533205318003

>  <r_glide_res:A274_dist>  (1) 
7.3837865130915397

>  <r_glide_res:A274_hbond>  (1) 
0

>  <r_glide_res:A274_vdw>  (1) 
-0.063172143280025794

>  <r_glide_res:A275_Eint>  (1) 
10.7731754056594

>  <r_glide_res:A275_coul>  (1) 
11.365714766290701

>  <r_glide_res:A275_dist>  (1) 
2.5942066482339499

>  <r_glide_res:A275_hbond>  (1) 
0

>  <r_glide_res:A275_vdw>  (1) 
-0.59253936063125301

>  <r_glide_res:A276_Eint>  (1) 
-2.7217263200377499

>  <r_glide_res:A276_coul>  (1) 
-0.13830185221806601

>  <r_glide_res:A276_dist>  (1) 
2.68730125348536

>  <r_glide_res:A276_hbond>  (1) 
0

>  <r_glide_res:A276_vdw>  (1) 
-2.5834244678196798

>  <r_glide_res:A277_Eint>  (1) 
-0.29412232227817398

>  <r_glide_res:A277_coul>  (1) 
-0.245145893992994

>  <r_glide_res:A277_dist>  (1) 
7.1502122280775202

>  <r_glide_res:A277_hbond>  (1) 
0

>  <r_glide_res:A277_vdw>  (1) 
-0.048976428285180201

>  <r_glide_res:A278_Eint>  (1) 
-0.0027916543873824501

>  <r_glide_res:A278_coul>  (1) 
0.0213722266365029

>  <r_glide_res:A278_dist>  (1) 
9.2300227348428905

>  <r_glide_res:A278_hbond>  (1) 
0

>  <r_glide_res:A278_vdw>  (1) 
-0.024163881023885399

>  <r_glide_res:A29_Eint>  (1) 
-0.145939055505066

>  <r_glide_res:A29_coul>  (1) 
0.073655861210676105

>  <r_glide_res:A29_dist>  (1) 
5.6026363885969097

>  <r_glide_res:A29_hbond>  (1) 
0

>  <r_glide_res:A29_vdw>  (1) 
-0.21959491671574199

>  <r_glide_res:A305_Eint>  (1) 
-0.85642086308143905

>  <r_glide_res:A305_coul>  (1) 
-0.148300914294626

>  <r_glide_res:A305_dist>  (1) 
3.0115178379155898

>  <r_glide_res:A305_hbond>  (1) 
0

>  <r_glide_res:A305_vdw>  (1) 
-0.70811994878681295

>  <r_glide_res:A306_Eint>  (1) 
-1.3582726045414

>  <r_glide_res:A306_coul>  (1) 
-0.68650219264426504

>  <r_glide_res:A306_dist>  (1) 
2.0700239464669701

>  <r_glide_res:A306_hbond>  (1) 
0

>  <r_glide_res:A306_vdw>  (1) 
-0.67177041189713305

>  <r_glide_res:A307_Eint>  (1) 
-0.34842694987508999

>  <r_glide_res:A307_coul>  (1) 
-0.171591048794527

>  <r_glide_res:A307_dist>  (1) 
4.3989634917195399

>  <r_glide_res:A307_hbond>  (1) 
0

>  <r_glide_res:A307_vdw>  (1) 
-0.17683590108056299

>  <r_glide_res:A308_Eint>  (1) 
-4.1435174545701097

>  <r_glide_res:A308_coul>  (1) 
-2.4598763764449401

>  <r_glide_res:A308_dist>  (1) 
2.1095070947064598

>  <r_glide_res:A308_hbond>  (1) 
-0.28152613711462898

>  <r_glide_res:A308_vdw>  (1) 
-1.40211494101055

>  <r_glide_res:A309_Eint>  (1) 
-0.19532113686696001

>  <r_glide_res:A309_coul>  (1) 
-0.176833899177854

>  <r_glide_res:A309_dist>  (1) 
9.8807063940403701

>  <r_glide_res:A309_hbond>  (1) 
0

>  <r_glide_res:A309_vdw>  (1) 
-0.0184872376891063

>  <r_glide_res:A32_Eint>  (1) 
-1.50656919754691

>  <r_glide_res:A32_coul>  (1) 
-0.25405008691804298

>  <r_glide_res:A32_dist>  (1) 
2.8158422234625902

>  <r_glide_res:A32_hbond>  (1) 
0

>  <r_glide_res:A32_vdw>  (1) 
-1.25251911062887

>  <r_glide_res:A33_Eint>  (1) 
-1.1466565736387899

>  <r_glide_res:A33_coul>  (1) 
2.1826793339940802

>  <r_glide_res:A33_dist>  (1) 
2.6647427756857698

>  <r_glide_res:A33_hbond>  (1) 
0

>  <r_glide_res:A33_vdw>  (1) 
-3.3293359076328701

>  <r_glide_res:A34_Eint>  (1) 
-2.6769816650110299

>  <r_glide_res:A34_coul>  (1) 
0.38663479588709998

>  <r_glide_res:A34_dist>  (1) 
2.2145733982199101

>  <r_glide_res:A34_hbond>  (1) 
0

>  <r_glide_res:A34_vdw>  (1) 
-3.06361646089813

>  <r_glide_res:A35_Eint>  (1) 
-0.69295146596027102

>  <r_glide_res:A35_coul>  (1) 
0.435116127604738

>  <r_glide_res:A35_dist>  (1) 
2.47222808162139

>  <r_glide_res:A35_hbond>  (1) 
0

>  <r_glide_res:A35_vdw>  (1) 
-1.12806759356501

>  <r_glide_res:A36_Eint>  (1) 
8.5477265160952793

>  <r_glide_res:A36_coul>  (1) 
8.6160452550084106

>  <r_glide_res:A36_dist>  (1) 
6.9909369018280101

>  <r_glide_res:A36_hbond>  (1) 
0

>  <r_glide_res:A36_vdw>  (1) 
-0.068318738913132199

>  <r_glide_res:A37_Eint>  (1) 
0.25549910120688502

>  <r_glide_res:A37_coul>  (1) 
0.27673571146396198

>  <r_glide_res:A37_dist>  (1) 
9.0940246985783695

>  <r_glide_res:A37_hbond>  (1) 
0

>  <r_glide_res:A37_vdw>  (1) 
-0.021236610257076901

>  <r_glide_res:A39_Eint>  (1) 
7.1908223625613497

>  <r_glide_res:A39_coul>  (1) 
7.3052167620230097

>  <r_glide_res:A39_dist>  (1) 
4.2549353260358798

>  <r_glide_res:A39_hbond>  (1) 
0

>  <r_glide_res:A39_vdw>  (1) 
-0.11439439946166401

>  <r_glide_res:A401_Eint>  (1) 
-11.6299285193738

>  <r_glide_res:A401_coul>  (1) 
-15.136524710565199

>  <r_glide_res:A401_dist>  (1) 
2.04615441123451

>  <r_glide_res:A401_hbond>  (1) 
0

>  <r_glide_res:A401_vdw>  (1) 
3.5065961911914099

>  <r_i_docking_score>  (1) 
-8.1589796475289997

>  <r_i_glide_ecoul>  (1) 
-21.395765304565401

>  <r_i_glide_eff_state_penalty>  (1) 
0.75090000000000001

>  <r_i_glide_einternal>  (1) 
11.7639217376709

>  <r_i_glide_emodel>  (1) 
-104.04281859350201

>  <r_i_glide_energy>  (1) 
-62.448709487915004

>  <r_i_glide_erotb>  (1) 
0.81648794816966397

>  <r_i_glide_esite>  (1) 
-0.48402479647721602

>  <r_i_glide_evdw>  (1) 
-41.052944183349602

>  <r_i_glide_gscore>  (1) 
-8.9098796475289994

>  <r_i_glide_hbond>  (1) 
-0.69838129260058301

>  <r_i_glide_ligand_efficiency>  (1) 
-0.21470999072444699

>  <r_i_glide_ligand_efficiency_ln>  (1) 
-1.7593160248715201

>  <r_i_glide_ligand_efficiency_sa>  (1) 
-0.72184970753436195

>  <r_i_glide_lipo>  (1) 
-0.89957425721277295

>  <r_i_glide_metal>  (1) 
-2.2999999999999998

>  <r_i_glide_rewards>  (1) 
-0.082375244555796395

>  <r_lp_Energy>  (1) 
44.443600000000004

>  <r_lp_tautomer_probability>  (1) 
0.5

>  <i_epik_Tot_Q>  (1) 
1

>  <i_epik_Tot_abs_Q>  (1) 
1

>  <i_i_glide_confnum>  (1) 
66

>  <i_i_glide_lignum>  (1) 
685

>  <i_i_glide_posenum>  (1) 
83

>  <i_i_glide_rotatable_bonds>  (1) 
15

>  <i_lp_mmshare_version>  (1) 
54117

>  <i_m_ct_enhanced_stereo_status>  (1) 
0

>  <i_m_ct_format>  (1) 
2

>  <i_m_source_file_index>  (1) 
425

>  <i_sd_Affinity>  (1) 
18

>  <i_sd_i\_f3d\_flags>  (1) 
0

>  <i_sd_version>  (1) 
0

>  <b_lp_Chiralities_Consistent>  (1) 
1

>  <b_sd_chiral_flag>  (1) 
1

$$$$
