Q92769_Sries19298_idx-in-all-actives-338
     RDKit          3D

 55 57  0  0  0  0  0  0  0  0999 V2000
   20.2875  -18.1419   -0.9978 O   0  0  0  0  0  0  0  0  0  0  0  0
   20.8876  -18.9155   -0.2401 C   0  0  0  0  0  0  0  0  0  0  0  0
   22.3870  -18.7409    0.0465 C   0  0  0  0  0  0  0  0  0  0  0  0
   23.1096  -17.6584   -0.7826 C   0  0  0  0  0  0  0  0  0  0  0  0
   24.6345  -17.6741   -0.5580 C   0  0  0  0  0  0  0  0  0  0  0  0
   25.3763  -16.6244   -1.4068 C   0  0  0  0  0  0  0  0  0  0  0  0
   26.9180  -16.7452   -1.3790 C   0  0  0  0  0  0  0  0  0  0  0  0
   27.6107  -16.5945    0.0018 C   0  0  0  0  0  0  0  0  0  0  0  0
   27.5884  -15.1806    0.6024 C   0  0  0  0  0  0  0  0  0  0  0  0
   26.9589  -14.2850    0.0384 O   0  0  0  0  0  0  0  0  0  0  0  0
   28.2877  -15.0290    1.7490 N   0  0  0  0  0  0  0  0  0  0  0  0
   28.4644  -13.8808    2.5447 C   0  0  0  0  0  0  0  0  0  0  0  0
   29.2380  -14.0387    3.6988 C   0  0  0  0  0  0  0  0  0  0  0  0
   29.4875  -12.9549    4.5392 C   0  0  0  0  0  0  0  0  0  0  0  0
   28.9725  -11.6969    4.2277 C   0  0  0  0  0  0  0  0  0  0  0  0
   28.2099  -11.5147    3.0704 C   0  0  0  0  0  0  0  0  0  0  0  0
   27.6752  -10.1657    2.7255 C   0  0  0  0  0  0  0  0  0  0  0  0
   27.0873   -9.2177    3.5493 C   0  0  0  0  0  0  0  0  0  0  0  0
   26.6886   -8.1628    2.8713 N   0  0  0  0  0  0  0  0  0  0  0  0
   27.0393   -8.3647    1.5546 N   0  0  0  0  0  0  0  0  0  0  0  0
   27.6511   -9.5601    1.4757 N   0  0  0  0  0  0  0  0  0  0  0  0
   28.1854   -9.9924    0.2358 C   0  0  0  0  0  0  0  0  0  0  0  0
   27.4878   -9.7501   -0.9561 C   0  0  0  0  0  0  0  0  0  0  0  0
   28.0088  -10.1869   -2.1708 C   0  0  0  0  0  0  0  0  0  0  0  0
   29.2308  -10.8546   -2.1971 C   0  0  0  0  0  0  0  0  0  0  0  0
   29.9407  -11.0845   -1.0209 C   0  0  0  0  0  0  0  0  0  0  0  0
   29.4227  -10.6482    0.1951 C   0  0  0  0  0  0  0  0  0  0  0  0
   27.9398  -12.6116    2.2488 C   0  0  0  0  0  0  0  0  0  0  0  0
   20.2887  -19.9483    0.3749 N   0  0  0  0  0  0  0  0  0  0  0  0
   18.9266  -20.1774    0.1320 O   0  0  0  0  0  0  0  0  0  0  0  0
   22.5105  -18.5130    1.1064 H   0  0  0  0  0  0  0  0  0  0  0  0
   22.8661  -19.7019   -0.1518 H   0  0  0  0  0  0  0  0  0  0  0  0
   22.9148  -17.8204   -1.8422 H   0  0  0  0  0  0  0  0  0  0  0  0
   22.7152  -16.6715   -0.5327 H   0  0  0  0  0  0  0  0  0  0  0  0
   24.8464  -17.5064    0.4993 H   0  0  0  0  0  0  0  0  0  0  0  0
   25.0242  -18.6656   -0.7943 H   0  0  0  0  0  0  0  0  0  0  0  0
   25.0534  -16.7165   -2.4450 H   0  0  0  0  0  0  0  0  0  0  0  0
   25.0725  -15.6259   -1.0947 H   0  0  0  0  0  0  0  0  0  0  0  0
   27.1882  -17.7129   -1.7921 H   0  0  0  0  0  0  0  0  0  0  0  0
   27.3443  -16.0205   -2.0757 H   0  0  0  0  0  0  0  0  0  0  0  0
   27.1934  -17.3007    0.7202 H   0  0  0  0  0  0  0  0  0  0  0  0
   28.6601  -16.8711   -0.1110 H   0  0  0  0  0  0  0  0  0  0  0  0
   28.7870  -15.8469    2.0951 H   0  0  0  0  0  0  0  0  0  0  0  0
   29.6662  -14.9989    3.9511 H   0  0  0  0  0  0  0  0  0  0  0  0
   30.0976  -13.0936    5.4213 H   0  0  0  0  0  0  0  0  0  0  0  0
   29.1856  -10.8614    4.8789 H   0  0  0  0  0  0  0  0  0  0  0  0
   26.9316   -9.3136    4.6119 H   0  0  0  0  0  0  0  0  0  0  0  0
   26.5364   -9.2374   -0.9464 H   0  0  0  0  0  0  0  0  0  0  0  0
   27.4662  -10.0108   -3.0885 H   0  0  0  0  0  0  0  0  0  0  0  0
   29.6340  -11.1948   -3.1396 H   0  0  0  0  0  0  0  0  0  0  0  0
   30.8897  -11.5997   -1.0511 H   0  0  0  0  0  0  0  0  0  0  0  0
   29.9872  -10.8275    1.0990 H   0  0  0  0  0  0  0  0  0  0  0  0
   27.3355  -12.4383    1.3747 H   0  0  0  0  0  0  0  0  0  0  0  0
   20.7090  -20.6012    1.0271 H   0  0  0  0  0  0  0  0  0  0  0  0
   18.5025  -19.9496    0.9653 H   0  0  0  0  0  0  0  0  0  0  0  0
  1  2  2  0
  2  3  1  0
  2 29  1  0
  3  4  1  0
  3 31  1  0
  3 32  1  0
  4  5  1  0
  4 33  1  0
  4 34  1  0
  5  6  1  0
  5 35  1  0
  5 36  1  0
  6  7  1  0
  6 37  1  0
  6 38  1  0
  7  8  1  0
  7 39  1  0
  7 40  1  0
  8  9  1  0
  8 41  1  0
  8 42  1  0
  9 10  2  0
  9 11  1  0
 11 12  1  0
 11 43  1  0
 12 13  2  0
 12 28  1  0
 13 14  1  0
 13 44  1  0
 14 15  2  0
 14 45  1  0
 15 16  1  0
 15 46  1  0
 16 17  1  0
 16 28  2  0
 17 18  2  0
 17 21  1  0
 18 19  1  0
 18 47  1  0
 19 20  2  0
 20 21  1  0
 21 22  1  0
 22 23  2  0
 22 27  1  0
 23 24  1  0
 23 48  1  0
 24 25  2  0
 24 49  1  0
 25 26  1  0
 25 50  1  0
 26 27  2  0
 26 51  1  0
 27 52  1  0
 28 53  1  0
 29 30  1  0
 29 54  1  0
 30 55  1  0
M  END
>  <s_epik_Chemistry_Notes>  (1) 
This compound has a N-S or N-O group and may undergo hydrolysis at high or low pH.

>  <s_epik_cmdline>  (1) 
J2VwaWtfcHl0aG9uJywgJy1waHQnLCAnMi4wJywgJy1waCcsICc3LjAnLCAnLXRuJywgJzgnLCAnLW1hJywgJzUwMCcsICctaW1hZScsICc8aW5maWxlLm1hZT4nLCAnLW9tYWUnLCAnPG91dGZpbGUubWFlPic=

>  <s_epik_input>  (1) 
W09IXVtOSF1DKD1PKVtDSDJdW0NIMl1bQ0gyXVtDSDJdW0NIMl1bQ0gyXUMoPU8pW05IXWMxW2NIXVtjSF1bY0hdYyhbY0hdMSktYzJbY0hdbm5uMi1jM1tjSF1bY0hdW2NIXVtjSF1bY0hdMw==

>  <s_i_glide_gridfile>  (1) 
Q92769_Sries18355_Sries63329_grid

>  <s_lp_Force_Field>  (1) 
S-OPLS

>  <s_lp_Variant>  (1) 
Q92769_Sries19298_idx-in-all-actives-338-1

>  <s_m_source_file>  (1) 
/home/fanzhehuan/myprojects/selfGenBench/Smiles_min_50_max_inf_Scaffold_50_Serise_20_pocket/Q92769/Q92769_all_active_molecules_new_20241120.sdf

>  <s_sd_Affinity_Type>  (1) 
IC50

>  <s_sd_Affinity_Unit>  (1) 
nM

>  <r_epik_Charging_Adjusted_Penalty>  (1) 
0

>  <r_epik_Ionization_Penalty>  (1) 
0.0035999999999999999

>  <r_epik_Ionization_Penalty_Charging>  (1) 
0

>  <r_epik_Ionization_Penalty_Neutral>  (1) 
0.0035999999999999999

>  <r_epik_State_Penalty>  (1) 
-0

>  <r_glide_res:A100_Eint>  (1) 
-0.0626109640918283

>  <r_glide_res:A100_coul>  (1) 
-0.0312314844366701

>  <r_glide_res:A100_dist>  (1) 
7.9054916997948901

>  <r_glide_res:A100_hbond>  (1) 
0

>  <r_glide_res:A100_vdw>  (1) 
-0.031379479655158103

>  <r_glide_res:A101_Eint>  (1) 
0.040631070098356897

>  <r_glide_res:A101_coul>  (1) 
0.057334668058803599

>  <r_glide_res:A101_dist>  (1) 
9.79098355301055

>  <r_glide_res:A101_hbond>  (1) 
0

>  <r_glide_res:A101_vdw>  (1) 
-0.016703597960446698

>  <r_glide_res:A102_Eint>  (1) 
0.0585219021645174

>  <r_glide_res:A102_coul>  (1) 
0.088622519750797796

>  <r_glide_res:A102_dist>  (1) 
7.6621012216006301

>  <r_glide_res:A102_hbond>  (1) 
0

>  <r_glide_res:A102_vdw>  (1) 
-0.030100617586280499

>  <r_glide_res:A103_Eint>  (1) 
-5.3357065276740396

>  <r_glide_res:A103_coul>  (1) 
-4.0020763413039901

>  <r_glide_res:A103_dist>  (1) 
2.9262377421626899

>  <r_glide_res:A103_hbond>  (1) 
0

>  <r_glide_res:A103_vdw>  (1) 
-1.3336301863700399

>  <r_glide_res:A104_Eint>  (1) 
-14.4099458920965

>  <r_glide_res:A104_coul>  (1) 
-11.628551930711

>  <r_glide_res:A104_dist>  (1) 
1.9486669113588899

>  <r_glide_res:A104_hbond>  (1) 
-0.15001413852454101

>  <r_glide_res:A104_vdw>  (1) 
-2.63137982286091

>  <r_glide_res:A105_Eint>  (1) 
-0.32365271827381298

>  <r_glide_res:A105_coul>  (1) 
-0.18665075330986

>  <r_glide_res:A105_dist>  (1) 
6.19205422093229

>  <r_glide_res:A105_hbond>  (1) 
0

>  <r_glide_res:A105_vdw>  (1) 
-0.137001964963953

>  <r_glide_res:A106_Eint>  (1) 
-0.0607817501733433

>  <r_glide_res:A106_coul>  (1) 
0.027546724589096801

>  <r_glide_res:A106_dist>  (1) 
6.0714163076370999

>  <r_glide_res:A106_hbond>  (1) 
0

>  <r_glide_res:A106_vdw>  (1) 
-0.088328474762440198

>  <r_glide_res:A108_Eint>  (1) 
-0.0306849812762531

>  <r_glide_res:A108_coul>  (1) 
-0.0147501525067876

>  <r_glide_res:A108_dist>  (1) 
10.624196829062299

>  <r_glide_res:A108_hbond>  (1) 
0

>  <r_glide_res:A108_vdw>  (1) 
-0.0159348287694655

>  <r_glide_res:A144_Eint>  (1) 
-0.21695513222075999

>  <r_glide_res:A144_coul>  (1) 
0.173590964191497

>  <r_glide_res:A144_dist>  (1) 
3.5861650159763698

>  <r_glide_res:A144_hbond>  (1) 
0

>  <r_glide_res:A144_vdw>  (1) 
-0.39054609641225602

>  <r_glide_res:A145_Eint>  (1) 
-2.8567282926760802

>  <r_glide_res:A145_coul>  (1) 
-1.4904436357153501

>  <r_glide_res:A145_dist>  (1) 
2.7361217228062502

>  <r_glide_res:A145_hbond>  (1) 
0

>  <r_glide_res:A145_vdw>  (1) 
-1.3662846569607301

>  <r_glide_res:A146_Eint>  (1) 
-0.72306974678527502

>  <r_glide_res:A146_coul>  (1) 
1.11959411232554

>  <r_glide_res:A146_dist>  (1) 
2.2431895010932399

>  <r_glide_res:A146_hbond>  (1) 
0

>  <r_glide_res:A146_vdw>  (1) 
-1.84266385911082

>  <r_glide_res:A147_Eint>  (1) 
0.065541230361113603

>  <r_glide_res:A147_coul>  (1) 
0.0937172733365505

>  <r_glide_res:A147_dist>  (1) 
6.6645369733572499

>  <r_glide_res:A147_hbond>  (1) 
0

>  <r_glide_res:A147_vdw>  (1) 
-0.0281760429754369

>  <r_glide_res:A148_Eint>  (1) 
0.88355952395652304

>  <r_glide_res:A148_coul>  (1) 
0.89973148759946797

>  <r_glide_res:A148_dist>  (1) 
8.7976301313185594

>  <r_glide_res:A148_hbond>  (1) 
0

>  <r_glide_res:A148_vdw>  (1) 
-0.016171963642944299

>  <r_glide_res:A152_Eint>  (1) 
0.0297944782928702

>  <r_glide_res:A152_coul>  (1) 
0.053317385906877103

>  <r_glide_res:A152_dist>  (1) 
9.0852817822371001

>  <r_glide_res:A152_hbond>  (1) 
0

>  <r_glide_res:A152_vdw>  (1) 
-0.0235229076140069

>  <r_glide_res:A153_Eint>  (1) 
-0.15925814456609

>  <r_glide_res:A153_coul>  (1) 
0.0214264328206797

>  <r_glide_res:A153_dist>  (1) 
5.2901825046055704

>  <r_glide_res:A153_hbond>  (1) 
0

>  <r_glide_res:A153_vdw>  (1) 
-0.18068457738676999

>  <r_glide_res:A154_Eint>  (1) 
-3.8694655835897702

>  <r_glide_res:A154_coul>  (1) 
-1.98349581393865

>  <r_glide_res:A154_dist>  (1) 
2.3520392045216001

>  <r_glide_res:A154_hbond>  (1) 
-0.074476824617499202

>  <r_glide_res:A154_vdw>  (1) 
-1.8114929450336199

>  <r_glide_res:A155_Eint>  (1) 
-5.6889853982150003

>  <r_glide_res:A155_coul>  (1) 
-0.27225817073501302

>  <r_glide_res:A155_dist>  (1) 
2.64682030310794

>  <r_glide_res:A155_hbond>  (1) 
0

>  <r_glide_res:A155_vdw>  (1) 
-5.4167272274799902

>  <r_glide_res:A156_Eint>  (1) 
-0.93651157558624298

>  <r_glide_res:A156_coul>  (1) 
-0.14864731574268999

>  <r_glide_res:A156_dist>  (1) 
2.6201182097677198

>  <r_glide_res:A156_hbond>  (1) 
0

>  <r_glide_res:A156_vdw>  (1) 
-0.78786425984355302

>  <r_glide_res:A157_Eint>  (1) 
-0.173236424807067

>  <r_glide_res:A157_coul>  (1) 
-0.124549532048607

>  <r_glide_res:A157_dist>  (1) 
7.7204498617733801

>  <r_glide_res:A157_hbond>  (1) 
0

>  <r_glide_res:A157_vdw>  (1) 
-0.048686892758460901

>  <r_glide_res:A181_Eint>  (1) 
7.37429998746242

>  <r_glide_res:A181_coul>  (1) 
8.4646207348111506

>  <r_glide_res:A181_dist>  (1) 
3.68510890476179

>  <r_glide_res:A181_hbond>  (1) 
0

>  <r_glide_res:A181_vdw>  (1) 
-1.09032074734873

>  <r_glide_res:A182_Eint>  (1) 
-0.62762105783746003

>  <r_glide_res:A182_coul>  (1) 
-0.43309912868607198

>  <r_glide_res:A182_dist>  (1) 
4.9668201192640504

>  <r_glide_res:A182_hbond>  (1) 
0

>  <r_glide_res:A182_vdw>  (1) 
-0.194521929151388

>  <r_glide_res:A183_Eint>  (1) 
-0.80601214246124098

>  <r_glide_res:A183_coul>  (1) 
1.9621496531631899

>  <r_glide_res:A183_dist>  (1) 
2.61603709785421

>  <r_glide_res:A183_hbond>  (1) 
0

>  <r_glide_res:A183_vdw>  (1) 
-2.76816179562443

>  <r_glide_res:A184_Eint>  (1) 
-0.45115101335548102

>  <r_glide_res:A184_coul>  (1) 
-0.370036091670008

>  <r_glide_res:A184_dist>  (1) 
7.0913063489621697

>  <r_glide_res:A184_hbond>  (1) 
0

>  <r_glide_res:A184_vdw>  (1) 
-0.081114921685473199

>  <r_glide_res:A186_Eint>  (1) 
-0.62439801534679495

>  <r_glide_res:A186_coul>  (1) 
-0.58366022169676002

>  <r_glide_res:A186_dist>  (1) 
7.6113652818449404

>  <r_glide_res:A186_hbond>  (1) 
0

>  <r_glide_res:A186_vdw>  (1) 
-0.040737793650034902

>  <r_glide_res:A205_Eint>  (1) 
-0.95748137708416203

>  <r_glide_res:A205_coul>  (1) 
-0.92259984250376204

>  <r_glide_res:A205_dist>  (1) 
8.4229772181129796

>  <r_glide_res:A205_hbond>  (1) 
0

>  <r_glide_res:A205_vdw>  (1) 
-0.0348815345804009

>  <r_glide_res:A208_Eint>  (1) 
0.25499538116889697

>  <r_glide_res:A208_coul>  (1) 
0.289018193678237

>  <r_glide_res:A208_dist>  (1) 
7.9029926147544698

>  <r_glide_res:A208_hbond>  (1) 
0

>  <r_glide_res:A208_vdw>  (1) 
-0.034022812509339903

>  <r_glide_res:A209_Eint>  (1) 
-0.22785599122872199

>  <r_glide_res:A209_coul>  (1) 
0.073577129843272401

>  <r_glide_res:A209_dist>  (1) 
5.6060259257389697

>  <r_glide_res:A209_hbond>  (1) 
0

>  <r_glide_res:A209_vdw>  (1) 
-0.30143312107199399

>  <r_glide_res:A210_Eint>  (1) 
-2.86585740262371

>  <r_glide_res:A210_coul>  (1) 
0.031090560146491399

>  <r_glide_res:A210_dist>  (1) 
2.4151494142852998

>  <r_glide_res:A210_hbond>  (1) 
0

>  <r_glide_res:A210_vdw>  (1) 
-2.8969479627702102

>  <r_glide_res:A211_Eint>  (1) 
-0.25370042306455598

>  <r_glide_res:A211_coul>  (1) 
-0.080282752115027306

>  <r_glide_res:A211_dist>  (1) 
4.9714202987873302

>  <r_glide_res:A211_hbond>  (1) 
0

>  <r_glide_res:A211_vdw>  (1) 
-0.17341767094952801

>  <r_glide_res:A212_Eint>  (1) 
-0.079848115140621401

>  <r_glide_res:A212_coul>  (1) 
-0.061343225775653099

>  <r_glide_res:A212_dist>  (1) 
7.4620205305546996

>  <r_glide_res:A212_hbond>  (1) 
0

>  <r_glide_res:A212_vdw>  (1) 
-0.018504889364968299

>  <r_glide_res:A265_Eint>  (1) 
-0.34571056220375501

>  <r_glide_res:A265_coul>  (1) 
-0.17946036282957101

>  <r_glide_res:A265_dist>  (1) 
4.2248783010207998

>  <r_glide_res:A265_hbond>  (1) 
0

>  <r_glide_res:A265_vdw>  (1) 
-0.166250199374184

>  <r_glide_res:A269_Eint>  (1) 
9.0579523743331496

>  <r_glide_res:A269_coul>  (1) 
9.84985332231299

>  <r_glide_res:A269_dist>  (1) 
3.04157527247061

>  <r_glide_res:A269_hbond>  (1) 
0

>  <r_glide_res:A269_vdw>  (1) 
-0.79190094797984401

>  <r_glide_res:A274_Eint>  (1) 
3.4057000801089701

>  <r_glide_res:A274_coul>  (1) 
3.50176115257517

>  <r_glide_res:A274_dist>  (1) 
7.2232213102085296

>  <r_glide_res:A274_hbond>  (1) 
0

>  <r_glide_res:A274_vdw>  (1) 
-0.096061072466196301

>  <r_glide_res:A275_Eint>  (1) 
-7.0705182630055603

>  <r_glide_res:A275_coul>  (1) 
-5.9994575960364198

>  <r_glide_res:A275_dist>  (1) 
2.01531927195273

>  <r_glide_res:A275_hbond>  (1) 
0

>  <r_glide_res:A275_vdw>  (1) 
-1.07106066696914

>  <r_glide_res:A276_Eint>  (1) 
-4.43192060545912

>  <r_glide_res:A276_coul>  (1) 
-0.27457742000332303

>  <r_glide_res:A276_dist>  (1) 
2.2441408357830999

>  <r_glide_res:A276_hbond>  (1) 
0

>  <r_glide_res:A276_vdw>  (1) 
-4.1573431854558001

>  <r_glide_res:A277_Eint>  (1) 
-0.13294390970884201

>  <r_glide_res:A277_coul>  (1) 
-0.046568755620721103

>  <r_glide_res:A277_dist>  (1) 
6.7446814019641899

>  <r_glide_res:A277_hbond>  (1) 
0

>  <r_glide_res:A277_vdw>  (1) 
-0.086375154088120604

>  <r_glide_res:A278_Eint>  (1) 
-0.045272039845312799

>  <r_glide_res:A278_coul>  (1) 
-0.0068021354126480702

>  <r_glide_res:A278_dist>  (1) 
7.6518000297966697

>  <r_glide_res:A278_hbond>  (1) 
0

>  <r_glide_res:A278_vdw>  (1) 
-0.038469904432664799

>  <r_glide_res:A29_Eint>  (1) 
-0.079420318528314895

>  <r_glide_res:A29_coul>  (1) 
0.041149199974784202

>  <r_glide_res:A29_dist>  (1) 
6.8207316448924997

>  <r_glide_res:A29_hbond>  (1) 
0

>  <r_glide_res:A29_vdw>  (1) 
-0.12056951850309899

>  <r_glide_res:A305_Eint>  (1) 
-1.00231730079048

>  <r_glide_res:A305_coul>  (1) 
-0.39012867745263902

>  <r_glide_res:A305_dist>  (1) 
3.22053947790952

>  <r_glide_res:A305_hbond>  (1) 
0

>  <r_glide_res:A305_vdw>  (1) 
-0.61218862333783597

>  <r_glide_res:A306_Eint>  (1) 
-3.1207400381306498

>  <r_glide_res:A306_coul>  (1) 
-1.8225305095456199

>  <r_glide_res:A306_dist>  (1) 
2.9297304136502902

>  <r_glide_res:A306_hbond>  (1) 
0

>  <r_glide_res:A306_vdw>  (1) 
-1.2982095285850299

>  <r_glide_res:A307_Eint>  (1) 
-0.49446817951854399

>  <r_glide_res:A307_coul>  (1) 
-0.328140297279163

>  <r_glide_res:A307_dist>  (1) 
4.57591155039544

>  <r_glide_res:A307_hbond>  (1) 
0

>  <r_glide_res:A307_vdw>  (1) 
-0.166327882239381

>  <r_glide_res:A308_Eint>  (1) 
-4.6603475381320898

>  <r_glide_res:A308_coul>  (1) 
-3.29501888853276

>  <r_glide_res:A308_dist>  (1) 
2.0131705358894201

>  <r_glide_res:A308_hbond>  (1) 
-0.30002827704908303

>  <r_glide_res:A308_vdw>  (1) 
-1.0653003725502399

>  <r_glide_res:A309_Eint>  (1) 
0.106188176181318

>  <r_glide_res:A309_coul>  (1) 
0.13391182111812799

>  <r_glide_res:A309_dist>  (1) 
9.8415392306281593

>  <r_glide_res:A309_hbond>  (1) 
0

>  <r_glide_res:A309_vdw>  (1) 
-0.0277236449368095

>  <r_glide_res:A32_Eint>  (1) 
-1.07438069777433

>  <r_glide_res:A32_coul>  (1) 
-0.740971535824822

>  <r_glide_res:A32_dist>  (1) 
2.3942823181464998

>  <r_glide_res:A32_hbond>  (1) 
0

>  <r_glide_res:A32_vdw>  (1) 
-0.33340916194950698

>  <r_glide_res:A33_Eint>  (1) 
-0.78653512605767695

>  <r_glide_res:A33_coul>  (1) 
0.62476398787435505

>  <r_glide_res:A33_dist>  (1) 
3.6494004458521001

>  <r_glide_res:A33_hbond>  (1) 
0

>  <r_glide_res:A33_vdw>  (1) 
-1.4112991139320299

>  <r_glide_res:A34_Eint>  (1) 
-3.33042966785874

>  <r_glide_res:A34_coul>  (1) 
-0.27174848618991099

>  <r_glide_res:A34_dist>  (1) 
2.5337205529789202

>  <r_glide_res:A34_hbond>  (1) 
0

>  <r_glide_res:A34_vdw>  (1) 
-3.0586811816688302

>  <r_glide_res:A35_Eint>  (1) 
-0.11674370422675601

>  <r_glide_res:A35_coul>  (1) 
0.63579709082883795

>  <r_glide_res:A35_dist>  (1) 
3.0409584920922699

>  <r_glide_res:A35_hbond>  (1) 
0

>  <r_glide_res:A35_vdw>  (1) 
-0.75254079505559401

>  <r_glide_res:A36_Eint>  (1) 
-0.90449478426693597

>  <r_glide_res:A36_coul>  (1) 
-0.83326029631655496

>  <r_glide_res:A36_dist>  (1) 
6.8981370545199399

>  <r_glide_res:A36_hbond>  (1) 
0

>  <r_glide_res:A36_vdw>  (1) 
-0.071234487950380995

>  <r_glide_res:A37_Eint>  (1) 
0.0219236581555514

>  <r_glide_res:A37_coul>  (1) 
0.038917739401126299

>  <r_glide_res:A37_dist>  (1) 
9.7005737158412906

>  <r_glide_res:A37_hbond>  (1) 
0

>  <r_glide_res:A37_vdw>  (1) 
-0.016994081245574898

>  <r_glide_res:A39_Eint>  (1) 
-0.64841121030500704

>  <r_glide_res:A39_coul>  (1) 
-0.56637497953821403

>  <r_glide_res:A39_dist>  (1) 
4.7617901487210004

>  <r_glide_res:A39_hbond>  (1) 
0

>  <r_glide_res:A39_vdw>  (1) 
-0.082036230766793297

>  <r_glide_res:A401_Eint>  (1) 
-39.874566506735

>  <r_glide_res:A401_coul>  (1) 
-43.7244594732487

>  <r_glide_res:A401_dist>  (1) 
2.03336914648348

>  <r_glide_res:A401_hbond>  (1) 
0

>  <r_glide_res:A401_vdw>  (1) 
3.8498929665136798

>  <r_i_docking_score>  (1) 
-8.2279702473430998

>  <r_i_glide_ecoul>  (1) 
-20.515073776245099

>  <r_i_glide_eff_state_penalty>  (1) 
-0

>  <r_i_glide_einternal>  (1) 
3.1111178398132302

>  <r_i_glide_emodel>  (1) 
-90.754942932308893

>  <r_i_glide_energy>  (1) 
-55.564538955688498

>  <r_i_glide_erotb>  (1) 
1.4218368741510701

>  <r_i_glide_esite>  (1) 
-0.43609004722224298

>  <r_i_glide_evdw>  (1) 
-35.049465179443402

>  <r_i_glide_gscore>  (1) 
-8.2279702473430998

>  <r_i_glide_hbond>  (1) 
-0.52451924019112395

>  <r_i_glide_ligand_efficiency>  (1) 
-0.274265674911437

>  <r_i_glide_ligand_efficiency_ln>  (1) 
-1.86948449111267

>  <r_i_glide_ligand_efficiency_sa>  (1) 
-0.85220721938601396

>  <r_i_glide_lipo>  (1) 
-0.81079615127937898

>  <r_i_glide_metal>  (1) 
-2.2999999999999998

>  <r_i_glide_rewards>  (1) 
-0.74866735739249002

>  <r_lp_Energy>  (1) 
32.107700000000001

>  <r_lp_tautomer_probability>  (1) 
1

>  <i_epik_Tot_Q>  (1) 
0

>  <i_epik_Tot_abs_Q>  (1) 
0

>  <i_i_glide_confnum>  (1) 
84

>  <i_i_glide_lignum>  (1) 
538

>  <i_i_glide_posenum>  (1) 
364

>  <i_i_glide_rotatable_bonds>  (1) 
13

>  <i_lp_mmshare_version>  (1) 
54117

>  <i_m_ct_enhanced_stereo_status>  (1) 
0

>  <i_m_ct_format>  (1) 
2

>  <i_m_source_file_index>  (1) 
339

>  <i_sd_Affinity>  (1) 
167

>  <i_sd_i\_f3d\_flags>  (1) 
0

>  <i_sd_version>  (1) 
0

>  <b_lp_Chiralities_Consistent>  (1) 
1

>  <b_sd_chiral_flag>  (1) 
1

$$$$
