O14757_Sries14139_DeleteHit2Lead(CrossDock)_idx-in-all-generaetd-0
     RDKit          3D

 27 29  0  0  0  0  0  0  0  0999 V2000
    4.1619   -4.0888   45.6861 C   0  0  0  0  0  0  0  0  0  0  0  0
    5.3121   -7.4683   49.9296 C   0  0  0  0  0  0  0  0  0  0  0  0
    4.8638   -7.7138   47.5877 N   0  0  0  0  0  0  0  0  0  0  0  0
    5.2926   -1.0024   43.3828 Cl  0  0  0  0  0  0  0  0  0  0  0  0
    4.3588   -2.2995   44.0497 C   0  0  0  0  0  0  0  0  0  0  0  0
    5.3504   -6.9716   48.6266 C   0  0  0  0  0  0  0  0  0  0  0  0
    2.1357   -5.3204   45.8908 O   0  0  0  0  0  0  0  0  0  0  0  0
    6.4063   -3.7261   47.5587 O   0  0  0  0  0  0  0  0  0  0  0  0
    0.8021   -5.6461   45.5014 C   0  0  0  0  0  0  0  0  0  0  0  0
    4.7711   -8.6732   50.2254 N   0  0  0  0  0  0  0  0  0  0  0  0
    3.8123  -10.7237   49.5978 C   0  0  0  0  0  0  0  0  0  0  0  0
    1.3649   -8.0912   45.9303 C   0  0  0  0  0  0  0  0  0  0  0  0
    4.6584   -4.9230   46.7148 N   0  0  0  0  0  0  0  0  0  0  0  0
    4.2782   -9.4064   49.1978 C   0  0  0  0  0  0  0  0  0  0  0  0
    3.0728   -2.5730   43.5663 C   0  0  0  0  0  0  0  0  0  0  0  0
    2.3367   -3.6012   44.1704 C   0  0  0  0  0  0  0  0  0  0  0  0
    2.5621  -10.1835   46.7278 C   0  0  0  0  0  0  0  0  0  0  0  0
    0.4233   -6.9195   46.2676 C   0  0  0  0  0  0  0  0  0  0  0  0
    5.9415   -5.7062   48.4581 N   0  0  0  0  0  0  0  0  0  0  0  0
    2.8572   -4.3439   45.2366 C   0  0  0  0  0  0  0  0  0  0  0  0
    4.3032   -8.9248   47.8717 C   0  0  0  0  0  0  0  0  0  0  0  0
    3.8782   -9.6159   46.7525 O   0  0  0  0  0  0  0  0  0  0  0  0
    4.9046   -3.0595   45.0855 C   0  0  0  0  0  0  0  0  0  0  0  0
    3.4418  -11.7732   49.9159 N   0  0  0  0  0  0  0  0  0  0  0  0
    1.4273   -9.1805   47.0093 C   0  0  0  0  0  0  0  0  0  0  0  0
    5.7080   -4.7378   47.5469 C   0  0  0  0  0  0  0  0  0  0  0  0
    2.4633   -1.7718   42.3533 C   0  0  0  0  0  0  0  0  0  0  0  0
 11 24  3  0
 11 14  1  0
 14 21  1  0
 10 14  2  0
  2 10  1  0
  2  6  2  0
  6 19  1  0
  3  6  1  0
  3 21  2  0
 21 22  1  0
 17 22  1  0
 17 25  1  0
 12 25  1  0
 12 18  1  0
  9 18  1  0
  7  9  1  0
  7 20  1  0
  1 20  2  0
  1 13  1  0
  1 23  1  0
 13 26  1  0
 19 26  1  0
  8 26  2  0
  5 23  2  0
  5 15  1  0
 15 16  2  0
 16 20  1  0
  4  5  1  0
 15 27  1  0
M  END
$$$$
O14757_Sries14139_DeleteHit2Lead(CrossDock)_idx-in-all-generaetd-1
     RDKit          3D

 28 30  0  0  0  0  0  0  0  0999 V2000
    4.1619   -4.0888   45.6861 C   0  0  0  0  0  0  0  0  0  0  0  0
    5.3121   -7.4683   49.9296 C   0  0  0  0  0  0  0  0  0  0  0  0
    4.8638   -7.7138   47.5877 N   0  0  0  0  0  0  0  0  0  0  0  0
    5.2926   -1.0024   43.3828 Cl  0  0  0  0  0  0  0  0  0  0  0  0
    4.3588   -2.2995   44.0497 C   0  0  0  0  0  0  0  0  0  0  0  0
    5.3504   -6.9716   48.6266 C   0  0  0  0  0  0  0  0  0  0  0  0
    2.1357   -5.3204   45.8908 O   0  0  0  0  0  0  0  0  0  0  0  0
    6.4063   -3.7261   47.5587 O   0  0  0  0  0  0  0  0  0  0  0  0
    0.8021   -5.6461   45.5014 C   0  0  0  0  0  0  0  0  0  0  0  0
    4.7711   -8.6732   50.2254 N   0  0  0  0  0  0  0  0  0  0  0  0
    3.8123  -10.7237   49.5978 C   0  0  0  0  0  0  0  0  0  0  0  0
    1.3649   -8.0912   45.9303 C   0  0  0  0  0  0  0  0  0  0  0  0
    4.6584   -4.9230   46.7148 N   0  0  0  0  0  0  0  0  0  0  0  0
    4.2782   -9.4064   49.1978 C   0  0  0  0  0  0  0  0  0  0  0  0
    3.0728   -2.5730   43.5663 C   0  0  0  0  0  0  0  0  0  0  0  0
    2.3367   -3.6012   44.1704 C   0  0  0  0  0  0  0  0  0  0  0  0
    2.5621  -10.1835   46.7278 C   0  0  0  0  0  0  0  0  0  0  0  0
    0.4233   -6.9195   46.2676 C   0  0  0  0  0  0  0  0  0  0  0  0
    5.9415   -5.7062   48.4581 N   0  0  0  0  0  0  0  0  0  0  0  0
    2.8572   -4.3439   45.2366 C   0  0  0  0  0  0  0  0  0  0  0  0
    4.3032   -8.9248   47.8717 C   0  0  0  0  0  0  0  0  0  0  0  0
    3.8782   -9.6159   46.7525 O   0  0  0  0  0  0  0  0  0  0  0  0
    4.9046   -3.0595   45.0855 C   0  0  0  0  0  0  0  0  0  0  0  0
    3.4418  -11.7732   49.9159 N   0  0  0  0  0  0  0  0  0  0  0  0
    1.4273   -9.1805   47.0093 C   0  0  0  0  0  0  0  0  0  0  0  0
    5.7080   -4.7378   47.5469 C   0  0  0  0  0  0  0  0  0  0  0  0
    2.3693   -1.9415   42.5074 N   0  0  0  0  0  0  0  0  0  0  0  0
    1.3634   -1.9838   42.1100 O   0  0  0  0  0  0  0  0  0  0  0  0
 11 24  3  0
 11 14  1  0
 14 21  1  0
 10 14  2  0
  2 10  1  0
  2  6  2  0
  6 19  1  0
  3  6  1  0
  3 21  2  0
 21 22  1  0
 17 22  1  0
 17 25  1  0
 12 25  1  0
 12 18  1  0
  9 18  1  0
  7  9  1  0
  7 20  1  0
  1 20  2  0
  1 13  1  0
  1 23  1  0
 13 26  1  0
 19 26  1  0
  8 26  2  0
  5 23  2  0
  5 15  1  0
 15 16  2  0
 16 20  1  0
  4  5  1  0
 15 27  1  0
 27 28  1  0
M  END
$$$$
O14757_Sries14139_DeleteHit2Lead(CrossDock)_idx-in-all-generaetd-2
     RDKit          3D

 29 31  0  0  0  0  0  0  0  0999 V2000
    4.1619   -4.0888   45.6861 C   0  0  0  0  0  0  0  0  0  0  0  0
    5.3121   -7.4683   49.9296 C   0  0  0  0  0  0  0  0  0  0  0  0
    4.8638   -7.7138   47.5877 N   0  0  0  0  0  0  0  0  0  0  0  0
    5.2926   -1.0024   43.3828 Cl  0  0  0  0  0  0  0  0  0  0  0  0
    4.3588   -2.2995   44.0497 C   0  0  0  0  0  0  0  0  0  0  0  0
    5.3504   -6.9716   48.6266 C   0  0  0  0  0  0  0  0  0  0  0  0
    2.1357   -5.3204   45.8908 O   0  0  0  0  0  0  0  0  0  0  0  0
    6.4063   -3.7261   47.5587 O   0  0  0  0  0  0  0  0  0  0  0  0
    0.8021   -5.6461   45.5014 C   0  0  0  0  0  0  0  0  0  0  0  0
    4.7711   -8.6732   50.2254 N   0  0  0  0  0  0  0  0  0  0  0  0
    3.8123  -10.7237   49.5978 C   0  0  0  0  0  0  0  0  0  0  0  0
    1.3649   -8.0912   45.9303 C   0  0  0  0  0  0  0  0  0  0  0  0
    4.6584   -4.9230   46.7148 N   0  0  0  0  0  0  0  0  0  0  0  0
    4.2782   -9.4064   49.1978 C   0  0  0  0  0  0  0  0  0  0  0  0
    3.0728   -2.5730   43.5663 C   0  0  0  0  0  0  0  0  0  0  0  0
    2.3367   -3.6012   44.1704 C   0  0  0  0  0  0  0  0  0  0  0  0
    2.5621  -10.1835   46.7278 C   0  0  0  0  0  0  0  0  0  0  0  0
    0.4233   -6.9195   46.2676 C   0  0  0  0  0  0  0  0  0  0  0  0
    5.9415   -5.7062   48.4581 N   0  0  0  0  0  0  0  0  0  0  0  0
    2.8572   -4.3439   45.2366 C   0  0  0  0  0  0  0  0  0  0  0  0
    4.3032   -8.9248   47.8717 C   0  0  0  0  0  0  0  0  0  0  0  0
    3.8782   -9.6159   46.7525 O   0  0  0  0  0  0  0  0  0  0  0  0
    4.9046   -3.0595   45.0855 C   0  0  0  0  0  0  0  0  0  0  0  0
    3.4418  -11.7732   49.9159 N   0  0  0  0  0  0  0  0  0  0  0  0
    1.4273   -9.1805   47.0093 C   0  0  0  0  0  0  0  0  0  0  0  0
    5.7080   -4.7378   47.5469 C   0  0  0  0  0  0  0  0  0  0  0  0
    2.5276   -1.8952   42.4906 N   0  0  0  0  0  0  0  0  0  0  0  0
    2.7194   -0.6776   42.1205 C   0  0  0  0  0  0  0  0  0  0  0  0
    1.6512   -2.7381   41.6883 C   0  0  0  0  0  0  0  0  0  0  0  0
 11 24  3  0
 11 14  1  0
 14 21  1  0
 10 14  2  0
  2 10  1  0
  2  6  2  0
  6 19  1  0
  3  6  1  0
  3 21  2  0
 21 22  1  0
 17 22  1  0
 17 25  1  0
 12 25  1  0
 12 18  1  0
  9 18  1  0
  7  9  1  0
  7 20  1  0
  1 20  2  0
  1 13  1  0
  1 23  1  0
 13 26  1  0
 19 26  1  0
  8 26  2  0
  5 23  2  0
  5 15  1  0
 15 16  2  0
 16 20  1  0
  4  5  1  0
 15 27  1  0
 27 28  1  0
 27 29  1  0
M  END
$$$$
O14757_Sries14139_DeleteHit2Lead(CrossDock)_idx-in-all-generaetd-3
     RDKit          3D

 28 30  0  0  0  0  0  0  0  0999 V2000
    4.1619   -4.0888   45.6861 C   0  0  0  0  0  0  0  0  0  0  0  0
    5.3121   -7.4683   49.9296 C   0  0  0  0  0  0  0  0  0  0  0  0
    4.8638   -7.7138   47.5877 N   0  0  0  0  0  0  0  0  0  0  0  0
    5.2926   -1.0024   43.3828 Cl  0  0  0  0  0  0  0  0  0  0  0  0
    4.3588   -2.2995   44.0497 C   0  0  0  0  0  0  0  0  0  0  0  0
    5.3504   -6.9716   48.6266 C   0  0  0  0  0  0  0  0  0  0  0  0
    2.1357   -5.3204   45.8908 O   0  0  0  0  0  0  0  0  0  0  0  0
    6.4063   -3.7261   47.5587 O   0  0  0  0  0  0  0  0  0  0  0  0
    0.8021   -5.6461   45.5014 C   0  0  0  0  0  0  0  0  0  0  0  0
    4.7711   -8.6732   50.2254 N   0  0  0  0  0  0  0  0  0  0  0  0
    3.8123  -10.7237   49.5978 C   0  0  0  0  0  0  0  0  0  0  0  0
    1.3649   -8.0912   45.9303 C   0  0  0  0  0  0  0  0  0  0  0  0
    4.6584   -4.9230   46.7148 N   0  0  0  0  0  0  0  0  0  0  0  0
    4.2782   -9.4064   49.1978 C   0  0  0  0  0  0  0  0  0  0  0  0
    3.0728   -2.5730   43.5663 C   0  0  0  0  0  0  0  0  0  0  0  0
    2.3367   -3.6012   44.1704 C   0  0  0  0  0  0  0  0  0  0  0  0
    2.5621  -10.1835   46.7278 C   0  0  0  0  0  0  0  0  0  0  0  0
    0.4233   -6.9195   46.2676 C   0  0  0  0  0  0  0  0  0  0  0  0
    5.9415   -5.7062   48.4581 N   0  0  0  0  0  0  0  0  0  0  0  0
    2.8572   -4.3439   45.2366 C   0  0  0  0  0  0  0  0  0  0  0  0
    4.3032   -8.9248   47.8717 C   0  0  0  0  0  0  0  0  0  0  0  0
    3.8782   -9.6159   46.7525 O   0  0  0  0  0  0  0  0  0  0  0  0
    4.9046   -3.0595   45.0855 C   0  0  0  0  0  0  0  0  0  0  0  0
    3.4418  -11.7732   49.9159 N   0  0  0  0  0  0  0  0  0  0  0  0
    1.4273   -9.1805   47.0093 C   0  0  0  0  0  0  0  0  0  0  0  0
    5.7080   -4.7378   47.5469 C   0  0  0  0  0  0  0  0  0  0  0  0
    2.3693   -1.9415   42.5074 N   0  0  0  0  0  0  0  0  0  0  0  0
    1.3634   -1.9838   42.1100 C   0  0  0  0  0  0  0  0  0  0  0  0
 11 24  3  0
 11 14  1  0
 14 21  1  0
 10 14  2  0
  2 10  1  0
  2  6  2  0
  6 19  1  0
  3  6  1  0
  3 21  2  0
 21 22  1  0
 17 22  1  0
 17 25  1  0
 12 25  1  0
 12 18  1  0
  9 18  1  0
  7  9  1  0
  7 20  1  0
  1 20  2  0
  1 13  1  0
  1 23  1  0
 13 26  1  0
 19 26  1  0
  8 26  2  0
  5 23  2  0
  5 15  1  0
 15 16  2  0
 16 20  1  0
  4  5  1  0
 15 27  1  0
 27 28  1  0
M  END
$$$$
