Q92769_PocketFlow_idx-in-all-generaetd-610
     RDKit          3D

 11 11  0  0  0  0  0  0  0  0999 V2000
   24.5800  -17.2210   -0.6630 C   0  0  0  0  0  0  0  0  0  0  0  0
   24.0380  -18.3640   -0.2340 C   0  0  0  0  0  0  0  0  0  0  0  0
   22.5810  -18.1980   -0.0320 C   0  0  1  0  0  0  0  0  0  0  0  0
   22.2260  -16.9370   -0.6600 N   0  0  0  0  0  0  0  0  0  0  0  0
   23.5010  -16.1950   -0.8080 C   0  0  0  0  0  0  0  0  0  0  0  0
   25.9790  -17.0110   -0.9310 C   0  0  0  0  0  0  0  0  0  0  0  0
   26.9770  -17.2750   -0.0740 C   0  0  0  0  0  0  0  0  0  0  0  0
   28.3670  -17.0420   -0.4030 C   0  0  0  0  0  0  0  0  0  0  0  0
   29.0870  -15.9500   -0.1040 C   0  0  0  0  0  0  0  0  0  0  0  0
   28.6600  -14.7180    0.6270 C   0  0  0  0  0  0  0  0  0  0  0  0
   21.8120  -19.2010   -0.7030 N   0  0  0  0  0  0  0  0  0  0  0  0
  1  6  1  0
  1  5  1  0
  1  2  1  0
  2  3  1  0
  3 11  1  6
  3  4  1  0
  4  5  1  0
  6  7  2  3
  7  8  1  0
  8  9  2  3
  9 10  1  0
M  END
>  <vina_dock>  (1) 
-5.93

$$$$
Q92769_PocketFlow_idx-in-all-generaetd-539
     RDKit          3D

  8  7  0  0  0  0  0  0  0  0999 V2000
   22.3300  -18.1160   -0.5010 C   0  0  0  0  0  0  0  0  0  0  0  0
   22.2450  -16.8960   -0.3370 O   0  0  0  0  0  0  0  0  0  0  0  0
   21.0940  -19.0040   -0.4600 C   0  0  0  0  0  0  0  0  0  0  0  0
   19.9300  -18.2890   -0.8460 O   0  0  0  0  0  0  0  0  0  0  0  0
   23.6620  -18.7850   -0.6730 C   0  0  0  0  0  0  0  0  0  0  0  0
   24.7320  -17.7800   -0.3520 C   0  0  0  0  0  0  0  0  0  0  0  0
   25.2250  -17.2710   -1.5080 F   0  0  0  0  0  0  0  0  0  0  0  0
   25.7680  -18.4140    0.2570 F   0  0  0  0  0  0  0  0  0  0  0  0
  1  5  1  0
  1  3  1  0
  1  2  2  0
  3  4  1  0
  5  6  1  0
  6  7  1  0
  6  8  1  0
M  END
>  <vina_dock>  (2) 
-4.679

$$$$
Q92769_PocketFlow_idx-in-all-generaetd-996
     RDKit          3D

 35 37  0  0  0  0  0  0  0  0999 V2000
   26.6240  -17.8500    0.0730 C   0  0  0  0  0  0  0  0  0  0  0  0
   25.3550  -17.0420   -0.2300 C   0  0  0  0  0  0  0  0  0  0  0  0
   24.4960  -17.5790   -1.3820 C   0  0  0  0  0  0  0  0  0  0  0  0
   23.4420  -18.6020   -0.9590 C   0  0  0  0  0  0  0  0  0  0  0  0
   22.2190  -17.9680   -0.2870 C   0  0  0  0  0  0  0  0  0  0  0  0
   21.1790  -18.9960    0.1620 C   0  0  0  0  0  0  0  0  0  0  0  0
   20.1810  -19.3050   -0.9530 C   0  0  0  0  0  0  0  0  0  0  0  0
   18.9110  -19.6800   -0.4210 O   0  0  0  0  0  0  0  0  0  0  0  0
   19.0070  -20.5010    0.7360 C   0  0  0  0  0  0  0  0  0  0  0  0
   27.9610  -17.1460   -0.1950 C   0  0  0  0  0  0  0  0  0  0  0  0
   27.8360  -15.7150   -0.6900 C   0  0  0  0  0  0  0  0  0  0  0  0
   27.8260  -14.5890    0.1820 C   0  0  0  0  0  0  0  0  0  0  0  0
   27.7210  -15.5240   -2.0740 C   0  0  0  0  0  0  0  0  0  0  0  0
   27.9190  -14.7110    1.5900 C   0  0  0  0  0  0  0  0  0  0  0  0
   27.7100  -13.2810   -0.3700 C   0  0  0  0  0  0  0  0  0  0  0  0
   27.6050  -14.2470   -2.6090 C   0  0  0  0  0  0  0  0  0  0  0  0
   27.9020  -13.6000    2.4420 C   0  0  0  0  0  0  0  0  0  0  0  0
   27.5980  -13.1170   -1.7800 C   0  0  0  0  0  0  0  0  0  0  0  0
   27.7070  -12.1750    0.5130 C   0  0  0  0  0  0  0  0  0  0  0  0
   27.8100  -12.3260    1.8970 C   0  0  0  0  0  0  0  0  0  0  0  0
   28.0090  -13.8300    3.9120 C   0  0  0  0  0  0  0  0  0  0  0  0
   29.2530  -13.6250    4.4760 N   0  0  0  0  0  0  0  0  0  0  0  0
   27.0190  -14.1510    4.5600 O   0  0  0  0  0  0  0  0  0  0  0  0
   29.4390  -13.6770    5.9160 C   0  0  0  0  0  0  0  0  0  0  0  0
   29.1470  -12.3320    6.5950 C   0  0  0  0  0  0  0  0  0  0  0  0
   28.8790  -12.3400    8.0830 C   0  0  0  0  0  0  0  0  0  0  0  0
   29.6770  -12.8110    9.0550 C   0  0  0  0  0  0  0  0  0  0  0  0
   29.3160  -12.7560   10.4520 C   0  0  0  0  0  0  0  0  0  0  0  0
   28.2760  -13.4270   10.9620 C   0  0  0  0  0  0  0  0  0  0  0  0
   27.4660  -11.7970   -2.4190 C   0  0  0  0  0  0  0  0  0  0  0  0
   26.2570  -11.4030   -3.0150 C   0  0  0  0  0  0  0  0  0  0  0  0
   28.5500  -10.9060   -2.4450 C   0  0  0  0  0  0  0  0  0  0  0  0
   26.1390  -10.1550   -3.6300 C   0  0  0  0  0  0  0  0  0  0  0  0
   28.4290   -9.6570   -3.0570 C   0  0  0  0  0  0  0  0  0  0  0  0
   27.2250   -9.2830   -3.6510 C   0  0  0  0  0  0  0  0  0  0  0  0
  1  2  1  0
  1 10  1  0
  2  3  1  0
  3  4  1  0
  4  5  1  0
  5  6  1  0
  6  7  1  0
  7  8  1  0
  8  9  1  0
 10 11  1  0
 11 13  2  0
 11 12  1  0
 12 15  2  0
 12 14  1  0
 13 16  1  0
 14 17  2  0
 15 18  1  0
 15 19  1  0
 16 18  2  0
 17 20  1  0
 17 21  1  0
 18 30  1  0
 19 20  2  0
 21 22  1  0
 21 23  2  0
 22 24  1  0
 24 25  1  0
 25 26  1  0
 26 27  2  3
 27 28  1  0
 28 29  2  0
 30 31  2  0
 30 32  1  0
 31 33  1  0
 32 34  2  0
 33 35  2  0
 34 35  1  0
M  END
>  <vina_dock>  (3) 
-7.379

$$$$
Q92769_PocketFlow_idx-in-all-generaetd-387
     RDKit          3D

 23 25  0  0  0  0  0  0  0  0999 V2000
   27.3800  -12.2580   -0.7860 C   0  0  0  0  0  0  0  0  0  0  0  0
   28.0310  -12.6120    0.5360 C   0  0  0  0  0  0  0  0  0  0  0  0
   29.2580  -12.6480    0.6380 O   0  0  0  0  0  0  0  0  0  0  0  0
   27.1080  -12.9680    1.6890 C   0  0  0  0  0  0  0  0  0  0  0  0
   27.7320  -12.7680    3.0430 C   0  0  0  0  0  0  0  0  0  0  0  0
   27.8350  -11.4990    3.6070 C   0  0  0  0  0  0  0  0  0  0  0  0
   28.2430  -13.8450    3.7810 C   0  0  0  0  0  0  0  0  0  0  0  0
   28.4300  -11.2470    4.7940 N   0  0  0  0  0  0  0  0  0  0  0  0
   28.8030  -13.6400    5.0430 C   0  0  0  0  0  0  0  0  0  0  0  0
   28.9160  -12.3170    5.4650 C   0  0  0  0  0  0  0  0  0  0  0  0
   29.4200  -14.6940    5.7260 N   0  0  0  0  0  0  0  0  0  0  0  0
   27.7670  -13.2560   -1.8690 C   0  0  0  0  0  0  0  0  0  0  0  0
   26.6280  -14.2380   -2.1510 C   0  0  0  0  0  0  0  0  0  0  0  0
   26.7950  -15.5280   -1.3710 C   0  0  0  0  0  0  0  0  0  0  0  0
   28.1040  -15.9110   -1.0240 C   0  0  0  0  0  0  0  0  0  0  0  0
   25.6920  -16.3290   -0.9610 C   0  0  0  0  0  0  0  0  0  0  0  0
   28.3360  -17.0720   -0.2950 C   0  0  0  0  0  0  0  0  0  0  0  0
   24.3410  -16.0210   -1.2500 C   0  0  0  0  0  0  0  0  0  0  0  0
   25.9470  -17.5090   -0.2150 C   0  0  0  0  0  0  0  0  0  0  0  0
   27.2660  -17.8650    0.1050 C   0  0  0  0  0  0  0  0  0  0  0  0
   23.2920  -16.8390   -0.8230 C   0  0  0  0  0  0  0  0  0  0  0  0
   24.8820  -18.3230    0.2050 C   0  0  0  0  0  0  0  0  0  0  0  0
   23.5620  -17.9900   -0.0970 C   0  0  0  0  0  0  0  0  0  0  0  0
  1 12  1  0
  1  2  1  0
  2  3  2  0
  2  4  1  0
  4  5  1  0
  5  6  2  0
  5  7  1  0
  6  8  1  0
  7  9  2  0
  8 10  2  0
  9 10  1  0
  9 11  1  0
 12 13  1  0
 13 14  1  0
 14 15  2  0
 14 16  1  0
 15 17  1  0
 16 18  2  0
 16 19  1  0
 17 20  2  0
 18 21  1  0
 19 20  1  0
 19 22  2  0
 21 23  2  0
 22 23  1  0
M  END
>  <vina_dock>  (4) 
-7.643

$$$$
Q92769_PocketFlow_idx-in-all-generaetd-768
     RDKit          3D

 22 24  0  0  0  0  0  0  0  0999 V2000
   29.8070  -12.1770    5.0620 C   0  0  0  0  0  0  0  0  0  0  0  0
   28.5780  -12.7120    4.7200 N   0  0  0  0  0  0  0  0  0  0  0  0
   30.7410  -11.9270    4.3120 O   0  0  0  0  0  0  0  0  0  0  0  0
   29.9870  -11.9300    6.5190 C   0  0  0  0  0  0  0  0  0  0  0  0
   31.2270  -11.4590    6.9680 C   0  0  0  0  0  0  0  0  0  0  0  0
   28.9390  -12.1320    7.4260 C   0  0  0  0  0  0  0  0  0  0  0  0
   31.4340  -11.2230    8.3280 C   0  0  0  0  0  0  0  0  0  0  0  0
   29.1590  -11.8850    8.7790 C   0  0  0  0  0  0  0  0  0  0  0  0
   30.3970  -11.4430    9.2350 C   0  0  0  0  0  0  0  0  0  0  0  0
   28.1720  -12.0620    9.7040 O   0  0  0  0  0  0  0  0  0  0  0  0
   28.1050  -13.0080    3.4260 C   0  0  0  0  0  0  0  0  0  0  0  0
   27.4070  -12.1070    2.6240 C   0  0  0  0  0  0  0  0  0  0  0  0
   28.3490  -14.2950    2.9330 C   0  0  0  0  0  0  0  0  0  0  0  0
   26.9620  -12.4840    1.3500 C   0  0  0  0  0  0  0  0  0  0  0  0
   27.9050  -14.6690    1.6590 C   0  0  0  0  0  0  0  0  0  0  0  0
   27.2030  -13.7700    0.8430 C   0  0  0  0  0  0  0  0  0  0  0  0
   26.7340  -14.1620   -0.4960 C   0  0  0  0  0  0  0  0  0  0  0  0
   26.2230  -15.4490   -0.7350 C   0  0  0  0  0  0  0  0  0  0  0  0
   26.7850  -13.2630   -1.5730 C   0  0  0  0  0  0  0  0  0  0  0  0
   25.7790  -15.8230   -2.0060 C   0  0  0  0  0  0  0  0  0  0  0  0
   26.3390  -13.6360   -2.8450 C   0  0  0  0  0  0  0  0  0  0  0  0
   25.8370  -14.9160   -3.0600 C   0  0  0  0  0  0  0  0  0  0  0  0
  1  3  2  0
  1  2  1  0
  1  4  1  0
  2 11  1  0
  4  5  2  0
  4  6  1  0
  5  7  1  0
  6  8  2  0
  7  9  2  0
  8  9  1  0
  8 10  1  0
 11 12  2  0
 11 13  1  0
 12 14  1  0
 13 15  2  0
 14 16  2  0
 15 16  1  0
 16 17  1  0
 17 19  1  0
 17 18  2  0
 18 20  1  0
 19 21  2  0
 20 22  2  0
 21 22  1  0
M  END
>  <vina_dock>  (5) 
-6.659

$$$$
Q92769_PocketFlow_idx-in-all-generaetd-353
     RDKit          3D

 22 23  0  0  0  0  0  0  0  0999 V2000
   29.1350  -14.8770    0.2810 C   0  0  0  0  0  0  0  0  0  0  0  0
   28.8120  -16.1320   -0.0620 C   0  0  0  0  0  0  0  0  0  0  0  0
   30.5590  -14.3540    0.4320 C   0  0  2  0  0  0  0  0  0  0  0  0
   30.7440  -13.6940    1.7910 C   0  0  0  0  0  0  0  0  0  0  0  0
   31.2410  -12.4840    2.0910 C   0  0  0  0  0  0  0  0  0  0  0  0
   31.7690  -11.4620    1.2280 C   0  0  0  0  0  0  0  0  0  0  0  0
   30.8860  -13.5360   -0.8310 C   0  0  0  0  0  0  0  0  0  0  0  0
   32.2600  -11.6100   -0.0100 C   0  0  0  0  0  0  0  0  0  0  0  0
   32.2570  -12.8720   -0.8120 C   0  0  0  0  0  0  0  0  0  0  0  0
   30.3930  -14.4980    2.8920 O   0  0  0  0  0  0  0  0  0  0  0  0
   31.2890  -12.1040    3.4250 O   0  0  0  0  0  0  0  0  0  0  0  0
   27.4180  -16.5770   -0.2020 C   0  0  0  0  0  0  0  0  0  0  0  0
   26.4770  -15.7530   -0.8310 C   0  0  0  0  0  0  0  0  0  0  0  0
   27.0070  -17.8160    0.3020 C   0  0  0  0  0  0  0  0  0  0  0  0
   25.1460  -16.1620   -0.9580 C   0  0  0  0  0  0  0  0  0  0  0  0
   25.6760  -18.2270    0.1770 C   0  0  0  0  0  0  0  0  0  0  0  0
   24.7330  -17.4080   -0.4620 C   0  0  0  0  0  0  0  0  0  0  0  0
   23.2920  -17.8410   -0.5780 C   0  0  0  0  0  0  0  0  0  0  0  0
   22.4330  -16.8000   -0.7620 F   0  0  0  0  0  0  0  0  0  0  0  0
   22.8420  -18.5030    0.5240 F   0  0  0  0  0  0  0  0  0  0  0  0
   23.0910  -18.6830   -1.6290 F   0  0  0  0  0  0  0  0  0  0  0  0
   29.7870  -17.0940   -0.2210 O   0  0  0  0  0  0  0  0  0  0  0  0
  1  2  2  3
  1  3  1  0
  2 22  1  0
  2 12  1  0
  3  7  1  6
  3  4  1  0
  4  5  2  0
  4 10  1  0
  5  6  1  0
  5 11  1  0
  6  8  2  0
  7  9  1  0
  8  9  1  0
 12 13  2  0
 12 14  1  0
 13 15  1  0
 14 16  2  0
 15 17  2  0
 16 17  1  0
 17 18  1  0
 18 21  1  0
 18 19  1  0
 18 20  1  0
M  END
>  <vina_dock>  (6) 
-7.189

$$$$
Q92769_PocketFlow_idx-in-all-generaetd-89
     RDKit          3D

 19 20  0  0  0  0  0  0  0  0999 V2000
   23.2430  -18.3770   -1.2840 C   0  0  0  0  0  0  0  0  0  0  0  0
   22.3030  -18.6090   -0.1340 C   0  0  0  0  0  0  0  0  0  0  0  0
   21.0880  -19.1900   -0.1620 C   0  0  0  0  0  0  0  0  0  0  0  0
   20.5060  -19.6150   -1.3240 N   0  0  0  0  0  0  0  0  0  0  0  0
   20.3850  -19.3400    1.0120 N   0  0  0  0  0  0  0  0  0  0  0  0
   19.1510  -20.0950    1.1290 C   0  0  0  0  0  0  0  0  0  0  0  0
   24.4990  -17.6500   -0.8630 C   0  0  0  0  0  0  0  0  0  0  0  0
   25.4620  -18.2890   -0.0720 C   0  0  0  0  0  0  0  0  0  0  0  0
   24.7290  -16.3290   -1.2610 C   0  0  0  0  0  0  0  0  0  0  0  0
   26.6280  -17.6160    0.3170 C   0  0  0  0  0  0  0  0  0  0  0  0
   25.8930  -15.6670   -0.8690 C   0  0  0  0  0  0  0  0  0  0  0  0
   26.8680  -16.2860   -0.0720 C   0  0  0  0  0  0  0  0  0  0  0  0
   26.0560  -14.3970   -1.2730 F   0  0  0  0  0  0  0  0  0  0  0  0
   28.0980  -15.5880    0.3430 C   0  0  0  0  0  0  0  0  0  0  0  0
   28.0690  -14.5980    1.3410 C   0  0  0  0  0  0  0  0  0  0  0  0
   29.3400  -15.8960   -0.2370 C   0  0  0  0  0  0  0  0  0  0  0  0
   29.2350  -13.9410    1.7420 C   0  0  0  0  0  0  0  0  0  0  0  0
   30.5080  -15.2400    0.1640 C   0  0  0  0  0  0  0  0  0  0  0  0
   30.4550  -14.2630    1.1540 C   0  0  0  0  0  0  0  0  0  0  0  0
  1  7  1  0
  1  2  1  0
  2  3  1  0
  3  4  2  0
  3  5  1  0
  5  6  1  0
  7  9  2  0
  7  8  1  0
  8 10  2  0
  9 11  1  0
 10 12  1  0
 11 13  1  0
 11 12  2  0
 12 14  1  0
 14 16  1  0
 14 15  2  0
 15 17  1  0
 16 18  2  0
 17 19  2  0
 18 19  1  0
M  CHG  1   4   1
M  END
>  <vina_dock>  (7) 
-7.919

$$$$