st2
                    3D
 Schrodinger Suite 2020-3.
 45 47  0  0  1  0            999 V2000
    2.8445    0.2270   41.9664 N   0  0  0  0  0  0
    3.8876   -0.2352   42.6431 C   0  0  0  0  0  0
    4.9078    0.4232   42.7664 O   0  0  0  0  0  0
    3.6615   -1.4443   43.1661 N   0  0  0  0  0  0
    4.4159   -2.1169   44.1215 C   0  0  0  0  0  0
    5.6916   -1.7536   44.6026 C   0  0  0  0  0  0
    6.2133   -2.6142   45.5614 C   0  0  0  0  0  0
    7.5533   -2.5765   46.2180 C   0  0  0  0  0  0
    8.2198   -1.3550   46.3650 C   0  0  0  0  0  0
    9.4914   -1.3047   46.9336 C   0  0  0  0  0  0
   10.1188   -2.4747   47.3562 C   0  0  0  0  0  0
   11.7016   -2.3722   48.0415 F   0  0  0  0  0  0
    9.4629   -3.7031   47.2140 C   0  0  0  0  0  0
   10.2056   -5.1847   47.7061 F   0  0  0  0  0  0
    8.1864   -3.7486   46.6514 C   0  0  0  0  0  0
    5.0680   -3.8636   45.9439 S   0  0  0  0  0  0
    3.9254   -3.2678   44.7612 C   0  0  0  0  0  0
    2.6382   -3.9092   44.5574 C   0  0  0  0  0  0
    1.8191   -3.4508   43.7584 O   0  0  0  0  0  0
    2.3821   -4.9881   45.3202 N   0  0  0  0  0  0
    1.1014   -5.6890   45.3558 C   0  0  1  0  0  0
    1.2382   -7.2087   45.5732 C   0  0  0  0  0  0
   -0.1326   -7.9137   45.6324 C   0  0  0  0  0  0
   -1.0782   -7.2769   46.6670 C   0  0  0  0  0  0
   -1.2231   -5.7732   46.3665 N   0  3  0  0  0  0
    0.1296   -5.0410   46.3656 C   0  0  0  0  0  0
    0.6332   -5.5818   44.3717 H   0  0  0  0  0  0
    2.9046    1.1582   41.5668 H   0  0  0  0  0  0
    1.9803   -0.2881   41.9244 H   0  0  0  0  0  0
    2.7828   -1.8899   42.9480 H   0  0  0  0  0  0
    6.2480   -0.9018   44.2453 H   0  0  0  0  0  0
    7.7542   -0.4346   46.0419 H   0  0  0  0  0  0
    9.9896   -0.3528   47.0490 H   0  0  0  0  0  0
    7.7004   -4.7075   46.5334 H   0  0  0  0  0  0
    3.1278   -5.3803   45.8753 H   0  0  0  0  0  0
    1.7656   -7.3860   46.5146 H   0  0  0  0  0  0
    1.8458   -7.6521   44.7828 H   0  0  0  0  0  0
    0.0086   -8.9695   45.8721 H   0  0  0  0  0  0
   -0.6013   -7.8897   44.6466 H   0  0  0  0  0  0
   -0.6859   -7.3445   47.6848 H   0  0  0  0  0  0
   -2.0865   -7.6954   46.6424 H   0  0  0  0  0  0
   -1.8217   -5.3496   47.0671 H   0  0  0  0  0  0
   -0.0951   -3.9992   46.1266 H   0  0  0  0  0  0
    0.5096   -5.0978   47.3882 H   0  0  0  0  0  0
   -1.6875   -5.5954   45.4807 H   0  0  0  0  0  0
  1  2  1  0  0  0
  1 28  1  0  0  0
  1 29  1  0  0  0
  2  3  2  0  0  0
  2  4  1  0  0  0
  4  5  1  0  0  0
  4 30  1  0  0  0
  5 17  2  0  0  0
  5  6  1  0  0  0
  6  7  2  0  0  0
  6 31  1  0  0  0
  7  8  1  0  0  0
  7 16  1  0  0  0
  8 15  1  0  0  0
  8  9  2  0  0  0
  9 10  1  0  0  0
  9 32  1  0  0  0
 10 11  2  0  0  0
 10 33  1  0  0  0
 11 12  1  0  0  0
 11 13  1  0  0  0
 13 14  1  0  0  0
 13 15  2  0  0  0
 15 34  1  0  0  0
 16 17  1  0  0  0
 17 18  1  0  0  0
 18 19  2  0  0  0
 18 20  1  0  0  0
 20 21  1  0  0  0
 20 35  1  0  0  0
 21 27  1  0  0  0
 21 26  1  0  0  0
 21 22  1  0  0  0
 22 23  1  0  0  0
 22 36  1  0  0  0
 22 37  1  0  0  0
 23 24  1  0  0  0
 23 38  1  0  0  0
 23 39  1  0  0  0
 24 25  1  0  0  0
 24 40  1  0  0  0
 24 41  1  0  0  0
 25 26  1  0  0  0
 25 42  1  0  0  0
 25 45  1  0  0  0
 26 43  1  0  0  0
 26 44  1  0  0  0
M  CHG  1  25   1
M  END
> <s_m_source_file>
/home/user-home/yujie/0_PBCNetv2/data/0_0_high_sim/0_noncov/Sries28506/ligprep_input.csv

> <i_m_source_file_index>
9

> <i_lp_mmshare_version>
51139

> <i_f3d_flags>
0

> <s_epik_input>
Q2xjKFtjSF0xKWMoQ2wpW2NIXVtjSF1jMS1jKFtjSF1jMltOSF1DKD1PKVtOSDJdKXNjMkMoPU8pW05IXVtDQEhdM1tDSDJdW0NIMl1bQ0gyXVtOSF1bQ0gyXTM=

> <s_epik_cmdline>
J2VwaWtfcHl0aG9uJywgJy1waHQnLCAnMi4wJywgJy1waCcsICc3LjQnLCAnLXRuJywgJzgnLCAnLW1hJywgJzIwMCcsICctaW1hZScsICc8aW5maWxlLm1hZT4nLCAnLW9tYWUnLCAnPG91dGZpbGUubWFlPic=

> <r_epik_Ionization_Penalty>
  0.0009

> <r_epik_Ionization_Penalty_Charging>
  0.0009

> <r_epik_Ionization_Penalty_Neutral>
  0.0000

> <r_epik_State_Penalty>
  0.0006

> <r_epik_Charging_Adjusted_Penalty>
0.00142187

> <i_epik_Tot_Q>
1

> <i_epik_Tot_abs_Q>
1

> <s_lp_Force_Field>
OPLS3e

> <r_lp_Energy>
34.3955

> <b_lp_Chiralities_Consistent>
1

> <s_lp_Variant>
lig8-1

> <s_i_glide_gridfile>
Sries28506-001-gridgen

> <i_i_glide_lignum>
9

> <i_i_glide_rotatable_bonds>
6

> <r_i_docking_score>
-7.65017142974208

> <r_i_glide_ligand_efficiency>
-0.294237362682388

> <r_i_glide_ligand_efficiency_sa>
-0.871677029178458

> <r_i_glide_ligand_efficiency_ln>
-1.79661765801503

> <r_i_glide_gscore>
-7.65072919674208

> <r_i_glide_lipo>
-1.66596354359547

> <r_i_glide_hbond>
-0.736963660196135

> <r_i_glide_metal>
-0

> <r_i_glide_rewards>
-1.06650489508787

> <r_i_glide_evdw>
-41.6925315856934

> <r_i_glide_ecoul>
-17.0308303833008

> <r_i_glide_erotb>
0.574841754453216

> <r_i_glide_esite>
-0.116887715536027

> <r_i_glide_emodel>
-93.9505933393627

> <r_i_glide_energy>
-58.7233619689941

> <r_i_glide_einternal>
4.69359254837036

> <i_i_glide_confnum>
25

> <i_i_glide_posenum>
231

> <r_i_glide_eff_state_penalty>
0.000557767

> <i_m_ct_format>
2

$$$$
