O14757_Pocket2Mol_idx-in-all-generaetd-0
     RDKit          3D

 27 31  0  0  0  0  0  0  0  0999 V2000
    4.5156    0.0550   42.9895 N   0  0  0  0  0  0  0  0  0  0  0  0
    3.2960    0.1633   42.4470 C   0  0  0  0  0  0  0  0  0  0  0  0
    2.7621   -1.2305   42.4476 C   0  0  0  0  0  0  0  0  0  0  0  0
    5.2005   -0.8099   43.5858 C   0  0  0  0  0  0  0  0  0  0  0  0
    4.4157   -2.0357   43.6745 C   0  0  0  0  0  0  0  0  0  0  0  0
    3.3964   -2.2069   43.1195 C   0  0  0  0  0  0  0  0  0  0  0  0
    2.6107   -3.4636   43.1542 N   0  0  0  0  0  0  0  0  0  0  0  0
    1.4467   -1.2849   41.8335 C   0  0  0  0  0  0  0  0  0  0  0  0
    5.1851   -3.1348   44.4538 N   0  0  0  0  0  0  0  0  0  0  0  0
    6.4172   -0.8203   44.3346 N   0  0  0  0  0  0  0  0  0  0  0  0
    0.8321   -2.5451   41.8394 C   0  0  0  0  0  0  0  0  0  0  0  0
    1.4134   -3.5528   42.5919 C   0  0  0  0  0  0  0  0  0  0  0  0
    6.3428   -2.7074   45.0536 C   0  0  0  0  0  0  0  0  0  0  0  0
    6.8277   -1.4386   44.9522 C   0  0  0  0  0  0  0  0  0  0  0  0
    8.1428   -1.2695   45.6287 C   0  0  0  0  0  0  0  0  0  0  0  0
    6.7295   -3.7948   46.0360 C   0  0  0  0  0  0  0  0  0  0  0  0
    8.0115   -3.5481   46.6450 C   0  0  0  0  0  0  0  0  0  0  0  0
    8.8073   -0.1733   45.6146 O   0  0  0  0  0  0  0  0  0  0  0  0
    8.6405   -2.2670   46.5404 C   0  0  0  0  0  0  0  0  0  0  0  0
    9.8709   -1.9854   47.0853 O   0  0  0  0  0  0  0  0  0  0  0  0
   10.8299   -2.9834   47.0851 C   0  0  0  0  0  0  0  0  0  0  0  0
   11.6846   -2.7679   46.0008 C   0  0  0  0  0  0  0  0  0  0  0  0
   11.0220   -3.9157   47.8544 C   0  0  0  0  0  0  0  0  0  0  0  0
   12.7976   -3.6166   45.8538 C   0  0  0  0  0  0  0  0  0  0  0  0
   12.1341   -4.8117   47.8130 C   0  0  0  0  0  0  0  0  0  0  0  0
   13.6976   -3.3800   44.8460 F   0  0  0  0  0  0  0  0  0  0  0  0
   13.0685   -4.5986   46.7415 C   0  0  0  0  0  0  0  0  0  0  0  0
  1  2  2  0
  2  3  1  0
  1  4  1  0
  4  5  2  0
  3  6  2  0
  5  6  1  0
  6  7  1  0
  3  8  1  0
  5  9  1  0
  4 10  1  0
  8 11  2  0
  7 12  2  0
 11 12  1  0
  9 13  2  0
 10 14  2  0
 13 14  1  0
 14 15  1  0
 13 16  1  0
 16 17  2  0
 15 18  1  0
 15 19  2  0
 17 19  1  0
 19 20  1  0
 20 21  1  0
 21 22  2  0
 21 23  1  0
 22 24  1  0
 23 25  2  0
 24 26  1  0
 24 27  2  0
 25 27  1  0
M  END
$$$$
O14757_Pocket2Mol_idx-in-all-generaetd-1
     RDKit          3D

 36 43  0  0  0  0  0  0  0  0999 V2000
    1.5482   -0.3111   41.9233 C   0  0  0  0  0  0  0  0  0  0  0  0
    2.7284    0.2018   42.1525 N   0  0  0  0  0  0  0  0  0  0  0  0
    3.7893   -0.3016   42.7005 C   0  0  0  0  0  0  0  0  0  0  0  0
    3.3781   -1.7350   43.0000 C   0  0  0  0  0  0  0  0  0  0  0  0
    2.0339   -1.9619   42.6217 C   0  0  0  0  0  0  0  0  0  0  0  0
    5.0090    0.1219   42.9340 N   0  0  0  0  0  0  0  0  0  0  0  0
    4.2895   -2.4979   43.6707 C   0  0  0  0  0  0  0  0  0  0  0  0
    5.8391   -0.6675   43.6343 C   0  0  0  0  0  0  0  0  0  0  0  0
    6.9849   -0.2377   44.0028 N   0  0  0  0  0  0  0  0  0  0  0  0
    4.0426   -3.8794   44.0832 C   0  0  0  0  0  0  0  0  0  0  0  0
    7.6796   -0.8734   44.9326 C   0  0  0  0  0  0  0  0  0  0  0  0
    1.1064   -2.9576   42.4211 C   0  0  0  0  0  0  0  0  0  0  0  0
    5.5298   -1.9496   44.0315 C   0  0  0  0  0  0  0  0  0  0  0  0
    3.8954   -4.1817   45.4718 C   0  0  0  0  0  0  0  0  0  0  0  0
    0.6765   -3.5480   43.4006 C   0  0  1  0  0  0  0  0  0  0  0  0
    0.5804   -3.2191   41.1635 C   0  0  0  0  0  0  0  0  0  0  0  0
    2.8083   -4.8227   45.9203 N   0  0  0  0  0  0  0  0  0  0  0  0
   -0.1574   -4.5754   42.9329 N   0  0  0  0  0  0  0  0  0  0  0  0
    6.5271   -2.5531   44.9677 C   0  0  0  0  0  0  0  0  0  0  0  0
   -0.2272   -4.3703   41.5137 C   0  0  0  0  0  0  0  0  0  0  0  0
    7.5095   -2.0029   45.3993 C   0  0  0  0  0  0  0  0  0  0  0  0
    8.2550   -2.6982   46.3988 C   0  0  0  0  0  0  0  0  0  0  0  0
    8.8975   -0.3029   45.3267 O   0  0  0  0  0  0  0  0  0  0  0  0
    4.8299   -4.4637   46.4212 C   0  0  0  0  0  0  0  0  0  0  0  0
    4.2707   -4.9248   47.6295 N   0  0  0  0  0  0  0  0  0  0  0  0
    3.2045   -5.2092   47.1521 C   0  0  0  0  0  0  0  0  0  0  0  0
    1.4482   -4.6186   45.4134 C   0  0  1  0  0  0  0  0  0  0  0  0
    1.2398   -3.5043   44.6236 O   0  0  0  0  0  0  0  0  0  0  0  0
    7.8521   -3.9584   46.8773 C   0  0  0  0  0  0  0  0  0  0  0  0
    8.4079   -4.7553   47.7407 C   0  0  0  0  0  0  0  0  0  0  0  0
    5.9516   -3.8110   45.9146 C   0  0  0  0  0  0  0  0  0  0  0  0
    6.6436   -4.3892   46.6649 C   0  0  0  0  0  0  0  0  0  0  0  0
    1.2224   -5.7975   44.5713 C   0  0  0  0  0  0  0  0  0  0  0  0
    8.3236   -4.8057   49.0548 O   0  0  0  0  0  0  0  0  0  0  0  0
    9.7146   -5.1014   47.3111 O   0  0  0  0  0  0  0  0  0  0  0  0
    9.8382   -6.1466   46.7237 C   0  0  0  0  0  0  0  0  0  0  0  0
  1  2  1  0
  2  3  2  0
  3  4  1  0
  1  5  2  0
  4  5  1  0
  3  6  1  0
  4  7  2  0
  6  8  1  0
  8  9  1  0
  7 10  1  0
  9 11  1  0
  5 12  1  0
  7 13  1  0
  8 13  2  0
 10 14  1  0
 12 15  1  0
 12 16  2  0
 14 17  1  0
 15 18  1  0
 13 19  1  0
 16 20  1  0
 18 20  2  0
 11 21  1  0
 19 21  2  0
 21 22  1  0
 11 23  2  0
 14 24  2  0
 24 25  1  0
 17 26  1  0
 25 26  2  0
 17 27  1  0
 15 28  1  6
 27 28  1  0
 22 29  2  0
 29 30  1  0
 19 31  1  0
 24 31  1  0
 29 32  1  0
 31 32  2  0
 27 33  1  6
 30 34  2  0
 30 35  1  0
 35 36  1  0
M  END
$$$$
O14757_Pocket2Mol_idx-in-all-generaetd-2
     RDKit          3D

 50 57  0  0  0  0  0  0  0  0999 V2000
    5.3420    0.2589   42.8836 O   0  0  0  0  0  0  0  0  0  0  0  0
    5.1627   -0.7554   43.4753 C   0  0  0  0  0  0  0  0  0  0  0  0
    4.0509   -1.4657   43.4177 N   0  0  0  0  0  0  0  0  0  0  0  0
    5.9969   -1.2317   44.6840 C   0  0  0  0  0  0  0  0  0  0  0  0
    2.9618   -1.1021   42.5918 C   0  0  1  0  0  0  0  0  0  0  0  0
    7.3392   -0.8596   44.8412 C   0  0  0  0  0  0  0  0  0  0  0  0
    1.9754   -2.0820   42.2741 C   0  0  0  0  0  0  0  0  0  0  0  0
    5.5910   -2.4282   45.3439 C   0  0  0  0  0  0  0  0  0  0  0  0
    6.5874   -2.9636   46.1581 C   0  0  0  0  0  0  0  0  0  0  0  0
    4.2763   -3.0680   45.0493 N   0  0  0  0  0  0  0  0  0  0  0  0
    3.6188   -2.5886   44.2024 C   0  0  0  0  0  0  0  0  0  0  0  0
    8.1921   -1.4071   45.7505 C   0  0  0  0  0  0  0  0  0  0  0  0
    1.0154   -1.8839   41.2980 C   0  0  0  0  0  0  0  0  0  0  0  0
    2.5720   -3.3564   43.9063 C   0  0  0  0  0  0  0  0  0  0  0  0
    0.2502   -2.8976   41.0751 C   0  0  0  0  0  0  0  0  0  0  0  0
    6.1761   -4.1775   47.0209 C   0  0  0  0  0  0  0  0  0  0  0  0
    1.7266   -3.1047   43.0115 C   0  0  2  0  0  0  0  0  0  0  0  0
    2.3696   -4.5367   44.7536 N   0  0  0  0  0  0  0  0  0  0  0  0
    1.2264   -5.2346   44.4693 C   0  0  0  0  0  0  0  0  0  0  0  0
    0.7187   -3.8955   42.5465 C   0  0  0  0  0  0  0  0  0  0  0  0
    9.4576   -0.8949   46.0327 N   0  0  0  0  0  0  0  0  0  0  0  0
    0.8625   -6.3901   45.2462 C   0  0  0  0  0  0  0  0  0  0  0  0
    7.6467   -2.5139   46.4892 C   0  0  0  0  0  0  0  0  0  0  0  0
   10.4908   -1.5336   45.8242 C   0  0  0  0  0  0  0  0  0  0  0  0
    0.3057   -4.9299   43.2909 C   0  0  0  0  0  0  0  0  0  0  0  0
   11.5916   -1.4291   46.7436 C   0  0  0  0  0  0  0  0  0  0  0  0
   10.5566   -2.3672   44.8649 O   0  0  0  0  0  0  0  0  0  0  0  0
   12.8421   -1.9355   46.2823 C   0  0  0  0  0  0  0  0  0  0  0  0
   13.4833   -2.8582   46.9841 C   0  0  0  0  0  0  0  0  0  0  0  0
   11.4002   -1.1447   48.0540 C   0  0  0  0  0  0  0  0  0  0  0  0
   10.2867   -0.4569   48.4999 O   0  0  0  0  0  0  0  0  0  0  0  0
   12.3327   -1.4798   48.9564 C   0  0  1  0  0  0  0  0  0  0  0  0
   14.7901   -3.3162   46.6439 C   0  0  0  0  0  0  0  0  0  0  0  0
   12.1651   -1.3050   50.3239 O   0  0  0  0  0  0  0  0  0  0  0  0
   15.6765   -2.5740   46.0979 C   0  0  0  0  0  0  0  0  0  0  0  0
    2.4608    0.2106   42.8512 C   0  0  0  0  0  0  0  0  0  0  0  0
   15.5213   -1.2590   45.7606 C   0  0  0  0  0  0  0  0  0  0  0  0
   14.5349   -0.8899   44.8574 C   0  0  0  0  0  0  0  0  0  0  0  0
   12.9775   -3.3460   48.2127 C   0  0  0  0  0  0  0  0  0  0  0  0
   14.7129   -0.1943   43.8652 C   0  0  0  0  0  0  0  0  0  0  0  0
   13.1163   -1.3789   45.0490 O   0  0  0  0  0  0  0  0  0  0  0  0
   16.0442    0.3600   43.7609 C   0  0  0  0  0  0  0  0  0  0  0  0
   16.1715    1.3518   42.5787 C   0  0  0  0  0  0  0  0  0  0  0  0
   12.7697   -2.7291   49.2346 C   0  0  2  0  0  0  0  0  0  0  0  0
   15.1549    1.8289   42.1413 C   0  0  0  0  0  0  0  0  0  0  0  0
   16.7830    0.0276   44.6760 C   0  0  0  0  0  0  0  0  0  0  0  0
   18.2385    0.7683   44.5811 O   0  0  0  0  0  0  0  0  0  0  0  0
   16.8191   -0.7970   45.5799 C   0  0  0  0  0  0  0  0  0  0  0  0
   12.1130   -3.2814   50.2495 O   0  0  0  0  0  0  0  0  0  0  0  0
   15.3930    3.0524   41.3508 C   0  0  0  0  0  0  0  0  0  0  0  0
  1  2  2  0
  2  3  1  0
  2  4  1  0
  3  5  1  0
  4  6  2  0
  5  7  1  0
  4  8  1  0
  8  9  2  0
  8 10  1  0
  3 11  1  0
 10 11  2  0
  6 12  1  0
  7 13  2  0
 11 14  1  0
 13 15  1  0
  9 16  1  0
 17  7  1  6
 14 17  1  0
 14 18  2  0
 18 19  1  0
 15 20  2  0
 17 20  1  0
 12 21  1  0
 19 22  1  0
  9 23  1  0
 12 23  2  0
 21 24  1  0
 19 25  2  0
 20 25  1  0
 24 26  1  0
 24 27  2  0
 26 28  1  0
 28 29  2  0
 26 30  2  0
 30 31  1  0
 30 32  1  0
 29 33  1  0
 32 34  1  1
 33 35  2  0
  5 36  1  1
 35 37  1  0
 37 38  2  0
 29 39  1  0
 38 40  1  0
 28 41  1  0
 38 41  1  0
 40 42  2  0
 42 43  1  0
 32 44  1  0
 39 44  1  0
 43 45  2  3
 42 46  1  0
 46 47  1  0
 37 48  1  0
 46 48  2  0
 44 49  1  1
 45 50  1  0
M  END
$$$$
O14757_Pocket2Mol_idx-in-all-generaetd-3
     RDKit          3D

 35 40  0  0  0  0  0  0  0  0999 V2000
    1.5482   -0.3111   41.9233 C   0  0  0  0  0  0  0  0  0  0  0  0
    2.7284    0.2018   42.1525 N   0  0  0  0  0  0  0  0  0  0  0  0
    3.7893   -0.3016   42.7005 C   0  0  0  0  0  0  0  0  0  0  0  0
    3.3781   -1.7350   43.0000 C   0  0  0  0  0  0  0  0  0  0  0  0
    2.0339   -1.9619   42.6217 C   0  0  0  0  0  0  0  0  0  0  0  0
    4.1166   -2.4997   43.8458 C   0  0  0  0  0  0  0  0  0  0  0  0
    1.1731   -3.0051   42.5773 C   0  0  0  0  0  0  0  0  0  0  0  0
    0.4701   -3.2344   41.4901 C   0  0  0  0  0  0  0  0  0  0  0  0
    5.3799   -1.7814   44.2691 C   0  0  0  0  0  0  0  0  0  0  0  0
    5.0159   -0.0180   43.1201 N   0  0  0  0  0  0  0  0  0  0  0  0
    5.7693   -0.6937   43.8418 C   0  0  0  0  0  0  0  0  0  0  0  0
    0.8078   -3.6166   43.6782 C   0  0  0  0  0  0  0  0  0  0  0  0
    0.0663   -4.7011   43.7415 N   0  0  0  0  0  0  0  0  0  0  0  0
    6.2223   -2.6843   45.1565 C   0  0  0  0  0  0  0  0  0  0  0  0
    6.9599   -0.2351   44.2608 N   0  0  0  0  0  0  0  0  0  0  0  0
    5.9065   -3.9037   45.7499 N   0  0  0  0  0  0  0  0  0  0  0  0
   -0.5459   -5.1185   42.5870 C   0  0  0  0  0  0  0  0  0  0  0  0
    5.7480   -4.0340   46.9810 C   0  0  0  0  0  0  0  0  0  0  0  0
    7.4448   -1.8511   45.4198 C   0  0  0  0  0  0  0  0  0  0  0  0
    7.7572   -0.7827   45.0128 C   0  0  0  0  0  0  0  0  0  0  0  0
    8.4076   -2.7217   46.4541 C   0  0  0  0  0  0  0  0  0  0  0  0
    9.3167   -2.0988   47.1049 N   0  0  0  0  0  0  0  0  0  0  0  0
   -0.4719   -4.3893   41.5406 C   0  0  0  0  0  0  0  0  0  0  0  0
    8.3667   -4.0284   46.5743 N   0  0  0  0  0  0  0  0  0  0  0  0
   10.1532   -2.5726   47.9567 C   0  0  0  0  0  0  0  0  0  0  0  0
    7.1666   -4.7114   47.2915 C   0  0  0  0  0  0  0  0  0  0  0  0
   11.4560   -2.5376   47.5873 C   0  0  0  0  0  0  0  0  0  0  0  0
   11.8152   -3.5493   46.6694 C   0  0  0  0  0  0  0  0  0  0  0  0
   12.7174   -3.2253   45.6793 O   0  0  0  0  0  0  0  0  0  0  0  0
   11.1601   -4.5914   46.3617 O   0  0  0  0  0  0  0  0  0  0  0  0
    9.8346   -2.3571   49.3169 C   0  0  0  0  0  0  0  0  0  0  0  0
   11.0830   -2.4359   50.1249 C   0  0  0  0  0  0  0  0  0  0  0  0
   10.6602   -2.2937   51.6316 O   0  0  0  0  0  0  0  0  0  0  0  0
   12.1234   -2.7026   49.7710 C   0  0  0  0  0  0  0  0  0  0  0  0
   12.5345   -2.9199   48.4265 C   0  0  0  0  0  0  0  0  0  0  0  0
  1  2  1  0
  2  3  2  0
  3  4  1  0
  1  5  2  0
  4  5  1  0
  4  6  2  0
  5  7  1  0
  7  8  2  0
  6  9  1  0
  3 10  1  0
  9 11  2  0
 10 11  1  0
  7 12  1  0
 12 13  2  0
  9 14  1  0
 11 15  1  0
 14 16  1  0
 13 17  1  0
 16 18  1  0
 14 19  2  0
 15 20  2  0
 19 20  1  0
 19 21  1  0
 21 22  2  3
  8 23  1  0
 17 23  2  0
 21 24  1  0
 22 25  1  0
 18 26  1  0
 24 26  1  0
 25 27  2  0
 27 28  1  0
 28 29  2  0
 28 30  1  0
 25 31  1  0
 31 32  2  0
 32 33  1  0
 32 34  1  0
 27 35  1  0
 34 35  2  0
M  END
$$$$
O14757_Pocket2Mol_idx-in-all-generaetd-4
     RDKit          3D

 43 51  0  0  0  0  0  0  0  0999 V2000
    1.5482   -0.3111   41.9233 C   0  0  0  0  0  0  0  0  0  0  0  0
    2.7284    0.2018   42.1525 N   0  0  0  0  0  0  0  0  0  0  0  0
    3.7893   -0.3016   42.7005 C   0  0  0  0  0  0  0  0  0  0  0  0
    3.3781   -1.7350   43.0000 C   0  0  0  0  0  0  0  0  0  0  0  0
    2.0339   -1.9619   42.6217 C   0  0  0  0  0  0  0  0  0  0  0  0
    5.0090    0.1219   42.9340 N   0  0  0  0  0  0  0  0  0  0  0  0
    4.2895   -2.4979   43.6707 C   0  0  0  0  0  0  0  0  0  0  0  0
    5.8391   -0.6675   43.6343 C   0  0  0  0  0  0  0  0  0  0  0  0
    6.9849   -0.2377   44.0028 N   0  0  0  0  0  0  0  0  0  0  0  0
    4.0426   -3.8794   44.0832 C   0  0  0  0  0  0  0  0  0  0  0  0
    7.6796   -0.8734   44.9326 C   0  0  0  0  0  0  0  0  0  0  0  0
    1.1064   -2.9576   42.4211 C   0  0  0  0  0  0  0  0  0  0  0  0
    5.5298   -1.9496   44.0315 C   0  0  0  0  0  0  0  0  0  0  0  0
    3.8954   -4.1817   45.4718 C   0  0  0  0  0  0  0  0  0  0  0  0
    0.6765   -3.5480   43.4006 C   0  0  1  0  0  0  0  0  0  0  0  0
    0.5804   -3.2191   41.1635 C   0  0  0  0  0  0  0  0  0  0  0  0
    2.8083   -4.8227   45.9203 N   0  0  0  0  0  0  0  0  0  0  0  0
   -0.1574   -4.5754   42.9329 N   0  0  0  0  0  0  0  0  0  0  0  0
    6.5271   -2.5531   44.9677 C   0  0  0  0  0  0  0  0  0  0  0  0
   -0.2272   -4.3703   41.5137 C   0  0  0  0  0  0  0  0  0  0  0  0
    7.5095   -2.0029   45.3993 C   0  0  0  0  0  0  0  0  0  0  0  0
    8.2550   -2.6982   46.3988 C   0  0  1  0  0  0  0  0  0  0  0  0
    8.8975   -0.3029   45.3267 O   0  0  0  0  0  0  0  0  0  0  0  0
    4.8299   -4.4637   46.4212 C   0  0  0  0  0  0  0  0  0  0  0  0
    4.2707   -4.9248   47.6295 N   0  0  0  0  0  0  0  0  0  0  0  0
    3.2045   -5.2092   47.1521 C   0  0  0  0  0  0  0  0  0  0  0  0
    1.4482   -4.6186   45.4134 C   0  0  0  0  0  0  0  0  0  0  0  0
    1.3256   -3.7660   44.6394 N   0  0  0  0  0  0  0  0  0  0  0  0
    9.2816   -2.1418   47.1273 N   0  0  0  0  0  0  0  0  0  0  0  0
   10.0629   -3.1324   47.8508 C   0  0  0  0  0  0  0  0  0  0  0  0
    6.3491   -3.8960   46.0844 C   0  0  2  0  0  0  0  0  0  0  0  0
    7.4349   -3.5889   46.9054 C   0  0  0  0  0  0  0  0  0  0  0  0
   10.3145   -2.7271   49.0818 O   0  0  0  0  0  0  0  0  0  0  0  0
   11.0221   -3.8171   47.1052 C   0  0  0  0  0  0  0  0  0  0  0  0
    0.8710   -5.7412   45.2074 O   0  0  0  0  0  0  0  0  0  0  0  0
   12.1654   -3.3890   46.7468 C   0  0  0  0  0  0  0  0  0  0  0  0
   10.8862   -5.2442   47.2797 C   0  0  0  0  0  0  0  0  0  0  0  0
   11.6445   -5.8923   46.6301 C   0  0  0  0  0  0  0  0  0  0  0  0
   11.5586   -7.4203   46.6373 C   0  0  0  0  0  0  0  0  0  0  0  0
   13.0426   -4.1774   46.1988 C   0  0  0  0  0  0  0  0  0  0  0  0
   12.9432   -5.5170   46.1438 C   0  0  0  0  0  0  0  0  0  0  0  0
   12.3415   -8.0963   46.2478 O   0  0  0  0  0  0  0  0  0  0  0  0
   10.2084   -7.7651   46.5729 N   0  0  0  0  0  0  0  0  0  0  0  0
  1  2  1  0
  2  3  2  0
  3  4  1  0
  1  5  2  0
  4  5  1  0
  3  6  1  0
  4  7  2  0
  6  8  1  0
  8  9  1  0
  7 10  1  0
  9 11  1  0
  5 12  1  0
  7 13  1  0
  8 13  2  0
 10 14  1  0
 12 15  1  0
 12 16  2  0
 14 17  1  0
 15 18  1  0
 13 19  1  0
 16 20  1  0
 18 20  2  0
 11 21  1  0
 19 21  2  0
 21 22  1  0
 11 23  2  0
 14 24  2  0
 24 25  1  0
 17 26  1  0
 25 26  2  0
 17 27  1  0
 15 28  1  6
 27 28  1  0
 22 29  1  1
 29 30  1  0
 19 31  1  0
 24 31  1  0
 22 32  1  0
 31 32  1  1
 30 33  2  0
 30 34  1  0
 27 35  2  0
 34 36  2  0
 34 37  1  0
 37 38  2  0
 38 39  1  0
 36 40  1  0
 38 41  1  0
 40 41  2  0
 39 42  2  0
 39 43  1  0
M  END
$$$$
O14757_Pocket2Mol_idx-in-all-generaetd-5
     RDKit          3D

 50 59  0  0  0  0  0  0  0  0999 V2000
    1.5482   -0.3111   41.9233 C   0  0  0  0  0  0  0  0  0  0  0  0
    2.7284    0.2018   42.1525 N   0  0  0  0  0  0  0  0  0  0  0  0
    3.7893   -0.3016   42.7005 C   0  0  0  0  0  0  0  0  0  0  0  0
    3.3781   -1.7350   43.0000 C   0  0  0  0  0  0  0  0  0  0  0  0
    2.0339   -1.9619   42.6217 C   0  0  0  0  0  0  0  0  0  0  0  0
    5.0090    0.1219   42.9340 N   0  0  0  0  0  0  0  0  0  0  0  0
    4.2895   -2.4979   43.6707 C   0  0  0  0  0  0  0  0  0  0  0  0
    5.8391   -0.6675   43.6343 C   0  0  0  0  0  0  0  0  0  0  0  0
    6.9849   -0.2377   44.0028 N   0  0  0  0  0  0  0  0  0  0  0  0
    4.0426   -3.8794   44.0832 C   0  0  0  0  0  0  0  0  0  0  0  0
    7.6796   -0.8734   44.9326 C   0  0  0  0  0  0  0  0  0  0  0  0
    1.1064   -2.9576   42.4211 C   0  0  0  0  0  0  0  0  0  0  0  0
    5.5298   -1.9496   44.0315 C   0  0  0  0  0  0  0  0  0  0  0  0
    3.8954   -4.1817   45.4718 C   0  0  0  0  0  0  0  0  0  0  0  0
    0.6765   -3.5480   43.4006 C   0  0  1  0  0  0  0  0  0  0  0  0
    0.5804   -3.2191   41.1635 C   0  0  0  0  0  0  0  0  0  0  0  0
    2.8083   -4.8227   45.9203 N   0  0  0  0  0  0  0  0  0  0  0  0
   -0.1574   -4.5754   42.9329 N   0  0  0  0  0  0  0  0  0  0  0  0
    6.5271   -2.5531   44.9677 C   0  0  0  0  0  0  0  0  0  0  0  0
   -0.2272   -4.3703   41.5137 C   0  0  0  0  0  0  0  0  0  0  0  0
    7.5095   -2.0029   45.3993 C   0  0  0  0  0  0  0  0  0  0  0  0
    8.2550   -2.6982   46.3988 C   0  0  1  0  0  0  0  0  0  0  0  0
    8.8975   -0.3029   45.3267 O   0  0  0  0  0  0  0  0  0  0  0  0
    4.8299   -4.4637   46.4212 C   0  0  0  0  0  0  0  0  0  0  0  0
    4.2707   -4.9248   47.6295 N   0  0  0  0  0  0  0  0  0  0  0  0
    3.2045   -5.2092   47.1521 C   0  0  0  0  0  0  0  0  0  0  0  0
    1.4482   -4.6186   45.4134 C   0  0  0  0  0  0  0  0  0  0  0  0
    1.3256   -3.7660   44.6394 N   0  0  0  0  0  0  0  0  0  0  0  0
    9.2816   -2.1418   47.1273 N   0  0  0  0  0  0  0  0  0  0  0  0
   10.0629   -3.1324   47.8508 C   0  0  0  0  0  0  0  0  0  0  0  0
    6.3491   -3.8960   46.0844 C   0  0  2  0  0  0  0  0  0  0  0  0
    7.4349   -3.5889   46.9054 C   0  0  0  0  0  0  0  0  0  0  0  0
   10.3145   -2.7271   49.0818 O   0  0  0  0  0  0  0  0  0  0  0  0
    0.6213   -5.4445   45.7455 O   0  0  0  0  0  0  0  0  0  0  0  0
   11.0262   -3.8136   47.1050 C   0  0  0  0  0  0  0  0  0  0  0  0
   12.1704   -3.3854   46.7547 C   0  0  0  0  0  0  0  0  0  0  0  0
   13.1080   -4.1111   46.0053 C   0  0  0  0  0  0  0  0  0  0  0  0
   14.3489   -3.5966   45.7888 C   0  0  0  0  0  0  0  0  0  0  0  0
   12.7430   -5.2725   45.5056 C   0  0  0  0  0  0  0  0  0  0  0  0
   14.6935   -2.2816   45.3353 C   0  0  0  0  0  0  0  0  0  0  0  0
   15.8828   -1.9964   44.9887 C   0  0  0  0  0  0  0  0  0  0  0  0
   15.4347   -4.4529   45.9716 C   0  0  0  0  0  0  0  0  0  0  0  0
   16.1869   -0.5957   44.4528 O   0  0  0  0  0  0  0  0  0  0  0  0
   10.8168   -5.3072   46.8157 C   0  0  0  0  0  0  0  0  0  0  0  0
   16.9691   -2.7691   45.1797 C   0  0  0  0  0  0  0  0  0  0  0  0
   18.2618   -2.3821   44.8230 O   0  0  0  0  0  0  0  0  0  0  0  0
   15.2763   -5.7924   46.5450 C   0  0  0  0  0  0  0  0  0  0  0  0
   16.7597   -4.0465   45.6593 C   0  0  0  0  0  0  0  0  0  0  0  0
   15.4907   -0.2258   43.3607 C   0  0  0  0  0  0  0  0  0  0  0  0
   11.5612   -5.9049   45.8757 C   0  0  0  0  0  0  0  0  0  0  0  0
  1  2  1  0
  2  3  2  0
  3  4  1  0
  1  5  2  0
  4  5  1  0
  3  6  1  0
  4  7  2  0
  6  8  1  0
  8  9  1  0
  7 10  1  0
  9 11  1  0
  5 12  1  0
  7 13  1  0
  8 13  2  0
 10 14  1  0
 12 15  1  0
 12 16  2  0
 14 17  1  0
 15 18  1  0
 13 19  1  0
 16 20  1  0
 18 20  2  0
 11 21  1  0
 19 21  2  0
 21 22  1  0
 11 23  2  0
 14 24  2  0
 24 25  1  0
 17 26  1  0
 25 26  2  0
 17 27  1  0
 15 28  1  6
 27 28  1  0
 22 29  1  1
 29 30  1  0
 19 31  1  0
 24 31  1  0
 22 32  1  0
 31 32  1  1
 30 33  2  0
 27 34  2  0
 30 35  1  0
 35 36  2  0
 36 37  1  0
 37 38  1  0
 37 39  2  0
 38 40  2  0
 40 41  1  0
 38 42  1  0
 41 43  1  0
 35 44  1  0
 41 45  2  0
 45 46  1  0
 42 47  1  0
 42 48  2  0
 45 48  1  0
 43 49  1  0
 39 50  1  0
 44 50  2  0
M  END
$$$$
O14757_Pocket2Mol_idx-in-all-generaetd-6
     RDKit          3D

 43 51  0  0  0  0  0  0  0  0999 V2000
    1.5482   -0.3111   41.9233 C   0  0  0  0  0  0  0  0  0  0  0  0
    2.7284    0.2018   42.1525 N   0  0  0  0  0  0  0  0  0  0  0  0
    3.7893   -0.3016   42.7005 C   0  0  0  0  0  0  0  0  0  0  0  0
    3.3781   -1.7350   43.0000 C   0  0  0  0  0  0  0  0  0  0  0  0
    2.0339   -1.9619   42.6217 C   0  0  0  0  0  0  0  0  0  0  0  0
    5.0090    0.1219   42.9340 N   0  0  0  0  0  0  0  0  0  0  0  0
    4.2895   -2.4979   43.6707 C   0  0  0  0  0  0  0  0  0  0  0  0
    5.8391   -0.6675   43.6343 C   0  0  0  0  0  0  0  0  0  0  0  0
    6.9849   -0.2377   44.0028 N   0  0  0  0  0  0  0  0  0  0  0  0
    4.0426   -3.8794   44.0832 C   0  0  0  0  0  0  0  0  0  0  0  0
    7.6796   -0.8734   44.9326 C   0  0  0  0  0  0  0  0  0  0  0  0
    1.1064   -2.9576   42.4211 C   0  0  0  0  0  0  0  0  0  0  0  0
    5.5298   -1.9496   44.0315 C   0  0  0  0  0  0  0  0  0  0  0  0
    3.8954   -4.1817   45.4718 C   0  0  0  0  0  0  0  0  0  0  0  0
    0.6765   -3.5480   43.4006 C   0  0  1  0  0  0  0  0  0  0  0  0
    0.5804   -3.2191   41.1635 C   0  0  0  0  0  0  0  0  0  0  0  0
    2.8083   -4.8227   45.9203 N   0  0  0  0  0  0  0  0  0  0  0  0
   -0.1574   -4.5754   42.9329 N   0  0  0  0  0  0  0  0  0  0  0  0
    6.5271   -2.5531   44.9677 C   0  0  0  0  0  0  0  0  0  0  0  0
   -0.2272   -4.3703   41.5137 C   0  0  0  0  0  0  0  0  0  0  0  0
    7.5095   -2.0029   45.3993 C   0  0  0  0  0  0  0  0  0  0  0  0
    8.2550   -2.6982   46.3988 C   0  0  0  0  0  0  0  0  0  0  0  0
    8.8975   -0.3029   45.3267 O   0  0  0  0  0  0  0  0  0  0  0  0
    4.8299   -4.4637   46.4212 C   0  0  0  0  0  0  0  0  0  0  0  0
    4.2707   -4.9248   47.6295 N   0  0  0  0  0  0  0  0  0  0  0  0
    3.2045   -5.2092   47.1521 C   0  0  0  0  0  0  0  0  0  0  0  0
    1.4482   -4.6186   45.4134 C   0  0  2  0  0  0  0  0  0  0  0  0
    1.2398   -3.5043   44.6236 O   0  0  0  0  0  0  0  0  0  0  0  0
    6.3317   -3.9297   46.0870 C   0  0  2  0  0  0  0  0  0  0  0  0
    9.5296   -2.5449   46.9776 C   0  0  0  0  0  0  0  0  0  0  0  0
    9.7921   -1.7530   47.9018 O   0  0  0  0  0  0  0  0  0  0  0  0
    7.3972   -3.8130   46.7939 C   0  0  0  0  0  0  0  0  0  0  0  0
   10.4154   -3.4217   46.6883 O   0  0  0  0  0  0  0  0  0  0  0  0
    0.5555   -4.7535   46.5674 C   0  0  0  0  0  0  0  0  0  0  0  0
   11.6497   -3.0596   47.0439 C   0  0  0  0  0  0  0  0  0  0  0  0
   12.3878   -4.1125   47.6990 C   0  0  1  0  0  0  0  0  0  0  0  0
   11.8800   -5.2760   47.5659 O   0  0  0  0  0  0  0  0  0  0  0  0
   12.1402   -1.9273   46.5416 C   0  0  0  0  0  0  0  0  0  0  0  0
   13.7566   -3.9428   47.4635 C   0  0  0  0  0  0  0  0  0  0  0  0
   12.5319   -6.3439   48.1744 C   0  0  0  0  0  0  0  0  0  0  0  0
   14.4239   -2.7244   47.1296 C   0  0  0  0  0  0  0  0  0  0  0  0
   13.5761   -1.7777   46.4789 C   0  0  0  0  0  0  0  0  0  0  0  0
   15.7738   -2.4712   46.9976 C   0  0  0  0  0  0  0  0  0  0  0  0
  1  2  1  0
  2  3  2  0
  3  4  1  0
  1  5  2  0
  4  5  1  0
  3  6  1  0
  4  7  2  0
  6  8  1  0
  8  9  1  0
  7 10  1  0
  9 11  1  0
  5 12  1  0
  7 13  1  0
  8 13  2  0
 10 14  1  0
 12 15  1  0
 12 16  2  0
 14 17  1  0
 15 18  1  0
 13 19  1  0
 16 20  1  0
 18 20  2  0
 11 21  1  0
 19 21  2  0
 21 22  1  0
 11 23  2  0
 14 24  2  0
 24 25  1  0
 17 26  1  0
 25 26  2  0
 17 27  1  0
 15 28  1  6
 27 28  1  0
 19 29  1  0
 24 29  1  0
 22 30  1  0
 30 31  2  0
 22 32  2  0
 29 32  1  1
 30 33  1  0
 27 34  1  1
 33 35  1  0
 35 36  1  0
 36 37  1  6
 35 38  2  0
 36 39  1  0
 37 40  1  0
 39 41  1  0
 38 42  1  0
 41 42  2  0
 41 43  1  0
M  END
$$$$
O14757_Pocket2Mol_idx-in-all-generaetd-7
     RDKit          3D

 36 41  0  0  0  0  0  0  0  0999 V2000
    1.5482   -0.3111   41.9233 C   0  0  0  0  0  0  0  0  0  0  0  0
    2.7284    0.2018   42.1525 N   0  0  0  0  0  0  0  0  0  0  0  0
    3.7893   -0.3016   42.7005 C   0  0  0  0  0  0  0  0  0  0  0  0
    3.3781   -1.7350   43.0000 C   0  0  0  0  0  0  0  0  0  0  0  0
    2.0339   -1.9619   42.6217 C   0  0  0  0  0  0  0  0  0  0  0  0
    4.1166   -2.4997   43.8458 C   0  0  0  0  0  0  0  0  0  0  0  0
    1.1731   -3.0051   42.5773 C   0  0  0  0  0  0  0  0  0  0  0  0
    0.4701   -3.2344   41.4901 C   0  0  0  0  0  0  0  0  0  0  0  0
    5.3799   -1.7814   44.2691 C   0  0  0  0  0  0  0  0  0  0  0  0
    5.0159   -0.0180   43.1201 N   0  0  0  0  0  0  0  0  0  0  0  0
    5.7693   -0.6937   43.8418 C   0  0  0  0  0  0  0  0  0  0  0  0
    0.8078   -3.6166   43.6782 C   0  0  0  0  0  0  0  0  0  0  0  0
    0.0663   -4.7011   43.7415 N   0  0  0  0  0  0  0  0  0  0  0  0
    6.2223   -2.6843   45.1565 C   0  0  0  0  0  0  0  0  0  0  0  0
    6.9599   -0.2351   44.2608 N   0  0  0  0  0  0  0  0  0  0  0  0
    5.9065   -3.9037   45.7499 N   0  0  0  0  0  0  0  0  0  0  0  0
   -0.5459   -5.1185   42.5870 C   0  0  0  0  0  0  0  0  0  0  0  0
    5.7480   -4.0340   46.9810 C   0  0  0  0  0  0  0  0  0  0  0  0
    7.4448   -1.8511   45.4198 C   0  0  0  0  0  0  0  0  0  0  0  0
    7.7572   -0.7827   45.0128 C   0  0  0  0  0  0  0  0  0  0  0  0
    8.4076   -2.7217   46.4541 C   0  0  0  0  0  0  0  0  0  0  0  0
    9.3167   -2.0988   47.1049 N   0  0  0  0  0  0  0  0  0  0  0  0
   -0.4719   -4.3893   41.5406 C   0  0  0  0  0  0  0  0  0  0  0  0
    8.3667   -4.0284   46.5743 N   0  0  0  0  0  0  0  0  0  0  0  0
    9.5309   -4.3147   47.3094 C   0  0  0  0  0  0  0  0  0  0  0  0
    5.3113   -3.3789   47.8005 O   0  0  0  0  0  0  0  0  0  0  0  0
    9.9022   -5.6301   47.7684 C   0  0  0  0  0  0  0  0  0  0  0  0
    5.4470   -5.5868   47.2096 C   0  0  0  0  0  0  0  0  0  0  0  0
   11.2254   -5.8679   48.0402 C   0  0  0  0  0  0  0  0  0  0  0  0
    8.9736   -6.6532   47.8548 C   0  0  0  0  0  0  0  0  0  0  0  0
   10.0616   -3.0670   47.6360 C   0  0  0  0  0  0  0  0  0  0  0  0
    9.2755   -7.8884   48.2076 C   0  0  0  0  0  0  0  0  0  0  0  0
   12.3151   -4.8393   47.9221 O   0  0  0  0  0  0  0  0  0  0  0  0
   11.6499   -7.1540   48.4582 C   0  0  0  0  0  0  0  0  0  0  0  0
   13.0065   -7.4583   48.7542 O   0  0  0  0  0  0  0  0  0  0  0  0
   10.7182   -8.2429   48.6111 C   0  0  0  0  0  0  0  0  0  0  0  0
  1  2  1  0
  2  3  2  0
  3  4  1  0
  1  5  2  0
  4  5  1  0
  4  6  2  0
  5  7  1  0
  7  8  2  0
  6  9  1  0
  3 10  1  0
  9 11  2  0
 10 11  1  0
  7 12  1  0
 12 13  2  0
  9 14  1  0
 11 15  1  0
 14 16  1  0
 13 17  1  0
 16 18  1  0
 14 19  2  0
 15 20  2  0
 19 20  1  0
 19 21  1  0
 21 22  2  0
  8 23  1  0
 17 23  2  0
 21 24  1  0
 24 25  1  0
 18 26  2  0
 25 27  1  0
 18 28  1  0
 27 29  2  0
 27 30  1  0
 22 31  1  0
 25 31  2  0
 30 32  2  0
 29 33  1  0
 29 34  1  0
 34 35  1  0
 32 36  1  0
 34 36  2  0
M  END
$$$$
O14757_Pocket2Mol_idx-in-all-generaetd-8
     RDKit          3D

 27 31  0  0  0  0  0  0  0  0999 V2000
    4.5156    0.0550   42.9895 N   0  0  0  0  0  0  0  0  0  0  0  0
    3.2960    0.1633   42.4470 C   0  0  0  0  0  0  0  0  0  0  0  0
    2.7621   -1.2305   42.4476 C   0  0  0  0  0  0  0  0  0  0  0  0
    5.2005   -0.8099   43.5858 C   0  0  0  0  0  0  0  0  0  0  0  0
    4.4157   -2.0357   43.6745 C   0  0  0  0  0  0  0  0  0  0  0  0
    3.3964   -2.2069   43.1195 C   0  0  0  0  0  0  0  0  0  0  0  0
    2.6107   -3.4636   43.1542 N   0  0  0  0  0  0  0  0  0  0  0  0
    1.4467   -1.2849   41.8335 C   0  0  0  0  0  0  0  0  0  0  0  0
    5.1851   -3.1348   44.4538 N   0  0  0  0  0  0  0  0  0  0  0  0
    6.4172   -0.8203   44.3346 N   0  0  0  0  0  0  0  0  0  0  0  0
    0.8321   -2.5451   41.8394 C   0  0  0  0  0  0  0  0  0  0  0  0
    6.3079   -2.8731   45.1171 C   0  0  0  0  0  0  0  0  0  0  0  0
    6.8863   -3.8787   45.9525 C   0  0  0  0  0  0  0  0  0  0  0  0
    1.4408   -3.5475   42.6011 C   0  0  0  0  0  0  0  0  0  0  0  0
    6.8919   -1.7510   45.0602 C   0  0  0  0  0  0  0  0  0  0  0  0
    8.1383   -1.7029   45.8456 C   0  0  0  0  0  0  0  0  0  0  0  0
    8.8942   -0.3556   45.7602 O   0  0  0  0  0  0  0  0  0  0  0  0
    8.5707   -2.6683   46.5680 C   0  0  0  0  0  0  0  0  0  0  0  0
    6.0278   -5.1474   46.0603 F   0  0  0  0  0  0  0  0  0  0  0  0
    9.8886   -2.3525   47.3392 C   0  0  0  0  0  0  0  0  0  0  0  0
    7.9287   -3.7992   46.7632 C   0  0  0  0  0  0  0  0  0  0  0  0
   10.9761   -2.6065   46.6251 N   0  0  0  0  0  0  0  0  0  0  0  0
   11.3313   -3.8191   46.3196 C   0  0  0  0  0  0  0  0  0  0  0  0
   11.7403   -1.5108   46.1105 C   0  0  0  0  0  0  0  0  0  0  0  0
   13.0474   -1.9978   45.6324 C   0  0  1  0  0  0  0  0  0  0  0  0
   12.8428   -3.3843   45.8716 C   0  0  0  0  0  0  0  0  0  0  0  0
   13.2813   -1.4752   44.3763 O   0  0  0  0  0  0  0  0  0  0  0  0
  1  2  2  0
  2  3  1  0
  1  4  1  0
  4  5  2  0
  3  6  2  0
  5  6  1  0
  6  7  1  0
  3  8  1  0
  5  9  1  0
  4 10  1  0
  8 11  2  0
  9 12  2  0
 12 13  1  0
  7 14  2  0
 11 14  1  0
 10 15  2  0
 12 15  1  0
 15 16  1  0
 16 17  1  0
 16 18  2  0
 13 19  1  0
 18 20  1  0
 13 21  2  0
 18 21  1  0
 20 22  1  0
 22 23  1  0
 22 24  1  0
 24 25  1  0
 23 26  1  0
 25 26  1  0
 25 27  1  6
M  END
$$$$
O14757_Pocket2Mol_idx-in-all-generaetd-9
     RDKit          3D

 47 56  0  0  0  0  0  0  0  0999 V2000
    1.5482   -0.3111   41.9233 C   0  0  0  0  0  0  0  0  0  0  0  0
    2.7284    0.2018   42.1525 N   0  0  0  0  0  0  0  0  0  0  0  0
    3.7893   -0.3016   42.7005 C   0  0  0  0  0  0  0  0  0  0  0  0
    3.3781   -1.7350   43.0000 C   0  0  0  0  0  0  0  0  0  0  0  0
    2.0339   -1.9619   42.6217 C   0  0  0  0  0  0  0  0  0  0  0  0
    5.0090    0.1219   42.9340 N   0  0  0  0  0  0  0  0  0  0  0  0
    4.2895   -2.4979   43.6707 C   0  0  0  0  0  0  0  0  0  0  0  0
    5.8391   -0.6675   43.6343 C   0  0  0  0  0  0  0  0  0  0  0  0
    6.9849   -0.2377   44.0028 N   0  0  0  0  0  0  0  0  0  0  0  0
    4.0426   -3.8794   44.0832 C   0  0  0  0  0  0  0  0  0  0  0  0
    7.6796   -0.8734   44.9326 C   0  0  0  0  0  0  0  0  0  0  0  0
    1.1064   -2.9576   42.4211 C   0  0  0  0  0  0  0  0  0  0  0  0
    5.5298   -1.9496   44.0315 C   0  0  0  0  0  0  0  0  0  0  0  0
    3.8954   -4.1817   45.4718 C   0  0  0  0  0  0  0  0  0  0  0  0
    0.6765   -3.5480   43.4006 C   0  0  1  0  0  0  0  0  0  0  0  0
    0.5804   -3.2191   41.1635 C   0  0  0  0  0  0  0  0  0  0  0  0
    2.8083   -4.8227   45.9203 N   0  0  0  0  0  0  0  0  0  0  0  0
   -0.1574   -4.5754   42.9329 N   0  0  0  0  0  0  0  0  0  0  0  0
    6.5271   -2.5531   44.9677 C   0  0  0  0  0  0  0  0  0  0  0  0
   -0.2272   -4.3703   41.5137 C   0  0  0  0  0  0  0  0  0  0  0  0
    7.5095   -2.0029   45.3993 C   0  0  0  0  0  0  0  0  0  0  0  0
    8.2550   -2.6982   46.3988 C   0  0  0  0  0  0  0  0  0  0  0  0
    8.8975   -0.3029   45.3267 O   0  0  0  0  0  0  0  0  0  0  0  0
    4.8299   -4.4637   46.4212 C   0  0  0  0  0  0  0  0  0  0  0  0
    4.2707   -4.9248   47.6295 N   0  0  0  0  0  0  0  0  0  0  0  0
    3.2045   -5.2092   47.1521 C   0  0  0  0  0  0  0  0  0  0  0  0
    1.4482   -4.6186   45.4134 C   0  0  1  0  0  0  0  0  0  0  0  0
    1.2398   -3.5043   44.6236 O   0  0  0  0  0  0  0  0  0  0  0  0
    7.8521   -3.9584   46.8773 C   0  0  0  0  0  0  0  0  0  0  0  0
    8.4079   -4.7553   47.7407 C   0  0  0  0  0  0  0  0  0  0  0  0
    5.9516   -3.8110   45.9146 C   0  0  0  0  0  0  0  0  0  0  0  0
    6.6436   -4.3892   46.6649 C   0  0  0  0  0  0  0  0  0  0  0  0
    9.5111   -5.5246   47.2994 O   0  0  0  0  0  0  0  0  0  0  0  0
   10.6238   -5.0197   46.8534 C   0  0  0  0  0  0  0  0  0  0  0  0
   11.5866   -4.7361   47.6189 C   0  0  0  0  0  0  0  0  0  0  0  0
    1.2153   -5.7944   44.5753 C   0  0  0  0  0  0  0  0  0  0  0  0
   10.7023   -4.6532   45.4361 C   0  0  0  0  0  0  0  0  0  0  0  0
   12.8078   -4.2193   47.0828 C   0  0  0  0  0  0  0  0  0  0  0  0
   11.7380   -4.2754   44.9534 C   0  0  0  0  0  0  0  0  0  0  0  0
   12.8492   -4.0096   45.7359 C   0  0  0  0  0  0  0  0  0  0  0  0
   14.2115   -3.3382   45.2248 C   0  0  0  0  0  0  0  0  0  0  0  0
   14.0017   -2.1217   44.7313 C   0  0  0  0  0  0  0  0  0  0  0  0
   15.0828   -1.5214   44.2932 C   0  0  0  0  0  0  0  0  0  0  0  0
   16.2936   -2.0632   44.4117 C   0  0  0  0  0  0  0  0  0  0  0  0
   15.2777   -3.9218   45.3990 C   0  0  0  0  0  0  0  0  0  0  0  0
   15.4907   -5.1774   46.0460 O   0  0  0  0  0  0  0  0  0  0  0  0
   16.4486   -3.2776   45.0158 C   0  0  0  0  0  0  0  0  0  0  0  0
  1  2  1  0
  2  3  2  0
  3  4  1  0
  1  5  2  0
  4  5  1  0
  3  6  1  0
  4  7  2  0
  6  8  1  0
  8  9  1  0
  7 10  1  0
  9 11  1  0
  5 12  1  0
  7 13  1  0
  8 13  2  0
 10 14  1  0
 12 15  1  0
 12 16  2  0
 14 17  1  0
 15 18  1  0
 13 19  1  0
 16 20  1  0
 18 20  2  0
 11 21  1  0
 19 21  2  0
 21 22  1  0
 11 23  2  0
 14 24  2  0
 24 25  1  0
 17 26  1  0
 25 26  2  0
 17 27  1  0
 15 28  1  6
 27 28  1  0
 22 29  2  0
 29 30  1  0
 19 31  1  0
 24 31  1  0
 29 32  1  0
 31 32  2  0
 30 33  1  0
 33 34  1  0
 34 35  2  0
 27 36  1  6
 34 37  1  0
 35 38  1  0
 37 39  2  0
 38 40  2  0
 39 40  1  0
 40 41  1  0
 41 42  2  0
 42 43  1  0
 43 44  2  0
 41 45  1  0
 45 46  1  0
 44 47  1  0
 45 47  2  0
M  END
$$$$
O14757_Pocket2Mol_idx-in-all-generaetd-10
     RDKit          3D

 39 47  0  0  0  0  0  0  0  0999 V2000
    1.5482   -0.3111   41.9233 C   0  0  0  0  0  0  0  0  0  0  0  0
    2.7284    0.2018   42.1525 N   0  0  0  0  0  0  0  0  0  0  0  0
    3.7893   -0.3016   42.7005 C   0  0  0  0  0  0  0  0  0  0  0  0
    3.3781   -1.7350   43.0000 C   0  0  0  0  0  0  0  0  0  0  0  0
    2.0339   -1.9619   42.6217 C   0  0  0  0  0  0  0  0  0  0  0  0
    5.0090    0.1219   42.9340 N   0  0  0  0  0  0  0  0  0  0  0  0
    4.2895   -2.4979   43.6707 C   0  0  0  0  0  0  0  0  0  0  0  0
    5.8391   -0.6675   43.6343 C   0  0  0  0  0  0  0  0  0  0  0  0
    6.9849   -0.2377   44.0028 N   0  0  0  0  0  0  0  0  0  0  0  0
    4.0426   -3.8794   44.0832 C   0  0  0  0  0  0  0  0  0  0  0  0
    7.6796   -0.8734   44.9326 C   0  0  0  0  0  0  0  0  0  0  0  0
    1.1064   -2.9576   42.4211 C   0  0  0  0  0  0  0  0  0  0  0  0
    5.5298   -1.9496   44.0315 C   0  0  0  0  0  0  0  0  0  0  0  0
    3.8954   -4.1817   45.4718 C   0  0  0  0  0  0  0  0  0  0  0  0
    0.6765   -3.5480   43.4006 C   0  0  1  0  0  0  0  0  0  0  0  0
    0.5804   -3.2191   41.1635 C   0  0  0  0  0  0  0  0  0  0  0  0
    2.8083   -4.8227   45.9203 N   0  0  0  0  0  0  0  0  0  0  0  0
   -0.1574   -4.5754   42.9329 N   0  0  0  0  0  0  0  0  0  0  0  0
    6.5271   -2.5531   44.9677 C   0  0  0  0  0  0  0  0  0  0  0  0
   -0.2272   -4.3703   41.5137 C   0  0  0  0  0  0  0  0  0  0  0  0
    7.5095   -2.0029   45.3993 C   0  0  0  0  0  0  0  0  0  0  0  0
    8.2550   -2.6982   46.3988 C   0  0  1  0  0  0  0  0  0  0  0  0
    8.8975   -0.3029   45.3267 O   0  0  0  0  0  0  0  0  0  0  0  0
    4.8299   -4.4637   46.4212 C   0  0  0  0  0  0  0  0  0  0  0  0
    4.2707   -4.9248   47.6295 N   0  0  0  0  0  0  0  0  0  0  0  0
    3.2045   -5.2092   47.1521 C   0  0  0  0  0  0  0  0  0  0  0  0
    1.4482   -4.6186   45.4134 C   0  0  0  0  0  0  0  0  0  0  0  0
    1.3256   -3.7660   44.6394 N   0  0  0  0  0  0  0  0  0  0  0  0
    9.2816   -2.1418   47.1273 N   0  0  0  0  0  0  0  0  0  0  0  0
   10.0629   -3.1324   47.8508 C   0  0  0  0  0  0  0  0  0  0  0  0
    6.3491   -3.8960   46.0844 C   0  0  2  0  0  0  0  0  0  0  0  0
    7.4349   -3.5889   46.9054 C   0  0  0  0  0  0  0  0  0  0  0  0
   10.3145   -2.7271   49.0818 O   0  0  0  0  0  0  0  0  0  0  0  0
   11.0221   -3.8171   47.1052 C   0  0  0  0  0  0  0  0  0  0  0  0
    0.8710   -5.7412   45.2074 O   0  0  0  0  0  0  0  0  0  0  0  0
   12.1654   -3.3890   46.7468 C   0  0  0  0  0  0  0  0  0  0  0  0
   10.6095   -5.0619   46.5869 C   0  0  0  0  0  0  0  0  0  0  0  0
   11.6382   -5.6341   45.8503 C   0  0  0  0  0  0  0  0  0  0  0  0
   12.9187   -4.6426   45.8552 S   0  0  0  0  0  0  0  0  0  0  0  0
  1  2  1  0
  2  3  2  0
  3  4  1  0
  1  5  2  0
  4  5  1  0
  3  6  1  0
  4  7  2  0
  6  8  1  0
  8  9  1  0
  7 10  1  0
  9 11  1  0
  5 12  1  0
  7 13  1  0
  8 13  2  0
 10 14  1  0
 12 15  1  0
 12 16  2  0
 14 17  1  0
 15 18  1  0
 13 19  1  0
 16 20  1  0
 18 20  2  0
 11 21  1  0
 19 21  2  0
 21 22  1  0
 11 23  2  0
 14 24  2  0
 24 25  1  0
 17 26  1  0
 25 26  2  0
 17 27  1  0
 15 28  1  6
 27 28  1  0
 22 29  1  1
 29 30  1  0
 19 31  1  0
 24 31  1  0
 22 32  1  0
 31 32  1  1
 30 33  2  0
 30 34  1  0
 27 35  2  0
 34 36  2  0
 34 37  1  0
 37 38  2  0
 36 39  1  0
 38 39  1  0
M  END
$$$$
O14757_Pocket2Mol_idx-in-all-generaetd-11
     RDKit          3D

 46 54  0  0  0  0  0  0  0  0999 V2000
    1.5482   -0.3111   41.9233 C   0  0  0  0  0  0  0  0  0  0  0  0
    2.7284    0.2018   42.1525 N   0  0  0  0  0  0  0  0  0  0  0  0
    3.7893   -0.3016   42.7005 C   0  0  0  0  0  0  0  0  0  0  0  0
    3.3781   -1.7350   43.0000 C   0  0  0  0  0  0  0  0  0  0  0  0
    2.0339   -1.9619   42.6217 C   0  0  0  0  0  0  0  0  0  0  0  0
    5.0090    0.1219   42.9340 N   0  0  0  0  0  0  0  0  0  0  0  0
    4.2895   -2.4979   43.6707 C   0  0  0  0  0  0  0  0  0  0  0  0
    5.8391   -0.6675   43.6343 C   0  0  0  0  0  0  0  0  0  0  0  0
    6.9849   -0.2377   44.0028 N   0  0  0  0  0  0  0  0  0  0  0  0
    4.0426   -3.8794   44.0832 C   0  0  0  0  0  0  0  0  0  0  0  0
    7.6796   -0.8734   44.9326 C   0  0  0  0  0  0  0  0  0  0  0  0
    1.1064   -2.9576   42.4211 C   0  0  0  0  0  0  0  0  0  0  0  0
    5.5298   -1.9496   44.0315 C   0  0  0  0  0  0  0  0  0  0  0  0
    3.8954   -4.1817   45.4718 C   0  0  0  0  0  0  0  0  0  0  0  0
    0.6765   -3.5480   43.4006 C   0  0  1  0  0  0  0  0  0  0  0  0
    0.5804   -3.2191   41.1635 C   0  0  0  0  0  0  0  0  0  0  0  0
    2.8083   -4.8227   45.9203 N   0  0  0  0  0  0  0  0  0  0  0  0
   -0.1574   -4.5754   42.9329 N   0  0  0  0  0  0  0  0  0  0  0  0
    6.5271   -2.5531   44.9677 C   0  0  0  0  0  0  0  0  0  0  0  0
   -0.2272   -4.3703   41.5137 C   0  0  0  0  0  0  0  0  0  0  0  0
    7.5095   -2.0029   45.3993 C   0  0  0  0  0  0  0  0  0  0  0  0
    8.2550   -2.6982   46.3988 C   0  0  2  0  0  0  0  0  0  0  0  0
    8.8975   -0.3029   45.3267 O   0  0  0  0  0  0  0  0  0  0  0  0
    4.8299   -4.4637   46.4212 C   0  0  0  0  0  0  0  0  0  0  0  0
    4.2707   -4.9248   47.6295 N   0  0  0  0  0  0  0  0  0  0  0  0
    3.2045   -5.2092   47.1521 C   0  0  0  0  0  0  0  0  0  0  0  0
    1.4482   -4.6186   45.4134 C   0  0  2  0  0  0  0  0  0  0  0  0
    1.2398   -3.5043   44.6236 O   0  0  0  0  0  0  0  0  0  0  0  0
    6.3317   -3.9297   46.0870 C   0  0  2  0  0  0  0  0  0  0  0  0
    9.5296   -2.5449   46.9776 C   0  0  0  0  0  0  0  0  0  0  0  0
    9.7921   -1.7530   47.9018 O   0  0  0  0  0  0  0  0  0  0  0  0
    7.4454   -3.8344   46.8035 C   0  0  0  0  0  0  0  0  0  0  0  0
   10.5010   -3.0847   46.3190 O   0  0  0  0  0  0  0  0  0  0  0  0
    0.5569   -4.7693   46.5649 C   0  0  0  0  0  0  0  0  0  0  0  0
   11.7452   -2.8462   46.6234 C   0  0  0  0  0  0  0  0  0  0  0  0
   12.4344   -1.8951   45.7393 C   0  0  0  0  0  0  0  0  0  0  0  0
   12.4612   -3.5429   47.5581 C   0  0  0  0  0  0  0  0  0  0  0  0
   11.7737   -4.5216   48.4115 C   0  0  0  0  0  0  0  0  0  0  0  0
   11.7935   -5.7538   48.0263 C   0  0  0  0  0  0  0  0  0  0  0  0
   13.8063   -3.2053   47.6588 C   0  0  0  0  0  0  0  0  0  0  0  0
   13.7637   -1.6546   45.8843 C   0  0  0  0  0  0  0  0  0  0  0  0
   14.4667   -2.3219   46.9169 C   0  0  0  0  0  0  0  0  0  0  0  0
   10.6306   -6.4983   47.9875 C   0  0  0  0  0  0  0  0  0  0  0  0
   10.2054   -6.8426   46.5916 C   0  0  0  0  0  0  0  0  0  0  0  0
   10.4502   -7.9629   46.0585 O   0  0  0  0  0  0  0  0  0  0  0  0
    9.9757   -5.8187   45.7873 O   0  0  0  0  0  0  0  0  0  0  0  0
  1  2  1  0
  2  3  2  0
  3  4  1  0
  1  5  2  0
  4  5  1  0
  3  6  1  0
  4  7  2  0
  6  8  1  0
  8  9  1  0
  7 10  1  0
  9 11  1  0
  5 12  1  0
  7 13  1  0
  8 13  2  0
 10 14  1  0
 12 15  1  0
 12 16  2  0
 14 17  1  0
 15 18  1  0
 13 19  1  0
 16 20  1  0
 18 20  2  0
 11 21  1  0
 19 21  2  0
 21 22  1  0
 11 23  2  0
 14 24  2  0
 24 25  1  0
 17 26  1  0
 25 26  2  0
 17 27  1  0
 15 28  1  6
 27 28  1  0
 19 29  1  0
 24 29  1  0
 22 30  1  6
 30 31  2  0
 22 32  1  0
 29 32  1  1
 30 33  1  0
 27 34  1  1
 33 35  1  0
 35 36  2  0
 35 37  1  0
 37 38  1  0
 38 39  1  0
 37 40  2  0
 36 41  1  0
 40 42  1  0
 41 42  2  0
 39 43  1  0
 43 44  1  0
 44 45  2  0
 44 46  1  0
M  END
$$$$
O14757_Pocket2Mol_idx-in-all-generaetd-12
     RDKit          3D

 42 48  0  0  0  0  0  0  0  0999 V2000
    5.3420    0.2589   42.8836 O   0  0  0  0  0  0  0  0  0  0  0  0
    5.1627   -0.7554   43.4753 C   0  0  0  0  0  0  0  0  0  0  0  0
    4.0509   -1.4657   43.4177 N   0  0  0  0  0  0  0  0  0  0  0  0
    5.9969   -1.2317   44.6840 C   0  0  0  0  0  0  0  0  0  0  0  0
    2.9618   -1.1021   42.5918 C   0  0  0  0  0  0  0  0  0  0  0  0
    7.3392   -0.8596   44.8412 C   0  0  0  0  0  0  0  0  0  0  0  0
    1.9754   -2.0820   42.2741 C   0  0  0  0  0  0  0  0  0  0  0  0
    5.5910   -2.4282   45.3439 C   0  0  0  0  0  0  0  0  0  0  0  0
    6.5874   -2.9636   46.1581 C   0  0  0  0  0  0  0  0  0  0  0  0
    4.2763   -3.0680   45.0493 N   0  0  0  0  0  0  0  0  0  0  0  0
    3.6188   -2.5886   44.2024 C   0  0  0  0  0  0  0  0  0  0  0  0
    8.1921   -1.4071   45.7505 C   0  0  0  0  0  0  0  0  0  0  0  0
    1.0154   -1.8839   41.2980 C   0  0  0  0  0  0  0  0  0  0  0  0
    2.5720   -3.3564   43.9063 C   0  0  0  0  0  0  0  0  0  0  0  0
    0.2502   -2.8976   41.0751 C   0  0  0  0  0  0  0  0  0  0  0  0
    6.1761   -4.1775   47.0209 C   0  0  0  0  0  0  0  0  0  0  0  0
    1.7266   -3.1047   43.0115 C   0  0  2  0  0  0  0  0  0  0  0  0
    2.3696   -4.5367   44.7536 N   0  0  0  0  0  0  0  0  0  0  0  0
    1.2264   -5.2346   44.4693 C   0  0  0  0  0  0  0  0  0  0  0  0
    0.7187   -3.8955   42.5465 C   0  0  0  0  0  0  0  0  0  0  0  0
    9.4576   -0.8949   46.0327 N   0  0  0  0  0  0  0  0  0  0  0  0
    0.8625   -6.3901   45.2462 C   0  0  0  0  0  0  0  0  0  0  0  0
    7.6467   -2.5139   46.4892 C   0  0  0  0  0  0  0  0  0  0  0  0
   10.4908   -1.5336   45.8242 C   0  0  0  0  0  0  0  0  0  0  0  0
    0.3057   -4.9299   43.2909 C   0  0  0  0  0  0  0  0  0  0  0  0
   11.5916   -1.4291   46.7436 C   0  0  0  0  0  0  0  0  0  0  0  0
   10.5566   -2.3672   44.8649 O   0  0  0  0  0  0  0  0  0  0  0  0
   12.8421   -1.9355   46.2823 C   0  0  0  0  0  0  0  0  0  0  0  0
   13.4833   -2.8582   46.9841 C   0  0  0  0  0  0  0  0  0  0  0  0
   11.4002   -1.1447   48.0540 C   0  0  0  0  0  0  0  0  0  0  0  0
   10.2867   -0.4569   48.4999 O   0  0  0  0  0  0  0  0  0  0  0  0
   12.3327   -1.4798   48.9564 C   0  0  0  0  0  0  0  0  0  0  0  0
   14.7901   -3.3162   46.6439 C   0  0  0  0  0  0  0  0  0  0  0  0
   12.1651   -1.3050   50.3239 O   0  0  0  0  0  0  0  0  0  0  0  0
   15.6765   -2.5740   46.0979 C   0  0  0  0  0  0  0  0  0  0  0  0
   13.4417   -2.4710   48.5369 C   0  0  0  0  0  0  0  0  0  0  0  0
    3.0238    0.0742   42.0657 O   0  0  0  0  0  0  0  0  0  0  0  0
   16.9621   -3.2473   45.5967 C   0  0  0  0  0  0  0  0  0  0  0  0
   17.0811   -4.5622   45.6708 C   0  0  0  0  0  0  0  0  0  0  0  0
   14.7039   -4.6671   47.0178 C   0  0  0  0  0  0  0  0  0  0  0  0
   18.2024   -5.2599   45.2801 O   0  0  0  0  0  0  0  0  0  0  0  0
   16.0231   -5.3412   46.4273 C   0  0  0  0  0  0  0  0  0  0  0  0
  1  2  2  0
  2  3  1  0
  2  4  1  0
  3  5  1  0
  4  6  2  0
  5  7  1  0
  4  8  1  0
  8  9  2  0
  8 10  1  0
  3 11  1  0
 10 11  2  0
  6 12  1  0
  7 13  2  0
 11 14  1  0
 13 15  1  0
  9 16  1  0
 17  7  1  6
 14 17  1  0
 14 18  2  0
 18 19  1  0
 15 20  2  0
 17 20  1  0
 12 21  1  0
 19 22  1  0
  9 23  1  0
 12 23  2  0
 21 24  1  0
 19 25  2  0
 20 25  1  0
 24 26  1  0
 24 27  2  0
 26 28  2  0
 28 29  1  0
 26 30  1  0
 30 31  1  0
 30 32  2  0
 29 33  1  0
 32 34  1  0
 33 35  2  0
 29 36  2  0
 32 36  1  0
  5 37  2  0
 35 38  1  0
 38 39  2  0
 33 40  1  0
 39 41  1  0
 39 42  1  0
 40 42  2  0
M  END
$$$$
O14757_Pocket2Mol_idx-in-all-generaetd-13
     RDKit          3D

 50 59  0  0  0  0  0  0  0  0999 V2000
    1.5482   -0.3111   41.9233 C   0  0  0  0  0  0  0  0  0  0  0  0
    2.7284    0.2018   42.1525 N   0  0  0  0  0  0  0  0  0  0  0  0
    3.7893   -0.3016   42.7005 C   0  0  0  0  0  0  0  0  0  0  0  0
    3.3781   -1.7350   43.0000 C   0  0  0  0  0  0  0  0  0  0  0  0
    2.0339   -1.9619   42.6217 C   0  0  0  0  0  0  0  0  0  0  0  0
    5.0090    0.1219   42.9340 N   0  0  0  0  0  0  0  0  0  0  0  0
    4.2895   -2.4979   43.6707 C   0  0  0  0  0  0  0  0  0  0  0  0
    5.8391   -0.6675   43.6343 C   0  0  0  0  0  0  0  0  0  0  0  0
    6.9849   -0.2377   44.0028 N   0  0  0  0  0  0  0  0  0  0  0  0
    4.0426   -3.8794   44.0832 C   0  0  0  0  0  0  0  0  0  0  0  0
    7.6796   -0.8734   44.9326 C   0  0  0  0  0  0  0  0  0  0  0  0
    1.1064   -2.9576   42.4211 C   0  0  0  0  0  0  0  0  0  0  0  0
    5.5298   -1.9496   44.0315 C   0  0  0  0  0  0  0  0  0  0  0  0
    3.8954   -4.1817   45.4718 C   0  0  0  0  0  0  0  0  0  0  0  0
    0.6765   -3.5480   43.4006 C   0  0  1  0  0  0  0  0  0  0  0  0
    0.5804   -3.2191   41.1635 C   0  0  0  0  0  0  0  0  0  0  0  0
    2.8083   -4.8227   45.9203 N   0  0  0  0  0  0  0  0  0  0  0  0
   -0.1574   -4.5754   42.9329 N   0  0  0  0  0  0  0  0  0  0  0  0
    6.5271   -2.5531   44.9677 C   0  0  0  0  0  0  0  0  0  0  0  0
   -0.2272   -4.3703   41.5137 C   0  0  0  0  0  0  0  0  0  0  0  0
    7.5095   -2.0029   45.3993 C   0  0  0  0  0  0  0  0  0  0  0  0
    8.2550   -2.6982   46.3988 C   0  0  1  0  0  0  0  0  0  0  0  0
    8.8975   -0.3029   45.3267 O   0  0  0  0  0  0  0  0  0  0  0  0
    4.8299   -4.4637   46.4212 C   0  0  0  0  0  0  0  0  0  0  0  0
    4.2707   -4.9248   47.6295 N   0  0  0  0  0  0  0  0  0  0  0  0
    3.2045   -5.2092   47.1521 C   0  0  0  0  0  0  0  0  0  0  0  0
    1.4482   -4.6186   45.4134 C   0  0  0  0  0  0  0  0  0  0  0  0
    1.3256   -3.7660   44.6394 N   0  0  0  0  0  0  0  0  0  0  0  0
    9.2816   -2.1418   47.1273 N   0  0  0  0  0  0  0  0  0  0  0  0
   10.0629   -3.1324   47.8508 C   0  0  0  0  0  0  0  0  0  0  0  0
    6.3491   -3.8960   46.0844 C   0  0  2  0  0  0  0  0  0  0  0  0
    7.4349   -3.5889   46.9054 C   0  0  0  0  0  0  0  0  0  0  0  0
   10.3145   -2.7271   49.0818 O   0  0  0  0  0  0  0  0  0  0  0  0
    0.6213   -5.4445   45.7455 O   0  0  0  0  0  0  0  0  0  0  0  0
   11.0262   -3.8136   47.1050 C   0  0  0  0  0  0  0  0  0  0  0  0
   12.1704   -3.3854   46.7547 C   0  0  0  0  0  0  0  0  0  0  0  0
   13.1080   -4.1111   46.0053 C   0  0  0  0  0  0  0  0  0  0  0  0
   14.3489   -3.5966   45.7888 C   0  0  0  0  0  0  0  0  0  0  0  0
   12.7430   -5.2725   45.5056 C   0  0  0  0  0  0  0  0  0  0  0  0
   10.8315   -5.3520   46.8908 C   0  0  0  0  0  0  0  0  0  0  0  0
   11.5834   -5.8795   45.9965 C   0  0  0  0  0  0  0  0  0  0  0  0
   14.5673   -2.2844   45.3294 C   0  0  0  0  0  0  0  0  0  0  0  0
   15.6990   -1.9377   44.9307 C   0  0  0  0  0  0  0  0  0  0  0  0
   15.9777   -0.5351   44.4220 C   0  0  0  0  0  0  0  0  0  0  0  0
   15.4694   -4.3459   45.9452 C   0  0  0  0  0  0  0  0  0  0  0  0
   16.8870   -2.7127   45.2126 C   0  0  0  0  0  0  0  0  0  0  0  0
   15.3968   -5.7551   46.5023 O   0  0  0  0  0  0  0  0  0  0  0  0
   16.7920   -3.8567   45.6308 C   0  0  0  0  0  0  0  0  0  0  0  0
   14.8190    0.0318   44.0023 C   0  0  0  0  0  0  0  0  0  0  0  0
   14.4666    1.0556   44.8463 C   0  0  0  0  0  0  0  0  0  0  0  0
  1  2  1  0
  2  3  2  0
  3  4  1  0
  1  5  2  0
  4  5  1  0
  3  6  1  0
  4  7  2  0
  6  8  1  0
  8  9  1  0
  7 10  1  0
  9 11  1  0
  5 12  1  0
  7 13  1  0
  8 13  2  0
 10 14  1  0
 12 15  1  0
 12 16  2  0
 14 17  1  0
 15 18  1  0
 13 19  1  0
 16 20  1  0
 18 20  2  0
 11 21  1  0
 19 21  2  0
 21 22  1  0
 11 23  2  0
 14 24  2  0
 24 25  1  0
 17 26  1  0
 25 26  2  0
 17 27  1  0
 15 28  1  6
 27 28  1  0
 22 29  1  1
 29 30  1  0
 19 31  1  0
 24 31  1  0
 22 32  1  0
 31 32  1  1
 30 33  2  0
 27 34  2  0
 30 35  1  0
 35 36  2  0
 36 37  1  0
 37 38  1  0
 37 39  2  0
 35 40  1  0
 39 41  1  0
 40 41  2  0
 38 42  2  0
 42 43  1  0
 43 44  1  0
 38 45  1  0
 43 46  2  0
 45 47  1  0
 45 48  2  0
 46 48  1  0
 44 49  1  0
 49 50  1  0
M  END
$$$$
O14757_Pocket2Mol_idx-in-all-generaetd-14
     RDKit          3D

 33 40  0  0  0  0  0  0  0  0999 V2000
    4.8173    0.2791   42.6993 N   0  0  0  0  0  0  0  0  0  0  0  0
    5.3297   -0.7477   43.3688 C   0  0  0  0  0  0  0  0  0  0  0  0
    3.4732   -0.2235   42.4530 C   0  0  0  0  0  0  0  0  0  0  0  0
    4.4984   -1.7876   43.6214 C   0  0  0  0  0  0  0  0  0  0  0  0
    3.3438   -1.5190   42.9379 C   0  0  0  0  0  0  0  0  0  0  0  0
    2.1381   -2.3401   42.8254 C   0  0  0  0  0  0  0  0  0  0  0  0
    2.3894    0.3572   41.9843 N   0  0  0  0  0  0  0  0  0  0  0  0
    4.9180   -3.0430   44.3829 C   0  0  0  0  0  0  0  0  0  0  0  0
    5.9444   -2.9314   45.3934 C   0  0  0  0  0  0  0  0  0  0  0  0
    4.2808   -4.1329   44.3252 C   0  0  0  0  0  0  0  0  0  0  0  0
    3.1588   -4.4221   43.4852 O   0  0  0  0  0  0  0  0  0  0  0  0
    4.5704   -5.2518   45.1995 C   0  0  0  0  0  0  0  0  0  0  0  0
    1.9853   -3.6792   43.3495 C   0  0  0  0  0  0  0  0  0  0  0  0
    0.9181   -4.3294   43.4638 C   0  0  0  0  0  0  0  0  0  0  0  0
    6.7403   -1.6226   45.5272 C   0  0  2  0  0  0  0  0  0  0  0  0
    0.9752   -1.7845   42.3366 C   0  0  0  0  0  0  0  0  0  0  0  0
    6.2516   -3.7287   46.2722 C   0  0  0  0  0  0  0  0  0  0  0  0
   -0.2404   -2.4179   42.2529 C   0  0  0  0  0  0  0  0  0  0  0  0
   -1.3835   -1.8904   41.6559 N   0  0  0  0  0  0  0  0  0  0  0  0
    3.8706   -6.4216   45.1394 O   0  0  0  0  0  0  0  0  0  0  0  0
    0.9456   -0.2789   41.7649 C   0  0  0  0  0  0  0  0  0  0  0  0
   -0.2678   -3.6969   42.7575 C   0  0  0  0  0  0  0  0  0  0  0  0
    6.3913   -0.7000   44.3807 N   0  0  0  0  0  0  0  0  0  0  0  0
    7.9391   -1.5867   46.0069 C   0  0  0  0  0  0  0  0  0  0  0  0
    8.7787   -0.4879   45.9761 O   0  0  0  0  0  0  0  0  0  0  0  0
    5.3853   -5.1216   46.3780 C   0  0  0  0  0  0  0  0  0  0  0  0
    8.4504   -2.7517   46.6262 N   0  0  0  0  0  0  0  0  0  0  0  0
    7.4807   -3.7374   47.0380 C   0  0  0  0  0  0  0  0  0  0  0  0
    9.7861   -2.6616   47.2863 C   0  0  1  0  0  0  0  0  0  0  0  0
   10.0358   -3.7697   48.0129 C   0  0  0  0  0  0  0  0  0  0  0  0
   10.6922   -2.7497   46.0290 C   0  0  0  0  0  0  0  0  0  0  0  0
   11.1898   -3.9159   45.8473 O   0  0  0  0  0  0  0  0  0  0  0  0
   10.6873   -4.8303   46.8024 C   0  0  0  0  0  0  0  0  0  0  0  0
  1  2  2  0
  1  3  1  0
  2  4  1  0
  3  5  1  0
  4  5  2  0
  5  6  1  0
  3  7  2  0
  4  8  1  0
  8  9  1  0
  8 10  2  0
 10 11  1  0
 10 12  1  0
  6 13  1  0
 11 13  1  0
 13 14  2  0
  9 15  1  0
  6 16  2  0
  9 17  2  0
 16 18  1  0
 18 19  1  0
 12 20  1  0
  7 21  1  0
 16 21  1  0
 14 22  1  0
 18 22  2  0
  2 23  1  0
 15 23  1  6
 15 24  1  0
 24 25  2  0
 12 26  2  0
 17 26  1  0
 24 27  1  0
 17 28  1  0
 27 28  1  0
 29 27  1  6
 29 30  1  0
 29 31  1  0
 31 32  1  0
 30 33  1  0
 32 33  1  0
M  END
$$$$
O14757_Pocket2Mol_idx-in-all-generaetd-15
     RDKit          3D

 35 41  0  0  0  0  0  0  0  0999 V2000
    4.8037   -0.1366   42.7100 N   0  0  0  0  0  0  0  0  0  0  0  0
    3.6577   -0.7759   42.7186 C   0  0  0  0  0  0  0  0  0  0  0  0
    3.6660   -1.8665   43.4760 C   0  0  0  0  0  0  0  0  0  0  0  0
    2.7271   -2.8718   43.6599 C   0  0  0  0  0  0  0  0  0  0  0  0
    2.4846   -0.2994   42.1254 N   0  0  0  0  0  0  0  0  0  0  0  0
    5.0524   -1.7697   43.9367 C   0  0  0  0  0  0  0  0  0  0  0  0
    1.4917   -2.9000   43.0914 C   0  0  0  0  0  0  0  0  0  0  0  0
    3.1274   -3.9503   44.5163 C   0  0  0  0  0  0  0  0  0  0  0  0
    1.0744   -1.9066   42.1491 C   0  0  2  0  0  0  0  0  0  0  0  0
    5.6624   -0.7003   43.4895 C   0  0  0  0  0  0  0  0  0  0  0  0
    5.5753   -2.5784   45.0324 C   0  0  0  0  0  0  0  0  0  0  0  0
    0.4030   -3.6297   43.4883 N   0  0  0  0  0  0  0  0  0  0  0  0
    1.5052   -0.8077   41.7519 C   0  0  0  0  0  0  0  0  0  0  0  0
   -0.5645   -3.4039   42.5585 N   0  0  0  0  0  0  0  0  0  0  0  0
    2.5059   -5.1012   44.7935 C   0  0  0  0  0  0  0  0  0  0  0  0
    4.4581   -3.8218   45.2947 C   0  0  0  0  0  0  0  0  0  0  0  0
   -0.3089   -2.3979   41.8128 C   0  0  0  0  0  0  0  0  0  0  0  0
    6.6435   -2.6577   45.6991 C   0  0  0  0  0  0  0  0  0  0  0  0
    7.0869   -3.7008   46.4717 C   0  0  0  0  0  0  0  0  0  0  0  0
    7.5912   -1.5296   45.5455 C   0  0  0  0  0  0  0  0  0  0  0  0
    8.7765   -1.4352   46.2248 C   0  0  0  0  0  0  0  0  0  0  0  0
    6.3069   -4.7944   46.6836 O   0  0  0  0  0  0  0  0  0  0  0  0
    4.8984   -4.5252   46.1302 C   0  0  0  0  0  0  0  0  0  0  0  0
    4.2122   -5.9932   46.2216 C   0  0  0  0  0  0  0  0  0  0  0  0
    8.3395   -3.6608   47.2172 C   0  0  0  0  0  0  0  0  0  0  0  0
    4.6690   -6.8778   47.1549 O   0  0  0  0  0  0  0  0  0  0  0  0
    9.1822   -2.5745   47.1243 C   0  0  0  0  0  0  0  0  0  0  0  0
    2.9603   -6.0414   45.6688 C   0  0  0  0  0  0  0  0  0  0  0  0
   10.4349   -2.3996   47.8362 C   0  0  0  0  0  0  0  0  0  0  0  0
   10.5770   -1.5405   48.6790 O   0  0  0  0  0  0  0  0  0  0  0  0
   11.4736   -2.9717   47.2121 O   0  0  0  0  0  0  0  0  0  0  0  0
   12.5933   -2.4739   47.2623 C   0  0  0  0  0  0  0  0  0  0  0  0
   12.9974   -2.0618   45.8386 C   0  0  0  0  0  0  0  0  0  0  0  0
   12.0001   -1.8999   45.0538 O   0  0  0  0  0  0  0  0  0  0  0  0
   14.1650   -1.7751   45.4550 O   0  0  0  0  0  0  0  0  0  0  0  0
  1  2  2  0
  2  3  1  0
  3  4  2  0
  2  5  1  0
  3  6  1  0
  4  7  1  0
  4  8  1  0
  7  9  1  0
  1 10  1  0
  6 10  1  0
  6 11  2  0
  7 12  2  0
  5 13  2  0
  9 13  1  1
 12 14  1  0
  8 15  2  0
  8 16  1  0
 11 16  1  0
  9 17  1  0
 14 17  2  0
 11 18  1  0
 18 19  2  0
 18 20  1  0
 20 21  2  0
 19 22  1  0
 16 23  2  0
 22 23  1  0
 23 24  1  0
 19 25  1  0
 24 26  1  0
 21 27  1  0
 25 27  2  0
 15 28  1  0
 24 28  2  0
 27 29  1  0
 29 30  2  0
 29 31  1  0
 31 32  1  0
 32 33  1  0
 33 34  1  0
 33 35  2  0
M  END
$$$$
O14757_Pocket2Mol_idx-in-all-generaetd-16
     RDKit          3D

 34 40  0  0  0  0  0  0  0  0999 V2000
    4.8173    0.2791   42.6993 N   0  0  0  0  0  0  0  0  0  0  0  0
    5.3297   -0.7477   43.3688 C   0  0  0  0  0  0  0  0  0  0  0  0
    3.4732   -0.2235   42.4530 C   0  0  0  0  0  0  0  0  0  0  0  0
    4.4984   -1.7876   43.6214 C   0  0  0  0  0  0  0  0  0  0  0  0
    3.3438   -1.5190   42.9379 C   0  0  0  0  0  0  0  0  0  0  0  0
    2.1381   -2.3401   42.8254 C   0  0  0  0  0  0  0  0  0  0  0  0
    2.3894    0.3572   41.9843 N   0  0  0  0  0  0  0  0  0  0  0  0
    4.9180   -3.0430   44.3829 C   0  0  0  0  0  0  0  0  0  0  0  0
    5.9444   -2.9314   45.3934 C   0  0  0  0  0  0  0  0  0  0  0  0
    4.2808   -4.1329   44.3252 C   0  0  0  0  0  0  0  0  0  0  0  0
    3.1588   -4.4221   43.4852 O   0  0  0  0  0  0  0  0  0  0  0  0
    4.5704   -5.2518   45.1995 C   0  0  0  0  0  0  0  0  0  0  0  0
    1.9853   -3.6792   43.3495 C   0  0  0  0  0  0  0  0  0  0  0  0
    0.9181   -4.3294   43.4638 C   0  0  0  0  0  0  0  0  0  0  0  0
    6.7403   -1.6226   45.5272 C   0  0  2  0  0  0  0  0  0  0  0  0
    0.9752   -1.7845   42.3366 C   0  0  0  0  0  0  0  0  0  0  0  0
    6.2516   -3.7287   46.2722 C   0  0  0  0  0  0  0  0  0  0  0  0
   -0.2404   -2.4179   42.2529 C   0  0  0  0  0  0  0  0  0  0  0  0
   -1.3835   -1.8904   41.6559 N   0  0  0  0  0  0  0  0  0  0  0  0
    3.8706   -6.4216   45.1394 O   0  0  0  0  0  0  0  0  0  0  0  0
    0.9456   -0.2789   41.7649 C   0  0  0  0  0  0  0  0  0  0  0  0
   -0.2678   -3.6969   42.7575 C   0  0  0  0  0  0  0  0  0  0  0  0
    6.3913   -0.7000   44.3807 N   0  0  0  0  0  0  0  0  0  0  0  0
    7.9391   -1.5867   46.0069 C   0  0  0  0  0  0  0  0  0  0  0  0
    7.1969   -3.5621   47.3287 C   0  0  0  0  0  0  0  0  0  0  0  0
    5.4958   -5.0534   46.2483 C   0  0  0  0  0  0  0  0  0  0  0  0
    7.4872   -4.5338   48.2539 O   0  0  0  0  0  0  0  0  0  0  0  0
    8.1281   -2.5304   47.0986 C   0  0  1  0  0  0  0  0  0  0  0  0
    8.7872   -0.5908   45.9403 O   0  0  0  0  0  0  0  0  0  0  0  0
    9.4892   -2.5717   47.7347 C   0  0  0  0  0  0  0  0  0  0  0  0
   10.5268   -2.9441   46.9599 C   0  0  0  0  0  0  0  0  0  0  0  0
   11.4734   -2.0640   46.5154 C   0  0  0  0  0  0  0  0  0  0  0  0
   11.7402   -0.9640   47.0983 O   0  0  0  0  0  0  0  0  0  0  0  0
   11.8994   -2.1338   45.2094 O   0  0  0  0  0  0  0  0  0  0  0  0
  1  2  2  0
  1  3  1  0
  2  4  1  0
  3  5  1  0
  4  5  2  0
  5  6  1  0
  3  7  2  0
  4  8  1  0
  8  9  1  0
  8 10  2  0
 10 11  1  0
 10 12  1  0
  6 13  1  0
 11 13  1  0
 13 14  2  0
  9 15  1  0
  6 16  2  0
  9 17  2  0
 16 18  1  0
 18 19  1  0
 12 20  1  0
  7 21  1  0
 16 21  1  0
 14 22  1  0
 18 22  2  0
  2 23  1  0
 15 23  1  6
 15 24  1  0
 17 25  1  0
 12 26  2  0
 17 26  1  0
 25 27  2  0
 24 28  1  0
 25 28  1  0
 24 29  2  0
 28 30  1  6
 30 31  1  0
 31 32  1  0
 32 33  1  0
 32 34  2  0
M  END
$$$$
O14757_Pocket2Mol_idx-in-all-generaetd-17
     RDKit          3D

 44 50  0  0  0  0  0  0  0  0999 V2000
    5.3420    0.2589   42.8836 O   0  0  0  0  0  0  0  0  0  0  0  0
    5.1627   -0.7554   43.4753 C   0  0  0  0  0  0  0  0  0  0  0  0
    4.0509   -1.4657   43.4177 N   0  0  0  0  0  0  0  0  0  0  0  0
    5.9969   -1.2317   44.6840 C   0  0  0  0  0  0  0  0  0  0  0  0
    2.9618   -1.1021   42.5918 C   0  0  1  0  0  0  0  0  0  0  0  0
    7.3392   -0.8596   44.8412 C   0  0  0  0  0  0  0  0  0  0  0  0
    1.9754   -2.0820   42.2741 C   0  0  0  0  0  0  0  0  0  0  0  0
    5.5910   -2.4282   45.3439 C   0  0  0  0  0  0  0  0  0  0  0  0
    6.5874   -2.9636   46.1581 C   0  0  0  0  0  0  0  0  0  0  0  0
    4.2763   -3.0680   45.0493 N   0  0  0  0  0  0  0  0  0  0  0  0
    3.6188   -2.5886   44.2024 C   0  0  0  0  0  0  0  0  0  0  0  0
    8.1921   -1.4071   45.7505 C   0  0  0  0  0  0  0  0  0  0  0  0
    1.0154   -1.8839   41.2980 C   0  0  0  0  0  0  0  0  0  0  0  0
    2.5720   -3.3564   43.9063 C   0  0  0  0  0  0  0  0  0  0  0  0
    0.2502   -2.8976   41.0751 C   0  0  0  0  0  0  0  0  0  0  0  0
    6.1761   -4.1775   47.0209 C   0  0  0  0  0  0  0  0  0  0  0  0
    1.7266   -3.1047   43.0115 C   0  0  2  0  0  0  0  0  0  0  0  0
    2.3696   -4.5367   44.7536 N   0  0  0  0  0  0  0  0  0  0  0  0
    1.2264   -5.2346   44.4693 C   0  0  0  0  0  0  0  0  0  0  0  0
    0.7187   -3.8955   42.5465 C   0  0  0  0  0  0  0  0  0  0  0  0
    9.4576   -0.8949   46.0327 N   0  0  0  0  0  0  0  0  0  0  0  0
    0.8625   -6.3901   45.2462 C   0  0  0  0  0  0  0  0  0  0  0  0
    7.6467   -2.5139   46.4892 C   0  0  0  0  0  0  0  0  0  0  0  0
   10.4908   -1.5336   45.8242 C   0  0  0  0  0  0  0  0  0  0  0  0
    0.3057   -4.9299   43.2909 C   0  0  0  0  0  0  0  0  0  0  0  0
   11.5916   -1.4291   46.7436 C   0  0  0  0  0  0  0  0  0  0  0  0
   10.5566   -2.3672   44.8649 O   0  0  0  0  0  0  0  0  0  0  0  0
   12.8421   -1.9355   46.2823 C   0  0  0  0  0  0  0  0  0  0  0  0
   13.4833   -2.8582   46.9841 C   0  0  0  0  0  0  0  0  0  0  0  0
   11.4002   -1.1447   48.0540 C   0  0  0  0  0  0  0  0  0  0  0  0
   10.2867   -0.4569   48.4999 O   0  0  0  0  0  0  0  0  0  0  0  0
   12.3327   -1.4798   48.9564 C   0  0  0  0  0  0  0  0  0  0  0  0
   14.7901   -3.3162   46.6439 C   0  0  0  0  0  0  0  0  0  0  0  0
   12.1651   -1.3050   50.3239 O   0  0  0  0  0  0  0  0  0  0  0  0
   15.6765   -2.5740   46.0979 C   0  0  0  0  0  0  0  0  0  0  0  0
   13.4417   -2.4710   48.5369 C   0  0  0  0  0  0  0  0  0  0  0  0
   15.5553   -1.2853   45.8338 C   0  0  0  0  0  0  0  0  0  0  0  0
    2.4633    0.2112   42.8553 O   0  0  0  0  0  0  0  0  0  0  0  0
   15.3909   -0.8808   44.5119 C   0  0  0  0  0  0  0  0  0  0  0  0
   14.8684    0.3217   44.1996 C   0  0  0  0  0  0  0  0  0  0  0  0
   14.3830    0.6137   42.7600 C   0  0  0  0  0  0  0  0  0  0  0  0
   14.4189    1.2451   45.1574 C   0  0  0  0  0  0  0  0  0  0  0  0
   14.8214    0.9833   46.4854 C   0  0  0  0  0  0  0  0  0  0  0  0
   15.3918   -0.2476   46.7871 C   0  0  0  0  0  0  0  0  0  0  0  0
  1  2  2  0
  2  3  1  0
  2  4  1  0
  3  5  1  0
  4  6  2  0
  5  7  1  0
  4  8  1  0
  8  9  2  0
  8 10  1  0
  3 11  1  0
 10 11  2  0
  6 12  1  0
  7 13  2  0
 11 14  1  0
 13 15  1  0
  9 16  1  0
 17  7  1  6
 14 17  1  0
 14 18  2  0
 18 19  1  0
 15 20  2  0
 17 20  1  0
 12 21  1  0
 19 22  1  0
  9 23  1  0
 12 23  2  0
 21 24  1  0
 19 25  2  0
 20 25  1  0
 24 26  1  0
 24 27  2  0
 26 28  2  0
 28 29  1  0
 26 30  1  0
 30 31  1  0
 30 32  2  0
 29 33  1  0
 32 34  1  0
 33 35  2  3
 29 36  2  0
 32 36  1  0
 35 37  1  0
  5 38  1  1
 37 39  2  0
 39 40  1  0
 40 41  1  0
 40 42  2  0
 42 43  1  0
 37 44  1  0
 43 44  2  0
M  END
$$$$
O14757_Pocket2Mol_idx-in-all-generaetd-18
     RDKit          3D

 40 45  0  0  0  0  0  0  0  0999 V2000
    1.5482   -0.3111   41.9233 C   0  0  0  0  0  0  0  0  0  0  0  0
    2.7284    0.2018   42.1525 N   0  0  0  0  0  0  0  0  0  0  0  0
    3.7893   -0.3016   42.7005 C   0  0  0  0  0  0  0  0  0  0  0  0
    3.3781   -1.7350   43.0000 C   0  0  0  0  0  0  0  0  0  0  0  0
    2.0339   -1.9619   42.6217 C   0  0  0  0  0  0  0  0  0  0  0  0
    4.1166   -2.4997   43.8458 C   0  0  0  0  0  0  0  0  0  0  0  0
    1.1731   -3.0051   42.5773 C   0  0  0  0  0  0  0  0  0  0  0  0
    0.4701   -3.2344   41.4901 C   0  0  0  0  0  0  0  0  0  0  0  0
    5.3799   -1.7814   44.2691 C   0  0  0  0  0  0  0  0  0  0  0  0
    5.0159   -0.0180   43.1201 N   0  0  0  0  0  0  0  0  0  0  0  0
    5.7693   -0.6937   43.8418 C   0  0  0  0  0  0  0  0  0  0  0  0
    0.8078   -3.6166   43.6782 C   0  0  0  0  0  0  0  0  0  0  0  0
    0.0663   -4.7011   43.7415 N   0  0  0  0  0  0  0  0  0  0  0  0
    6.2223   -2.6843   45.1565 C   0  0  0  0  0  0  0  0  0  0  0  0
    6.9599   -0.2351   44.2608 N   0  0  0  0  0  0  0  0  0  0  0  0
    5.9065   -3.9037   45.7499 N   0  0  0  0  0  0  0  0  0  0  0  0
   -0.5459   -5.1185   42.5870 C   0  0  0  0  0  0  0  0  0  0  0  0
    5.7480   -4.0340   46.9810 C   0  0  0  0  0  0  0  0  0  0  0  0
    7.4448   -1.8511   45.4198 C   0  0  0  0  0  0  0  0  0  0  0  0
    7.7572   -0.7827   45.0128 C   0  0  0  0  0  0  0  0  0  0  0  0
    8.4076   -2.7217   46.4541 C   0  0  0  0  0  0  0  0  0  0  0  0
    9.3167   -2.0988   47.1049 N   0  0  0  0  0  0  0  0  0  0  0  0
   -0.4719   -4.3893   41.5406 C   0  0  0  0  0  0  0  0  0  0  0  0
    8.3667   -4.0284   46.5743 N   0  0  0  0  0  0  0  0  0  0  0  0
   10.1532   -2.5726   47.9567 C   0  0  0  0  0  0  0  0  0  0  0  0
   11.0726   -1.7892   48.6998 C   0  0  0  0  0  0  0  0  0  0  0  0
   10.4886   -0.9372   49.4584 C   0  0  0  0  0  0  0  0  0  0  0  0
   10.2139   -3.8947   48.0407 C   0  0  0  0  0  0  0  0  0  0  0  0
    6.6188   -4.9855   47.3969 N   0  0  0  0  0  0  0  0  0  0  0  0
    5.1401   -3.1961   47.7242 O   0  0  0  0  0  0  0  0  0  0  0  0
    9.2230   -4.6492   47.2923 C   0  0  0  0  0  0  0  0  0  0  0  0
   12.4306   -1.6942   48.6002 C   0  0  0  0  0  0  0  0  0  0  0  0
   13.1277   -2.5738   47.4657 C   0  0  0  0  0  0  0  0  0  0  0  0
   13.0390   -2.0905   46.2012 C   0  0  0  0  0  0  0  0  0  0  0  0
   12.0480   -1.9723   45.6449 O   0  0  0  0  0  0  0  0  0  0  0  0
   14.1045   -1.8603   45.5011 O   0  0  0  0  0  0  0  0  0  0  0  0
   13.1631   -1.1095   49.4791 C   0  0  0  0  0  0  0  0  0  0  0  0
   12.6036   -0.2624   50.4087 C   0  0  0  0  0  0  0  0  0  0  0  0
    9.0302   -0.8832   49.6441 O   0  0  0  0  0  0  0  0  0  0  0  0
   11.2127   -0.2183   50.4852 C   0  0  0  0  0  0  0  0  0  0  0  0
  1  2  1  0
  2  3  2  0
  3  4  1  0
  1  5  2  0
  4  5  1  0
  4  6  2  0
  5  7  1  0
  7  8  2  0
  6  9  1  0
  3 10  1  0
  9 11  2  0
 10 11  1  0
  7 12  1  0
 12 13  2  0
  9 14  1  0
 11 15  1  0
 14 16  1  0
 13 17  1  0
 16 18  1  0
 14 19  2  0
 15 20  2  0
 19 20  1  0
 19 21  1  0
 21 22  2  0
  8 23  1  0
 17 23  2  0
 21 24  1  0
 22 25  1  0
 25 26  1  0
 26 27  2  0
 25 28  2  0
 18 29  1  0
 18 30  2  0
 24 31  2  0
 28 31  1  0
 26 32  1  0
 32 33  1  0
 33 34  1  0
 34 35  1  0
 34 36  2  0
 32 37  2  0
 37 38  1  0
 27 39  1  0
 27 40  1  0
 38 40  2  0
M  END
$$$$
O14757_Pocket2Mol_idx-in-all-generaetd-19
     RDKit          3D

 34 40  0  0  0  0  0  0  0  0999 V2000
    4.8037   -0.1366   42.7100 N   0  0  0  0  0  0  0  0  0  0  0  0
    3.6577   -0.7759   42.7186 C   0  0  0  0  0  0  0  0  0  0  0  0
    3.6660   -1.8665   43.4760 C   0  0  0  0  0  0  0  0  0  0  0  0
    2.7271   -2.8718   43.6599 C   0  0  0  0  0  0  0  0  0  0  0  0
    2.4846   -0.2994   42.1254 N   0  0  0  0  0  0  0  0  0  0  0  0
    5.0524   -1.7697   43.9367 C   0  0  0  0  0  0  0  0  0  0  0  0
    1.4917   -2.9000   43.0914 C   0  0  0  0  0  0  0  0  0  0  0  0
    3.1274   -3.9503   44.5163 C   0  0  0  0  0  0  0  0  0  0  0  0
    1.0744   -1.9066   42.1491 C   0  0  2  0  0  0  0  0  0  0  0  0
    5.6624   -0.7003   43.4895 C   0  0  0  0  0  0  0  0  0  0  0  0
    5.5753   -2.5784   45.0324 C   0  0  0  0  0  0  0  0  0  0  0  0
    0.4030   -3.6297   43.4883 N   0  0  0  0  0  0  0  0  0  0  0  0
    1.5052   -0.8077   41.7519 C   0  0  0  0  0  0  0  0  0  0  0  0
   -0.5645   -3.4039   42.5585 N   0  0  0  0  0  0  0  0  0  0  0  0
    2.5059   -5.1012   44.7935 C   0  0  0  0  0  0  0  0  0  0  0  0
    4.4581   -3.8218   45.2947 C   0  0  0  0  0  0  0  0  0  0  0  0
   -0.3089   -2.3979   41.8128 C   0  0  0  0  0  0  0  0  0  0  0  0
    6.6435   -2.6577   45.6991 C   0  0  0  0  0  0  0  0  0  0  0  0
    7.0869   -3.7008   46.4717 C   0  0  0  0  0  0  0  0  0  0  0  0
    7.5912   -1.5296   45.5455 C   0  0  0  0  0  0  0  0  0  0  0  0
    8.7765   -1.4352   46.2248 C   0  0  0  0  0  0  0  0  0  0  0  0
    6.3069   -4.7944   46.6836 O   0  0  0  0  0  0  0  0  0  0  0  0
    4.8984   -4.5252   46.1302 C   0  0  0  0  0  0  0  0  0  0  0  0
    4.2122   -5.9932   46.2216 C   0  0  0  0  0  0  0  0  0  0  0  0
    3.0046   -6.0549   45.6421 C   0  0  0  0  0  0  0  0  0  0  0  0
    9.1783   -2.6075   47.0889 C   0  0  0  0  0  0  0  0  0  0  0  0
    8.3687   -3.7625   47.2781 C   0  0  0  0  0  0  0  0  0  0  0  0
   10.6110   -2.5273   47.8646 C   0  0  1  0  0  0  0  0  0  0  0  0
   11.6197   -2.4013   47.0402 N   0  0  0  0  0  0  0  0  0  0  0  0
   10.4964   -1.4258   48.7800 C   0  0  0  0  0  0  0  0  0  0  0  0
   11.6372   -1.6171   49.7492 O   0  0  0  0  0  0  0  0  0  0  0  0
   11.9631   -3.3989   46.1282 C   0  0  0  0  0  0  0  0  0  0  0  0
   13.0771   -2.9831   45.3093 N   0  0  0  0  0  0  0  0  0  0  0  0
   11.6885   -4.5975   46.1134 O   0  0  0  0  0  0  0  0  0  0  0  0
  1  2  2  0
  2  3  1  0
  3  4  2  0
  2  5  1  0
  3  6  1  0
  4  7  1  0
  4  8  1  0
  7  9  1  0
  1 10  1  0
  6 10  1  0
  6 11  2  0
  7 12  2  0
  5 13  2  0
  9 13  1  1
 12 14  1  0
  8 15  2  0
  8 16  1  0
 11 16  1  0
  9 17  1  0
 14 17  2  0
 11 18  1  0
 18 19  2  0
 18 20  1  0
 20 21  2  0
 19 22  1  0
 16 23  2  0
 22 23  1  0
 23 24  1  0
 15 25  1  0
 24 25  2  0
 21 26  1  0
 19 27  1  0
 26 27  2  0
 26 28  1  0
 28 29  1  0
 28 30  1  1
 30 31  1  0
 29 32  1  0
 32 33  1  0
 32 34  2  0
M  END
$$$$
O14757_Pocket2Mol_idx-in-all-generaetd-20
     RDKit          3D

 37 44  0  0  0  0  0  0  0  0999 V2000
    4.8173    0.2791   42.6993 N   0  0  0  0  0  0  0  0  0  0  0  0
    5.3297   -0.7477   43.3688 C   0  0  0  0  0  0  0  0  0  0  0  0
    3.4732   -0.2235   42.4530 C   0  0  0  0  0  0  0  0  0  0  0  0
    4.4984   -1.7876   43.6214 C   0  0  0  0  0  0  0  0  0  0  0  0
    3.3438   -1.5190   42.9379 C   0  0  0  0  0  0  0  0  0  0  0  0
    2.1381   -2.3401   42.8254 C   0  0  0  0  0  0  0  0  0  0  0  0
    2.3894    0.3572   41.9843 N   0  0  0  0  0  0  0  0  0  0  0  0
    4.9180   -3.0430   44.3829 C   0  0  0  0  0  0  0  0  0  0  0  0
    5.9444   -2.9314   45.3934 C   0  0  0  0  0  0  0  0  0  0  0  0
    4.2808   -4.1329   44.3252 C   0  0  0  0  0  0  0  0  0  0  0  0
    3.1588   -4.4221   43.4852 O   0  0  0  0  0  0  0  0  0  0  0  0
    4.5704   -5.2518   45.1995 C   0  0  0  0  0  0  0  0  0  0  0  0
    1.9853   -3.6792   43.3495 C   0  0  0  0  0  0  0  0  0  0  0  0
    0.9181   -4.3294   43.4638 C   0  0  0  0  0  0  0  0  0  0  0  0
    6.7403   -1.6226   45.5272 C   0  0  2  0  0  0  0  0  0  0  0  0
    0.9752   -1.7845   42.3366 C   0  0  0  0  0  0  0  0  0  0  0  0
    6.2516   -3.7287   46.2722 C   0  0  0  0  0  0  0  0  0  0  0  0
   -0.2404   -2.4179   42.2529 C   0  0  0  0  0  0  0  0  0  0  0  0
   -1.3835   -1.8904   41.6559 N   0  0  0  0  0  0  0  0  0  0  0  0
    3.8706   -6.4216   45.1394 O   0  0  0  0  0  0  0  0  0  0  0  0
    0.9456   -0.2789   41.7649 C   0  0  0  0  0  0  0  0  0  0  0  0
   -0.2678   -3.6969   42.7575 C   0  0  0  0  0  0  0  0  0  0  0  0
    6.3913   -0.7000   44.3807 N   0  0  0  0  0  0  0  0  0  0  0  0
    7.9391   -1.5867   46.0069 C   0  0  0  0  0  0  0  0  0  0  0  0
    7.1969   -3.5621   47.3287 C   0  0  0  0  0  0  0  0  0  0  0  0
    5.4958   -5.0534   46.2483 C   0  0  0  0  0  0  0  0  0  0  0  0
    7.4872   -4.5338   48.2539 O   0  0  0  0  0  0  0  0  0  0  0  0
    8.1281   -2.5304   47.0986 C   0  0  1  0  0  0  0  0  0  0  0  0
    8.7872   -0.5908   45.9403 O   0  0  0  0  0  0  0  0  0  0  0  0
    9.4892   -2.5717   47.7347 C   0  0  0  0  0  0  0  0  0  0  0  0
   10.5268   -2.9441   46.9599 C   0  0  0  0  0  0  0  0  0  0  0  0
   11.4734   -2.0640   46.5154 C   0  0  0  0  0  0  0  0  0  0  0  0
   10.5880   -4.1779   46.4457 C   0  0  0  0  0  0  0  0  0  0  0  0
   11.8137   -4.3609   45.5935 C   0  0  0  0  0  0  0  0  0  0  0  0
   11.4040   -0.6591   46.8779 O   0  0  0  0  0  0  0  0  0  0  0  0
   12.6844   -3.5208   45.3157 C   0  0  0  0  0  0  0  0  0  0  0  0
   12.5312   -2.2586   45.7444 C   0  0  0  0  0  0  0  0  0  0  0  0
  1  2  2  0
  1  3  1  0
  2  4  1  0
  3  5  1  0
  4  5  2  0
  5  6  1  0
  3  7  2  0
  4  8  1  0
  8  9  1  0
  8 10  2  0
 10 11  1  0
 10 12  1  0
  6 13  1  0
 11 13  1  0
 13 14  2  0
  9 15  1  0
  6 16  2  0
  9 17  2  0
 16 18  1  0
 18 19  1  0
 12 20  1  0
  7 21  1  0
 16 21  1  0
 14 22  1  0
 18 22  2  0
  2 23  1  0
 15 23  1  6
 15 24  1  0
 17 25  1  0
 12 26  2  0
 17 26  1  0
 25 27  2  0
 24 28  1  0
 25 28  1  0
 24 29  2  0
 28 30  1  6
 30 31  1  0
 31 32  2  0
 31 33  1  0
 33 34  2  0
 32 35  1  0
 34 36  1  0
 32 37  1  0
 36 37  2  0
M  END
$$$$
O14757_Pocket2Mol_idx-in-all-generaetd-21
     RDKit          3D

 45 53  0  0  0  0  0  0  0  0999 V2000
    1.5482   -0.3111   41.9233 C   0  0  0  0  0  0  0  0  0  0  0  0
    2.7284    0.2018   42.1525 N   0  0  0  0  0  0  0  0  0  0  0  0
    3.7893   -0.3016   42.7005 C   0  0  0  0  0  0  0  0  0  0  0  0
    3.3781   -1.7350   43.0000 C   0  0  0  0  0  0  0  0  0  0  0  0
    2.0339   -1.9619   42.6217 C   0  0  0  0  0  0  0  0  0  0  0  0
    5.0090    0.1219   42.9340 N   0  0  0  0  0  0  0  0  0  0  0  0
    4.2895   -2.4979   43.6707 C   0  0  0  0  0  0  0  0  0  0  0  0
    5.8391   -0.6675   43.6343 C   0  0  0  0  0  0  0  0  0  0  0  0
    6.9849   -0.2377   44.0028 N   0  0  0  0  0  0  0  0  0  0  0  0
    4.0426   -3.8794   44.0832 C   0  0  0  0  0  0  0  0  0  0  0  0
    7.6796   -0.8734   44.9326 C   0  0  0  0  0  0  0  0  0  0  0  0
    1.1064   -2.9576   42.4211 C   0  0  0  0  0  0  0  0  0  0  0  0
    5.5298   -1.9496   44.0315 C   0  0  0  0  0  0  0  0  0  0  0  0
    3.8954   -4.1817   45.4718 C   0  0  0  0  0  0  0  0  0  0  0  0
    0.6765   -3.5480   43.4006 C   0  0  1  0  0  0  0  0  0  0  0  0
    0.5804   -3.2191   41.1635 C   0  0  0  0  0  0  0  0  0  0  0  0
    2.8083   -4.8227   45.9203 N   0  0  0  0  0  0  0  0  0  0  0  0
   -0.1574   -4.5754   42.9329 N   0  0  0  0  0  0  0  0  0  0  0  0
    6.5271   -2.5531   44.9677 C   0  0  0  0  0  0  0  0  0  0  0  0
   -0.2272   -4.3703   41.5137 C   0  0  0  0  0  0  0  0  0  0  0  0
    7.5095   -2.0029   45.3993 C   0  0  0  0  0  0  0  0  0  0  0  0
    8.2550   -2.6982   46.3988 C   0  0  2  0  0  0  0  0  0  0  0  0
    8.8975   -0.3029   45.3267 O   0  0  0  0  0  0  0  0  0  0  0  0
    4.8299   -4.4637   46.4212 C   0  0  0  0  0  0  0  0  0  0  0  0
    4.2707   -4.9248   47.6295 N   0  0  0  0  0  0  0  0  0  0  0  0
    3.2045   -5.2092   47.1521 C   0  0  0  0  0  0  0  0  0  0  0  0
    1.4482   -4.6186   45.4134 C   0  0  2  0  0  0  0  0  0  0  0  0
    1.2398   -3.5043   44.6236 O   0  0  0  0  0  0  0  0  0  0  0  0
    6.3317   -3.9297   46.0870 C   0  0  2  0  0  0  0  0  0  0  0  0
    9.5296   -2.5449   46.9776 C   0  0  0  0  0  0  0  0  0  0  0  0
    9.7921   -1.7530   47.9018 O   0  0  0  0  0  0  0  0  0  0  0  0
    7.4454   -3.8344   46.8035 C   0  0  0  0  0  0  0  0  0  0  0  0
   10.5010   -3.0847   46.3190 O   0  0  0  0  0  0  0  0  0  0  0  0
    0.5569   -4.7693   46.5649 C   0  0  0  0  0  0  0  0  0  0  0  0
   11.7452   -2.8462   46.6234 C   0  0  0  0  0  0  0  0  0  0  0  0
   12.4344   -1.8951   45.7393 C   0  0  0  0  0  0  0  0  0  0  0  0
   12.4612   -3.5429   47.5581 C   0  0  0  0  0  0  0  0  0  0  0  0
   11.7737   -4.5216   48.4115 C   0  0  0  0  0  0  0  0  0  0  0  0
   13.7761   -1.6251   45.9829 C   0  0  0  0  0  0  0  0  0  0  0  0
   13.7909   -3.1787   47.7950 C   0  0  0  0  0  0  0  0  0  0  0  0
   11.6069   -4.2006   49.6507 O   0  0  0  0  0  0  0  0  0  0  0  0
   11.0942   -5.4364   47.9032 O   0  0  0  0  0  0  0  0  0  0  0  0
   14.5869   -3.8170   48.8504 O   0  0  0  0  0  0  0  0  0  0  0  0
   14.3918   -0.6381   45.1492 O   0  0  0  0  0  0  0  0  0  0  0  0
   14.5510   -2.2565   47.0420 C   0  0  0  0  0  0  0  0  0  0  0  0
  1  2  1  0
  2  3  2  0
  3  4  1  0
  1  5  2  0
  4  5  1  0
  3  6  1  0
  4  7  2  0
  6  8  1  0
  8  9  1  0
  7 10  1  0
  9 11  1  0
  5 12  1  0
  7 13  1  0
  8 13  2  0
 10 14  1  0
 12 15  1  0
 12 16  2  0
 14 17  1  0
 15 18  1  0
 13 19  1  0
 16 20  1  0
 18 20  2  0
 11 21  1  0
 19 21  2  0
 21 22  1  0
 11 23  2  0
 14 24  2  0
 24 25  1  0
 17 26  1  0
 25 26  2  0
 17 27  1  0
 15 28  1  6
 27 28  1  0
 19 29  1  0
 24 29  1  0
 22 30  1  6
 30 31  2  0
 22 32  1  0
 29 32  1  1
 30 33  1  0
 27 34  1  1
 33 35  1  0
 35 36  2  0
 35 37  1  0
 37 38  1  0
 36 39  1  0
 37 40  2  0
 38 41  2  0
 38 42  1  0
 40 43  1  0
 39 44  1  0
 39 45  2  0
 40 45  1  0
M  END
$$$$
O14757_Pocket2Mol_idx-in-all-generaetd-22
     RDKit          3D

 50 58  0  0  0  0  0  0  0  0999 V2000
    5.3420    0.2589   42.8836 O   0  0  0  0  0  0  0  0  0  0  0  0
    5.1627   -0.7554   43.4753 C   0  0  0  0  0  0  0  0  0  0  0  0
    4.0509   -1.4657   43.4177 N   0  0  0  0  0  0  0  0  0  0  0  0
    5.9969   -1.2317   44.6840 C   0  0  0  0  0  0  0  0  0  0  0  0
    2.9618   -1.1021   42.5918 C   0  0  1  0  0  0  0  0  0  0  0  0
    7.3392   -0.8596   44.8412 C   0  0  0  0  0  0  0  0  0  0  0  0
    1.9754   -2.0820   42.2741 C   0  0  0  0  0  0  0  0  0  0  0  0
    5.5910   -2.4282   45.3439 C   0  0  0  0  0  0  0  0  0  0  0  0
    6.5874   -2.9636   46.1581 C   0  0  0  0  0  0  0  0  0  0  0  0
    4.2763   -3.0680   45.0493 N   0  0  0  0  0  0  0  0  0  0  0  0
    3.6188   -2.5886   44.2024 C   0  0  0  0  0  0  0  0  0  0  0  0
    8.1921   -1.4071   45.7505 C   0  0  0  0  0  0  0  0  0  0  0  0
    1.0154   -1.8839   41.2980 C   0  0  0  0  0  0  0  0  0  0  0  0
    2.5720   -3.3564   43.9063 C   0  0  0  0  0  0  0  0  0  0  0  0
    0.2502   -2.8976   41.0751 C   0  0  0  0  0  0  0  0  0  0  0  0
    6.1761   -4.1775   47.0209 C   0  0  0  0  0  0  0  0  0  0  0  0
    1.7266   -3.1047   43.0115 C   0  0  2  0  0  0  0  0  0  0  0  0
    2.3696   -4.5367   44.7536 N   0  0  0  0  0  0  0  0  0  0  0  0
    1.2264   -5.2346   44.4693 C   0  0  0  0  0  0  0  0  0  0  0  0
    0.7187   -3.8955   42.5465 C   0  0  0  0  0  0  0  0  0  0  0  0
    9.4576   -0.8949   46.0327 N   0  0  0  0  0  0  0  0  0  0  0  0
    0.8625   -6.3901   45.2462 C   0  0  0  0  0  0  0  0  0  0  0  0
    7.6467   -2.5139   46.4892 C   0  0  0  0  0  0  0  0  0  0  0  0
   10.4908   -1.5336   45.8242 C   0  0  0  0  0  0  0  0  0  0  0  0
    0.3057   -4.9299   43.2909 C   0  0  0  0  0  0  0  0  0  0  0  0
   11.5916   -1.4291   46.7436 C   0  0  0  0  0  0  0  0  0  0  0  0
   10.5566   -2.3672   44.8649 O   0  0  0  0  0  0  0  0  0  0  0  0
   12.8421   -1.9355   46.2823 C   0  0  0  0  0  0  0  0  0  0  0  0
   13.4833   -2.8582   46.9841 C   0  0  0  0  0  0  0  0  0  0  0  0
   11.4002   -1.1447   48.0540 C   0  0  0  0  0  0  0  0  0  0  0  0
   10.2867   -0.4569   48.4999 O   0  0  0  0  0  0  0  0  0  0  0  0
   12.3327   -1.4798   48.9564 C   0  0  1  0  0  0  0  0  0  0  0  0
   14.7901   -3.3162   46.6439 C   0  0  0  0  0  0  0  0  0  0  0  0
   12.1651   -1.3050   50.3239 O   0  0  0  0  0  0  0  0  0  0  0  0
   15.6765   -2.5740   46.0979 C   0  0  0  0  0  0  0  0  0  0  0  0
    2.4608    0.2106   42.8512 C   0  0  0  0  0  0  0  0  0  0  0  0
   15.5213   -1.2590   45.7606 C   0  0  2  0  0  0  0  0  0  0  0  0
   14.5349   -0.8899   44.8574 C   0  0  0  0  0  0  0  0  0  0  0  0
   12.9775   -3.3460   48.2127 C   0  0  0  0  0  0  0  0  0  0  0  0
   14.7129   -0.1943   43.8652 C   0  0  0  0  0  0  0  0  0  0  0  0
   13.1163   -1.3789   45.0490 O   0  0  0  0  0  0  0  0  0  0  0  0
   16.0442    0.3600   43.7609 C   0  0  0  0  0  0  0  0  0  0  0  0
   16.1715    1.3518   42.5787 C   0  0  0  0  0  0  0  0  0  0  0  0
   12.7697   -2.7291   49.2346 C   0  0  0  0  0  0  0  0  0  0  0  0
   15.1549    1.8289   42.1413 C   0  0  0  0  0  0  0  0  0  0  0  0
   13.8305    1.3655   42.6305 C   0  0  0  0  0  0  0  0  0  0  0  0
   13.6206    0.3754   43.3258 C   0  0  0  0  0  0  0  0  0  0  0  0
   17.1272   -0.0837   44.3505 C   0  0  0  0  0  0  0  0  0  0  0  0
   16.9604   -1.0367   45.3519 C   0  0  0  0  0  0  0  0  0  0  0  0
   17.7565   -1.6354   45.9702 O   0  0  0  0  0  0  0  0  0  0  0  0
  1  2  2  0
  2  3  1  0
  2  4  1  0
  3  5  1  0
  4  6  2  0
  5  7  1  0
  4  8  1  0
  8  9  2  0
  8 10  1  0
  3 11  1  0
 10 11  2  0
  6 12  1  0
  7 13  2  0
 11 14  1  0
 13 15  1  0
  9 16  1  0
 17  7  1  6
 14 17  1  0
 14 18  2  0
 18 19  1  0
 15 20  2  0
 17 20  1  0
 12 21  1  0
 19 22  1  0
  9 23  1  0
 12 23  2  0
 21 24  1  0
 19 25  2  0
 20 25  1  0
 24 26  1  0
 24 27  2  0
 26 28  1  0
 28 29  2  0
 26 30  2  0
 30 31  1  0
 30 32  1  0
 29 33  1  0
 32 34  1  1
 33 35  2  0
  5 36  1  1
 37 35  1  6
 37 38  1  0
 29 39  1  0
 38 40  2  0
 28 41  1  0
 38 41  1  0
 40 42  1  0
 42 43  1  0
 32 44  1  0
 39 44  1  0
 43 45  2  0
 45 46  1  0
 40 47  1  0
 46 47  2  0
 42 48  2  0
 37 49  1  0
 48 49  1  0
 49 50  2  0
M  END
$$$$
O14757_Pocket2Mol_idx-in-all-generaetd-23
     RDKit          3D

 38 45  0  0  0  0  0  0  0  0999 V2000
    1.5482   -0.3111   41.9233 C   0  0  0  0  0  0  0  0  0  0  0  0
    2.7284    0.2018   42.1525 N   0  0  0  0  0  0  0  0  0  0  0  0
    3.7893   -0.3016   42.7005 C   0  0  0  0  0  0  0  0  0  0  0  0
    3.3781   -1.7350   43.0000 C   0  0  0  0  0  0  0  0  0  0  0  0
    2.0339   -1.9619   42.6217 C   0  0  0  0  0  0  0  0  0  0  0  0
    5.0090    0.1219   42.9340 N   0  0  0  0  0  0  0  0  0  0  0  0
    4.2895   -2.4979   43.6707 C   0  0  0  0  0  0  0  0  0  0  0  0
    5.8391   -0.6675   43.6343 C   0  0  0  0  0  0  0  0  0  0  0  0
    6.9849   -0.2377   44.0028 N   0  0  0  0  0  0  0  0  0  0  0  0
    4.0426   -3.8794   44.0832 C   0  0  0  0  0  0  0  0  0  0  0  0
    7.6796   -0.8734   44.9326 C   0  0  0  0  0  0  0  0  0  0  0  0
    1.1064   -2.9576   42.4211 C   0  0  0  0  0  0  0  0  0  0  0  0
    5.5298   -1.9496   44.0315 C   0  0  0  0  0  0  0  0  0  0  0  0
    3.8954   -4.1817   45.4718 C   0  0  0  0  0  0  0  0  0  0  0  0
    0.6765   -3.5480   43.4006 C   0  0  1  0  0  0  0  0  0  0  0  0
    0.5804   -3.2191   41.1635 C   0  0  0  0  0  0  0  0  0  0  0  0
    2.8083   -4.8227   45.9203 N   0  0  0  0  0  0  0  0  0  0  0  0
   -0.1574   -4.5754   42.9329 N   0  0  0  0  0  0  0  0  0  0  0  0
    6.5271   -2.5531   44.9677 C   0  0  0  0  0  0  0  0  0  0  0  0
   -0.2272   -4.3703   41.5137 C   0  0  0  0  0  0  0  0  0  0  0  0
    7.5095   -2.0029   45.3993 C   0  0  0  0  0  0  0  0  0  0  0  0
    8.2550   -2.6982   46.3988 C   0  0  0  0  0  0  0  0  0  0  0  0
    8.8975   -0.3029   45.3267 O   0  0  0  0  0  0  0  0  0  0  0  0
    4.8299   -4.4637   46.4212 C   0  0  0  0  0  0  0  0  0  0  0  0
    4.2707   -4.9248   47.6295 N   0  0  0  0  0  0  0  0  0  0  0  0
    3.2045   -5.2092   47.1521 C   0  0  0  0  0  0  0  0  0  0  0  0
    1.4482   -4.6186   45.4134 C   0  0  1  0  0  0  0  0  0  0  0  0
    1.2398   -3.5043   44.6236 O   0  0  0  0  0  0  0  0  0  0  0  0
    6.3317   -3.9297   46.0870 C   0  0  2  0  0  0  0  0  0  0  0  0
    9.5296   -2.5449   46.9776 C   0  0  0  0  0  0  0  0  0  0  0  0
    9.7921   -1.7530   47.9018 O   0  0  0  0  0  0  0  0  0  0  0  0
    7.3972   -3.8130   46.7939 C   0  0  0  0  0  0  0  0  0  0  0  0
    1.2392   -5.7793   44.5610 C   0  0  0  0  0  0  0  0  0  0  0  0
   10.4934   -3.0755   46.3117 O   0  0  0  0  0  0  0  0  0  0  0  0
   10.9462   -4.1456   46.8830 C   0  0  0  0  0  0  0  0  0  0  0  0
   11.2322   -5.2417   45.9007 C   0  0  0  0  0  0  0  0  0  0  0  0
   11.1634   -6.4466   46.3235 O   0  0  0  0  0  0  0  0  0  0  0  0
   11.2594   -4.9563   44.6980 O   0  0  0  0  0  0  0  0  0  0  0  0
  1  2  1  0
  2  3  2  0
  3  4  1  0
  1  5  2  0
  4  5  1  0
  3  6  1  0
  4  7  2  0
  6  8  1  0
  8  9  1  0
  7 10  1  0
  9 11  1  0
  5 12  1  0
  7 13  1  0
  8 13  2  0
 10 14  1  0
 12 15  1  0
 12 16  2  0
 14 17  1  0
 15 18  1  0
 13 19  1  0
 16 20  1  0
 18 20  2  0
 11 21  1  0
 19 21  2  0
 21 22  1  0
 11 23  2  0
 14 24  2  0
 24 25  1  0
 17 26  1  0
 25 26  2  0
 17 27  1  0
 15 28  1  6
 27 28  1  0
 19 29  1  0
 24 29  1  0
 22 30  1  0
 30 31  2  0
 22 32  2  0
 29 32  1  1
 27 33  1  6
 30 34  1  0
 34 35  1  0
 35 36  1  0
 36 37  2  0
 36 38  1  0
M  END
$$$$
O14757_Pocket2Mol_idx-in-all-generaetd-24
     RDKit          3D

 41 49  0  0  0  0  0  0  0  0999 V2000
    1.5482   -0.3111   41.9233 C   0  0  0  0  0  0  0  0  0  0  0  0
    2.7284    0.2018   42.1525 N   0  0  0  0  0  0  0  0  0  0  0  0
    3.7893   -0.3016   42.7005 C   0  0  0  0  0  0  0  0  0  0  0  0
    3.3781   -1.7350   43.0000 C   0  0  0  0  0  0  0  0  0  0  0  0
    2.0339   -1.9619   42.6217 C   0  0  0  0  0  0  0  0  0  0  0  0
    5.0090    0.1219   42.9340 N   0  0  0  0  0  0  0  0  0  0  0  0
    4.2895   -2.4979   43.6707 C   0  0  0  0  0  0  0  0  0  0  0  0
    5.8391   -0.6675   43.6343 C   0  0  0  0  0  0  0  0  0  0  0  0
    6.9849   -0.2377   44.0028 N   0  0  0  0  0  0  0  0  0  0  0  0
    4.0426   -3.8794   44.0832 C   0  0  0  0  0  0  0  0  0  0  0  0
    7.6796   -0.8734   44.9326 C   0  0  0  0  0  0  0  0  0  0  0  0
    1.1064   -2.9576   42.4211 C   0  0  0  0  0  0  0  0  0  0  0  0
    5.5298   -1.9496   44.0315 C   0  0  0  0  0  0  0  0  0  0  0  0
    3.8954   -4.1817   45.4718 C   0  0  0  0  0  0  0  0  0  0  0  0
    0.6765   -3.5480   43.4006 C   0  0  1  0  0  0  0  0  0  0  0  0
    0.5804   -3.2191   41.1635 C   0  0  0  0  0  0  0  0  0  0  0  0
    2.8083   -4.8227   45.9203 N   0  0  0  0  0  0  0  0  0  0  0  0
   -0.1574   -4.5754   42.9329 N   0  0  0  0  0  0  0  0  0  0  0  0
    6.5271   -2.5531   44.9677 C   0  0  0  0  0  0  0  0  0  0  0  0
   -0.2272   -4.3703   41.5137 C   0  0  0  0  0  0  0  0  0  0  0  0
    7.5095   -2.0029   45.3993 C   0  0  0  0  0  0  0  0  0  0  0  0
    8.2550   -2.6982   46.3988 C   0  0  0  0  0  0  0  0  0  0  0  0
    8.8975   -0.3029   45.3267 O   0  0  0  0  0  0  0  0  0  0  0  0
    4.8299   -4.4637   46.4212 C   0  0  0  0  0  0  0  0  0  0  0  0
    4.2707   -4.9248   47.6295 N   0  0  0  0  0  0  0  0  0  0  0  0
    3.2045   -5.2092   47.1521 C   0  0  0  0  0  0  0  0  0  0  0  0
    1.4482   -4.6186   45.4134 C   0  0  1  0  0  0  0  0  0  0  0  0
    1.2398   -3.5043   44.6236 O   0  0  0  0  0  0  0  0  0  0  0  0
    7.8521   -3.9584   46.8773 C   0  0  0  0  0  0  0  0  0  0  0  0
    8.4079   -4.7553   47.7407 C   0  0  0  0  0  0  0  0  0  0  0  0
    5.9516   -3.8110   45.9146 C   0  0  0  0  0  0  0  0  0  0  0  0
    6.6436   -4.3892   46.6649 C   0  0  0  0  0  0  0  0  0  0  0  0
    9.5111   -5.5246   47.2994 O   0  0  0  0  0  0  0  0  0  0  0  0
   10.6238   -5.0197   46.8534 C   0  0  0  0  0  0  0  0  0  0  0  0
   11.5866   -4.7361   47.6189 C   0  0  0  0  0  0  0  0  0  0  0  0
    1.2153   -5.7944   44.5753 C   0  0  0  0  0  0  0  0  0  0  0  0
   10.7023   -4.6532   45.4361 C   0  0  0  0  0  0  0  0  0  0  0  0
   12.8078   -4.2193   47.0828 C   0  0  0  0  0  0  0  0  0  0  0  0
   12.9577   -3.9642   45.7608 C   0  0  0  0  0  0  0  0  0  0  0  0
   11.8523   -4.1947   44.9497 C   0  0  0  0  0  0  0  0  0  0  0  0
   14.1265   -3.3917   45.2954 F   0  0  0  0  0  0  0  0  0  0  0  0
  1  2  1  0
  2  3  2  0
  3  4  1  0
  1  5  2  0
  4  5  1  0
  3  6  1  0
  4  7  2  0
  6  8  1  0
  8  9  1  0
  7 10  1  0
  9 11  1  0
  5 12  1  0
  7 13  1  0
  8 13  2  0
 10 14  1  0
 12 15  1  0
 12 16  2  0
 14 17  1  0
 15 18  1  0
 13 19  1  0
 16 20  1  0
 18 20  2  0
 11 21  1  0
 19 21  2  0
 21 22  1  0
 11 23  2  0
 14 24  2  0
 24 25  1  0
 17 26  1  0
 25 26  2  0
 17 27  1  0
 15 28  1  6
 27 28  1  0
 22 29  2  0
 29 30  1  0
 19 31  1  0
 24 31  1  0
 29 32  1  0
 31 32  2  0
 30 33  1  0
 33 34  1  0
 34 35  2  0
 27 36  1  6
 34 37  1  0
 35 38  1  0
 38 39  2  0
 37 40  2  0
 39 40  1  0
 39 41  1  0
M  END
$$$$
O14757_Pocket2Mol_idx-in-all-generaetd-25
     RDKit          3D

 39 46  0  0  0  0  0  0  0  0999 V2000
    1.5482   -0.3111   41.9233 C   0  0  0  0  0  0  0  0  0  0  0  0
    2.7284    0.2018   42.1525 N   0  0  0  0  0  0  0  0  0  0  0  0
    3.7893   -0.3016   42.7005 C   0  0  0  0  0  0  0  0  0  0  0  0
    3.3781   -1.7350   43.0000 C   0  0  0  0  0  0  0  0  0  0  0  0
    2.0339   -1.9619   42.6217 C   0  0  0  0  0  0  0  0  0  0  0  0
    4.1166   -2.4997   43.8458 C   0  0  0  0  0  0  0  0  0  0  0  0
    1.1731   -3.0051   42.5773 C   0  0  0  0  0  0  0  0  0  0  0  0
    0.4701   -3.2344   41.4901 C   0  0  0  0  0  0  0  0  0  0  0  0
    5.3799   -1.7814   44.2691 C   0  0  0  0  0  0  0  0  0  0  0  0
    5.0159   -0.0180   43.1201 N   0  0  0  0  0  0  0  0  0  0  0  0
    5.7693   -0.6937   43.8418 C   0  0  0  0  0  0  0  0  0  0  0  0
    0.8078   -3.6166   43.6782 C   0  0  0  0  0  0  0  0  0  0  0  0
    0.0663   -4.7011   43.7415 N   0  0  0  0  0  0  0  0  0  0  0  0
    6.2223   -2.6843   45.1565 C   0  0  0  0  0  0  0  0  0  0  0  0
    6.9599   -0.2351   44.2608 N   0  0  0  0  0  0  0  0  0  0  0  0
    5.9065   -3.9037   45.7499 N   0  0  0  0  0  0  0  0  0  0  0  0
   -0.5459   -5.1185   42.5870 C   0  0  0  0  0  0  0  0  0  0  0  0
    5.7480   -4.0340   46.9810 C   0  0  0  0  0  0  0  0  0  0  0  0
    7.4448   -1.8511   45.4198 C   0  0  0  0  0  0  0  0  0  0  0  0
    7.7572   -0.7827   45.0128 C   0  0  0  0  0  0  0  0  0  0  0  0
    8.4076   -2.7217   46.4541 C   0  0  0  0  0  0  0  0  0  0  0  0
    9.3167   -2.0988   47.1049 N   0  0  0  0  0  0  0  0  0  0  0  0
   -0.4719   -4.3893   41.5406 C   0  0  0  0  0  0  0  0  0  0  0  0
    8.3667   -4.0284   46.5743 N   0  0  0  0  0  0  0  0  0  0  0  0
    9.5309   -4.3147   47.3094 C   0  0  0  0  0  0  0  0  0  0  0  0
    5.3113   -3.3789   47.8005 O   0  0  0  0  0  0  0  0  0  0  0  0
    9.9022   -5.6301   47.7684 C   0  0  0  0  0  0  0  0  0  0  0  0
    5.4470   -5.5868   47.2096 C   0  0  0  0  0  0  0  0  0  0  0  0
   11.2254   -5.8679   48.0402 C   0  0  0  0  0  0  0  0  0  0  0  0
    8.9736   -6.6532   47.8548 C   0  0  0  0  0  0  0  0  0  0  0  0
   10.0616   -3.0670   47.6360 C   0  0  0  0  0  0  0  0  0  0  0  0
    7.5566   -6.3564   47.5477 N   0  0  0  0  0  0  0  0  0  0  0  0
    6.4157   -6.1721   48.0913 C   0  0  0  0  0  0  0  0  0  0  0  0
   12.3275   -4.8510   47.9324 C   0  0  0  0  0  0  0  0  0  0  0  0
    9.3494   -7.8378   48.4266 C   0  0  0  0  0  0  0  0  0  0  0  0
   11.2226   -2.8389   48.5368 C   0  0  0  0  0  0  0  0  0  0  0  0
   12.0874   -3.8095   48.8377 N   0  0  0  0  0  0  0  0  0  0  0  0
   10.6388   -8.1137   48.7109 C   0  0  0  0  0  0  0  0  0  0  0  0
   11.6927   -7.1277   48.5599 C   0  0  0  0  0  0  0  0  0  0  0  0
  1  2  1  0
  2  3  2  0
  3  4  1  0
  1  5  2  0
  4  5  1  0
  4  6  2  0
  5  7  1  0
  7  8  2  0
  6  9  1  0
  3 10  1  0
  9 11  2  0
 10 11  1  0
  7 12  1  0
 12 13  2  0
  9 14  1  0
 11 15  1  0
 14 16  1  0
 13 17  1  0
 16 18  1  0
 14 19  2  0
 15 20  2  0
 19 20  1  0
 19 21  1  0
 21 22  2  0
  8 23  1  0
 17 23  2  0
 21 24  1  0
 24 25  1  0
 18 26  2  0
 25 27  1  0
 18 28  1  0
 27 29  2  0
 27 30  1  0
 22 31  1  0
 25 31  2  0
 30 32  1  0
 28 33  1  0
 32 33  1  0
 29 34  1  0
 30 35  2  0
 31 36  1  0
 34 37  1  0
 36 37  1  0
 35 38  1  0
 29 39  1  0
 38 39  2  0
M  END
$$$$
O14757_Pocket2Mol_idx-in-all-generaetd-26
     RDKit          3D

 33 39  0  0  0  0  0  0  0  0999 V2000
    4.5156    0.0550   42.9895 N   0  0  0  0  0  0  0  0  0  0  0  0
    5.0618   -0.8645   43.5295 C   0  0  0  0  0  0  0  0  0  0  0  0
    4.4350   -2.0604   43.7783 C   0  0  0  0  0  0  0  0  0  0  0  0
    4.9987   -3.0994   44.5839 C   0  0  0  0  0  0  0  0  0  0  0  0
    3.2714   -1.8664   43.0632 C   0  0  0  0  0  0  0  0  0  0  0  0
    6.4064   -0.5942   44.3204 N   0  0  0  0  0  0  0  0  0  0  0  0
    4.3422   -4.3256   44.7203 C   0  0  0  0  0  0  0  0  0  0  0  0
    2.1845   -2.6668   42.8270 N   0  0  0  0  0  0  0  0  0  0  0  0
    3.3305   -0.5395   42.5465 N   0  0  0  0  0  0  0  0  0  0  0  0
    1.9502   -3.8972   43.4076 C   0  0  0  0  0  0  0  0  0  0  0  0
    2.7156   -4.1184   44.6954 N   0  0  0  0  0  0  0  0  0  0  0  0
    6.8581   -1.5862   45.1101 C   0  0  0  0  0  0  0  0  0  0  0  0
    6.1801   -2.8430   45.2383 C   0  0  0  0  0  0  0  0  0  0  0  0
    2.1454   -5.1901   45.5771 C   0  0  0  0  0  0  0  0  0  0  0  0
    8.0137   -1.3946   45.8526 C   0  0  0  0  0  0  0  0  0  0  0  0
    0.9733   -4.5725   43.2066 O   0  0  0  0  0  0  0  0  0  0  0  0
    2.2437    0.0035   41.8733 C   0  0  0  0  0  0  0  0  0  0  0  0
    1.3210   -2.2077   41.7009 C   0  0  0  0  0  0  0  0  0  0  0  0
    8.6047   -2.2876   46.6923 C   0  0  0  0  0  0  0  0  0  0  0  0
    7.9141   -3.5157   46.8869 C   0  0  0  0  0  0  0  0  0  0  0  0
    1.0501   -0.8658   41.6612 C   0  0  0  0  0  0  0  0  0  0  0  0
    6.7278   -3.7718   46.2525 C   0  0  0  0  0  0  0  0  0  0  0  0
    9.8280   -2.0492   47.3361 C   0  0  0  0  0  0  0  0  0  0  0  0
    9.8262   -1.5735   48.5432 C   0  0  0  0  0  0  0  0  0  0  0  0
   11.0745   -2.0905   46.6735 C   0  0  0  0  0  0  0  0  0  0  0  0
    8.5798   -1.4294   49.3788 F   0  0  0  0  0  0  0  0  0  0  0  0
   10.9035   -1.3906   49.1995 C   0  0  0  0  0  0  0  0  0  0  0  0
   11.1251   -2.4931   45.1635 C   0  0  0  0  0  0  0  0  0  0  0  0
   12.2246   -1.5164   48.5319 C   0  0  0  0  0  0  0  0  0  0  0  0
   12.2647   -1.8243   47.2935 C   0  0  0  0  0  0  0  0  0  0  0  0
   13.5719   -1.9971   46.5273 C   0  0  0  0  0  0  0  0  0  0  0  0
   12.4102   -2.3754   44.5917 C   0  0  0  0  0  0  0  0  0  0  0  0
   13.5349   -2.2000   45.2664 C   0  0  0  0  0  0  0  0  0  0  0  0
  1  2  2  0
  2  3  1  0
  3  4  1  0
  3  5  2  0
  2  6  1  0
  4  7  1  0
  5  8  1  0
  1  9  1  0
  5  9  1  0
  8 10  1  0
  7 11  1  0
 10 11  1  0
  6 12  2  0
  4 13  2  0
 12 13  1  0
 11 14  1  0
 12 15  1  0
 10 16  2  0
  9 17  1  0
  8 18  1  0
 15 19  2  0
 19 20  1  0
 17 21  1  0
 18 21  1  0
 13 22  1  0
 20 22  2  0
 19 23  1  0
 23 24  2  0
 23 25  1  0
 24 26  1  0
 24 27  1  0
 25 28  2  0
 27 29  2  0
 25 30  1  0
 29 30  1  0
 30 31  2  0
 28 32  1  0
 31 33  1  0
 32 33  2  0
M  END
$$$$
O14757_Pocket2Mol_idx-in-all-generaetd-27
     RDKit          3D

 47 54  0  0  0  0  0  0  0  0999 V2000
    5.3420    0.2589   42.8836 O   0  0  0  0  0  0  0  0  0  0  0  0
    5.1627   -0.7554   43.4753 C   0  0  0  0  0  0  0  0  0  0  0  0
    4.0509   -1.4657   43.4177 N   0  0  0  0  0  0  0  0  0  0  0  0
    5.9969   -1.2317   44.6840 C   0  0  0  0  0  0  0  0  0  0  0  0
    2.9618   -1.1021   42.5918 C   0  0  1  0  0  0  0  0  0  0  0  0
    7.3392   -0.8596   44.8412 C   0  0  0  0  0  0  0  0  0  0  0  0
    1.9754   -2.0820   42.2741 C   0  0  0  0  0  0  0  0  0  0  0  0
    5.5910   -2.4282   45.3439 C   0  0  0  0  0  0  0  0  0  0  0  0
    6.5874   -2.9636   46.1581 C   0  0  0  0  0  0  0  0  0  0  0  0
    4.2763   -3.0680   45.0493 N   0  0  0  0  0  0  0  0  0  0  0  0
    3.6188   -2.5886   44.2024 C   0  0  0  0  0  0  0  0  0  0  0  0
    8.1921   -1.4071   45.7505 C   0  0  0  0  0  0  0  0  0  0  0  0
    1.0154   -1.8839   41.2980 C   0  0  0  0  0  0  0  0  0  0  0  0
    2.5720   -3.3564   43.9063 C   0  0  0  0  0  0  0  0  0  0  0  0
    0.2502   -2.8976   41.0751 C   0  0  0  0  0  0  0  0  0  0  0  0
    6.1761   -4.1775   47.0209 C   0  0  0  0  0  0  0  0  0  0  0  0
    1.7266   -3.1047   43.0115 C   0  0  2  0  0  0  0  0  0  0  0  0
    2.3696   -4.5367   44.7536 N   0  0  0  0  0  0  0  0  0  0  0  0
    1.2264   -5.2346   44.4693 C   0  0  0  0  0  0  0  0  0  0  0  0
    0.7187   -3.8955   42.5465 C   0  0  0  0  0  0  0  0  0  0  0  0
    9.4576   -0.8949   46.0327 N   0  0  0  0  0  0  0  0  0  0  0  0
    0.8625   -6.3901   45.2462 C   0  0  0  0  0  0  0  0  0  0  0  0
    7.6467   -2.5139   46.4892 C   0  0  0  0  0  0  0  0  0  0  0  0
   10.4908   -1.5336   45.8242 C   0  0  0  0  0  0  0  0  0  0  0  0
    0.3057   -4.9299   43.2909 C   0  0  0  0  0  0  0  0  0  0  0  0
   11.5916   -1.4291   46.7436 C   0  0  0  0  0  0  0  0  0  0  0  0
   10.5566   -2.3672   44.8649 O   0  0  0  0  0  0  0  0  0  0  0  0
   12.8421   -1.9355   46.2823 C   0  0  0  0  0  0  0  0  0  0  0  0
   13.4833   -2.8582   46.9841 C   0  0  0  0  0  0  0  0  0  0  0  0
   11.4002   -1.1447   48.0540 C   0  0  0  0  0  0  0  0  0  0  0  0
   10.2867   -0.4569   48.4999 O   0  0  0  0  0  0  0  0  0  0  0  0
   12.3327   -1.4798   48.9564 C   0  0  0  0  0  0  0  0  0  0  0  0
   14.7901   -3.3162   46.6439 C   0  0  0  0  0  0  0  0  0  0  0  0
   12.1651   -1.3050   50.3239 O   0  0  0  0  0  0  0  0  0  0  0  0
   15.6765   -2.5740   46.0979 C   0  0  0  0  0  0  0  0  0  0  0  0
   13.4417   -2.4710   48.5369 C   0  0  0  0  0  0  0  0  0  0  0  0
   15.5553   -1.2853   45.8338 C   0  0  0  0  0  0  0  0  0  0  0  0
    2.4633    0.2112   42.8553 O   0  0  0  0  0  0  0  0  0  0  0  0
   15.3909   -0.8808   44.5119 C   0  0  0  0  0  0  0  0  0  0  0  0
   14.8684    0.3217   44.1996 C   0  0  0  0  0  0  0  0  0  0  0  0
   14.3830    0.6137   42.7600 C   0  0  0  0  0  0  0  0  0  0  0  0
   14.7134    1.3866   45.0637 C   0  0  0  0  0  0  0  0  0  0  0  0
   14.0665    2.6619   44.8118 C   0  0  0  0  0  0  0  0  0  0  0  0
   13.7989    2.8281   43.3634 C   0  0  0  0  0  0  0  0  0  0  0  0
   14.4301    2.0163   42.4033 C   0  0  0  0  0  0  0  0  0  0  0  0
   15.2206    1.0487   46.3956 C   0  0  0  0  0  0  0  0  0  0  0  0
   15.6739   -0.2050   46.7509 C   0  0  0  0  0  0  0  0  0  0  0  0
  1  2  2  0
  2  3  1  0
  2  4  1  0
  3  5  1  0
  4  6  2  0
  5  7  1  0
  4  8  1  0
  8  9  2  0
  8 10  1  0
  3 11  1  0
 10 11  2  0
  6 12  1  0
  7 13  2  0
 11 14  1  0
 13 15  1  0
  9 16  1  0
 17  7  1  6
 14 17  1  0
 14 18  2  0
 18 19  1  0
 15 20  2  0
 17 20  1  0
 12 21  1  0
 19 22  1  0
  9 23  1  0
 12 23  2  0
 21 24  1  0
 19 25  2  0
 20 25  1  0
 24 26  1  0
 24 27  2  0
 26 28  2  0
 28 29  1  0
 26 30  1  0
 30 31  1  0
 30 32  2  0
 29 33  1  0
 32 34  1  0
 33 35  2  3
 29 36  2  0
 32 36  1  0
 35 37  1  0
  5 38  1  1
 37 39  2  0
 39 40  1  0
 40 41  1  0
 40 42  2  0
 42 43  1  0
 43 44  1  0
 41 45  1  0
 44 45  1  0
 42 46  1  0
 37 47  1  0
 46 47  2  0
M  END
$$$$
O14757_Pocket2Mol_idx-in-all-generaetd-28
     RDKit          3D

 45 51  0  0  0  0  0  0  0  0999 V2000
    5.3420    0.2589   42.8836 O   0  0  0  0  0  0  0  0  0  0  0  0
    5.1627   -0.7554   43.4753 C   0  0  0  0  0  0  0  0  0  0  0  0
    4.0509   -1.4657   43.4177 N   0  0  0  0  0  0  0  0  0  0  0  0
    5.9969   -1.2317   44.6840 C   0  0  0  0  0  0  0  0  0  0  0  0
    2.9618   -1.1021   42.5918 C   0  0  1  0  0  0  0  0  0  0  0  0
    7.3392   -0.8596   44.8412 C   0  0  0  0  0  0  0  0  0  0  0  0
    1.9754   -2.0820   42.2741 C   0  0  0  0  0  0  0  0  0  0  0  0
    5.5910   -2.4282   45.3439 C   0  0  0  0  0  0  0  0  0  0  0  0
    6.5874   -2.9636   46.1581 C   0  0  0  0  0  0  0  0  0  0  0  0
    4.2763   -3.0680   45.0493 N   0  0  0  0  0  0  0  0  0  0  0  0
    3.6188   -2.5886   44.2024 C   0  0  0  0  0  0  0  0  0  0  0  0
    8.1921   -1.4071   45.7505 C   0  0  0  0  0  0  0  0  0  0  0  0
    1.0154   -1.8839   41.2980 C   0  0  0  0  0  0  0  0  0  0  0  0
    2.5720   -3.3564   43.9063 C   0  0  0  0  0  0  0  0  0  0  0  0
    0.2502   -2.8976   41.0751 C   0  0  0  0  0  0  0  0  0  0  0  0
    6.1761   -4.1775   47.0209 C   0  0  0  0  0  0  0  0  0  0  0  0
    1.7266   -3.1047   43.0115 C   0  0  2  0  0  0  0  0  0  0  0  0
    2.3696   -4.5367   44.7536 N   0  0  0  0  0  0  0  0  0  0  0  0
    1.2264   -5.2346   44.4693 C   0  0  0  0  0  0  0  0  0  0  0  0
    0.7187   -3.8955   42.5465 C   0  0  0  0  0  0  0  0  0  0  0  0
    9.4576   -0.8949   46.0327 N   0  0  0  0  0  0  0  0  0  0  0  0
    0.8625   -6.3901   45.2462 C   0  0  0  0  0  0  0  0  0  0  0  0
    7.6467   -2.5139   46.4892 C   0  0  0  0  0  0  0  0  0  0  0  0
   10.4908   -1.5336   45.8242 C   0  0  0  0  0  0  0  0  0  0  0  0
    0.3057   -4.9299   43.2909 C   0  0  0  0  0  0  0  0  0  0  0  0
   11.5916   -1.4291   46.7436 C   0  0  0  0  0  0  0  0  0  0  0  0
   10.5566   -2.3672   44.8649 O   0  0  0  0  0  0  0  0  0  0  0  0
    2.4730    0.2084   42.8389 O   0  0  0  0  0  0  0  0  0  0  0  0
   11.6027   -2.2081   47.7725 N   0  0  0  0  0  0  0  0  0  0  0  0
   12.6189   -0.5862   46.5415 C   0  0  0  0  0  0  0  0  0  0  0  0
   13.6413   -0.4484   47.4129 C   0  0  0  0  0  0  0  0  0  0  0  0
   10.4764   -3.1097   48.1134 C   0  0  0  0  0  0  0  0  0  0  0  0
    9.5762   -2.4717   49.0753 C   0  0  0  0  0  0  0  0  0  0  0  0
    9.7761   -1.2394   49.5167 C   0  0  0  0  0  0  0  0  0  0  0  0
    8.6397   -3.3252   49.7339 C   0  0  0  0  0  0  0  0  0  0  0  0
    8.9861   -0.7034   50.5819 C   0  0  0  0  0  0  0  0  0  0  0  0
   14.7137    0.5128   47.0925 C   0  0  0  0  0  0  0  0  0  0  0  0
    8.1815   -1.5423   51.2387 C   0  0  0  0  0  0  0  0  0  0  0  0
    8.4156   -4.7176   49.2102 O   0  0  0  0  0  0  0  0  0  0  0  0
    7.9436   -2.8856   50.8102 C   0  0  0  0  0  0  0  0  0  0  0  0
   12.6675   -2.1100   48.6466 C   0  0  0  0  0  0  0  0  0  0  0  0
    8.1466   -5.6065   49.9515 C   0  0  0  0  0  0  0  0  0  0  0  0
   14.7153    1.1568   46.1906 O   0  0  0  0  0  0  0  0  0  0  0  0
   13.5362   -1.2834   48.3411 C   0  0  0  0  0  0  0  0  0  0  0  0
   15.3669    0.7757   48.1094 O   0  0  0  0  0  0  0  0  0  0  0  0
  1  2  2  0
  2  3  1  0
  2  4  1  0
  3  5  1  0
  4  6  2  0
  5  7  1  0
  4  8  1  0
  8  9  2  0
  8 10  1  0
  3 11  1  0
 10 11  2  0
  6 12  1  0
  7 13  2  0
 11 14  1  0
 13 15  1  0
  9 16  1  0
 17  7  1  6
 14 17  1  0
 14 18  2  0
 18 19  1  0
 15 20  2  0
 17 20  1  0
 12 21  1  0
 19 22  1  0
  9 23  1  0
 12 23  2  0
 21 24  1  0
 19 25  2  0
 20 25  1  0
 24 26  1  0
 24 27  2  0
  5 28  1  1
 26 29  1  0
 26 30  2  0
 30 31  1  0
 29 32  1  0
 32 33  1  0
 33 34  2  0
 33 35  1  0
 34 36  1  0
 31 37  1  0
 36 38  2  0
 35 39  1  0
 35 40  2  0
 38 40  1  0
 29 41  1  0
 39 42  1  0
 37 43  2  0
 31 44  2  0
 41 44  1  0
 37 45  1  0
M  END
$$$$
O14757_Pocket2Mol_idx-in-all-generaetd-29
     RDKit          3D

 23 26  0  0  0  0  0  0  0  0999 V2000
    4.5156    0.0550   42.9895 N   0  0  0  0  0  0  0  0  0  0  0  0
    3.2960    0.1633   42.4470 C   0  0  0  0  0  0  0  0  0  0  0  0
    2.7621   -1.2305   42.4476 C   0  0  0  0  0  0  0  0  0  0  0  0
    5.2005   -0.8099   43.5858 C   0  0  0  0  0  0  0  0  0  0  0  0
    4.4157   -2.0357   43.6745 C   0  0  0  0  0  0  0  0  0  0  0  0
    3.3964   -2.2069   43.1195 C   0  0  0  0  0  0  0  0  0  0  0  0
    2.6107   -3.4636   43.1542 N   0  0  0  0  0  0  0  0  0  0  0  0
    1.4467   -1.2849   41.8335 C   0  0  0  0  0  0  0  0  0  0  0  0
    5.1851   -3.1348   44.4538 N   0  0  0  0  0  0  0  0  0  0  0  0
    6.4172   -0.8203   44.3346 N   0  0  0  0  0  0  0  0  0  0  0  0
    0.8321   -2.5451   41.8394 C   0  0  0  0  0  0  0  0  0  0  0  0
    1.4134   -3.5528   42.5919 C   0  0  0  0  0  0  0  0  0  0  0  0
    6.3428   -2.7074   45.0536 C   0  0  0  0  0  0  0  0  0  0  0  0
    6.8277   -1.4386   44.9522 C   0  0  0  0  0  0  0  0  0  0  0  0
    8.1428   -1.2695   45.6287 C   0  0  0  0  0  0  0  0  0  0  0  0
    6.7295   -3.7948   46.0360 C   0  0  0  0  0  0  0  0  0  0  0  0
    8.0115   -3.5481   46.6450 C   0  0  0  0  0  0  0  0  0  0  0  0
    8.8073   -0.1733   45.6146 O   0  0  0  0  0  0  0  0  0  0  0  0
    8.6405   -2.2670   46.5404 C   0  0  0  0  0  0  0  0  0  0  0  0
    9.8709   -1.9854   47.0853 O   0  0  0  0  0  0  0  0  0  0  0  0
   10.8299   -2.9834   47.0851 C   0  0  0  0  0  0  0  0  0  0  0  0
   11.6846   -2.7679   46.0008 C   0  0  0  0  0  0  0  0  0  0  0  0
   11.5940   -2.9125   48.3298 C   0  0  0  0  0  0  0  0  0  0  0  0
  1  2  2  0
  2  3  1  0
  1  4  1  0
  4  5  2  0
  3  6  2  0
  5  6  1  0
  6  7  1  0
  3  8  1  0
  5  9  1  0
  4 10  1  0
  8 11  2  0
  7 12  2  0
 11 12  1  0
  9 13  2  0
 10 14  2  0
 13 14  1  0
 14 15  1  0
 13 16  1  0
 16 17  2  0
 15 18  1  0
 15 19  2  0
 17 19  1  0
 19 20  1  0
 20 21  1  0
 21 22  1  0
 21 23  1  0
M  END
$$$$
O14757_Pocket2Mol_idx-in-all-generaetd-30
     RDKit          3D

 35 41  0  0  0  0  0  0  0  0999 V2000
    4.5156    0.0550   42.9895 N   0  0  0  0  0  0  0  0  0  0  0  0
    5.0618   -0.8645   43.5295 C   0  0  0  0  0  0  0  0  0  0  0  0
    4.4350   -2.0604   43.7783 C   0  0  0  0  0  0  0  0  0  0  0  0
    4.9987   -3.0994   44.5839 C   0  0  0  0  0  0  0  0  0  0  0  0
    3.2714   -1.8664   43.0632 C   0  0  0  0  0  0  0  0  0  0  0  0
    6.4064   -0.5942   44.3204 N   0  0  0  0  0  0  0  0  0  0  0  0
    4.3422   -4.3256   44.7203 C   0  0  0  0  0  0  0  0  0  0  0  0
    2.1845   -2.6668   42.8270 N   0  0  0  0  0  0  0  0  0  0  0  0
    3.3305   -0.5395   42.5465 N   0  0  0  0  0  0  0  0  0  0  0  0
    1.9502   -3.8972   43.4076 C   0  0  0  0  0  0  0  0  0  0  0  0
    2.7156   -4.1184   44.6954 N   0  0  0  0  0  0  0  0  0  0  0  0
    6.8581   -1.5862   45.1101 C   0  0  0  0  0  0  0  0  0  0  0  0
    6.1801   -2.8430   45.2383 C   0  0  0  0  0  0  0  0  0  0  0  0
    2.1454   -5.1901   45.5771 C   0  0  0  0  0  0  0  0  0  0  0  0
    8.0137   -1.3946   45.8526 C   0  0  0  0  0  0  0  0  0  0  0  0
    0.9733   -4.5725   43.2066 O   0  0  0  0  0  0  0  0  0  0  0  0
    2.2437    0.0035   41.8733 C   0  0  0  0  0  0  0  0  0  0  0  0
    1.3210   -2.2077   41.7009 C   0  0  0  0  0  0  0  0  0  0  0  0
    8.6047   -2.2876   46.6923 C   0  0  0  0  0  0  0  0  0  0  0  0
    7.9141   -3.5157   46.8869 C   0  0  0  0  0  0  0  0  0  0  0  0
    1.0501   -0.8658   41.6612 C   0  0  0  0  0  0  0  0  0  0  0  0
    6.7278   -3.7718   46.2525 C   0  0  0  0  0  0  0  0  0  0  0  0
    9.8280   -2.0492   47.3361 C   0  0  0  0  0  0  0  0  0  0  0  0
    9.8262   -1.5735   48.5432 C   0  0  0  0  0  0  0  0  0  0  0  0
   11.0745   -2.0905   46.6735 C   0  0  0  0  0  0  0  0  0  0  0  0
    8.5798   -1.4294   49.3788 F   0  0  0  0  0  0  0  0  0  0  0  0
   12.2255   -1.7445   47.2852 C   0  0  0  0  0  0  0  0  0  0  0  0
   11.0129   -1.2913   49.2988 C   0  0  0  0  0  0  0  0  0  0  0  0
   11.0580   -2.4152   45.0953 C   0  0  0  0  0  0  0  0  0  0  0  0
   12.2034   -1.4549   48.6570 C   0  0  0  0  0  0  0  0  0  0  0  0
   13.5890   -1.8964   46.5590 C   0  0  0  0  0  0  0  0  0  0  0  0
   12.4271   -2.2445   44.6004 N   0  0  0  0  0  0  0  0  0  0  0  0
   14.7439   -1.6255   47.2221 O   0  0  0  0  0  0  0  0  0  0  0  0
   13.5896   -2.0482   45.2572 C   0  0  0  0  0  0  0  0  0  0  0  0
    1.0405   -4.5200   46.3528 C   0  0  0  0  0  0  0  0  0  0  0  0
  1  2  2  0
  2  3  1  0
  3  4  1  0
  3  5  2  0
  2  6  1  0
  4  7  1  0
  5  8  1  0
  1  9  1  0
  5  9  1  0
  8 10  1  0
  7 11  1  0
 10 11  1  0
  6 12  2  0
  4 13  2  0
 12 13  1  0
 11 14  1  0
 12 15  1  0
 10 16  2  0
  9 17  1  0
  8 18  1  0
 15 19  2  0
 19 20  1  0
 17 21  1  0
 18 21  1  0
 13 22  1  0
 20 22  2  0
 19 23  1  0
 23 24  2  0
 23 25  1  0
 24 26  1  0
 25 27  2  0
 24 28  1  0
 25 29  1  0
 27 30  1  0
 28 30  2  0
 27 31  1  0
 29 32  2  0
 31 33  1  0
 31 34  2  0
 32 34  1  0
 14 35  1  0
M  END
$$$$
O14757_Pocket2Mol_idx-in-all-generaetd-31
     RDKit          3D

 45 54  0  0  0  0  0  0  0  0999 V2000
    1.5482   -0.3111   41.9233 C   0  0  0  0  0  0  0  0  0  0  0  0
    2.7284    0.2018   42.1525 N   0  0  0  0  0  0  0  0  0  0  0  0
    3.7893   -0.3016   42.7005 C   0  0  0  0  0  0  0  0  0  0  0  0
    3.3781   -1.7350   43.0000 C   0  0  0  0  0  0  0  0  0  0  0  0
    2.0339   -1.9619   42.6217 C   0  0  0  0  0  0  0  0  0  0  0  0
    5.0090    0.1219   42.9340 N   0  0  0  0  0  0  0  0  0  0  0  0
    4.2895   -2.4979   43.6707 C   0  0  0  0  0  0  0  0  0  0  0  0
    5.8391   -0.6675   43.6343 C   0  0  0  0  0  0  0  0  0  0  0  0
    6.9849   -0.2377   44.0028 N   0  0  0  0  0  0  0  0  0  0  0  0
    4.0426   -3.8794   44.0832 C   0  0  0  0  0  0  0  0  0  0  0  0
    7.6796   -0.8734   44.9326 C   0  0  0  0  0  0  0  0  0  0  0  0
    1.1064   -2.9576   42.4211 C   0  0  0  0  0  0  0  0  0  0  0  0
    5.5298   -1.9496   44.0315 C   0  0  0  0  0  0  0  0  0  0  0  0
    3.8954   -4.1817   45.4718 C   0  0  0  0  0  0  0  0  0  0  0  0
    0.6765   -3.5480   43.4006 C   0  0  1  0  0  0  0  0  0  0  0  0
    0.5804   -3.2191   41.1635 C   0  0  0  0  0  0  0  0  0  0  0  0
    2.8083   -4.8227   45.9203 N   0  0  0  0  0  0  0  0  0  0  0  0
   -0.1574   -4.5754   42.9329 N   0  0  0  0  0  0  0  0  0  0  0  0
    6.5271   -2.5531   44.9677 C   0  0  0  0  0  0  0  0  0  0  0  0
   -0.2272   -4.3703   41.5137 C   0  0  0  0  0  0  0  0  0  0  0  0
    7.5095   -2.0029   45.3993 C   0  0  0  0  0  0  0  0  0  0  0  0
    8.2550   -2.6982   46.3988 C   0  0  2  0  0  0  0  0  0  0  0  0
    8.8975   -0.3029   45.3267 O   0  0  0  0  0  0  0  0  0  0  0  0
    4.8299   -4.4637   46.4212 C   0  0  0  0  0  0  0  0  0  0  0  0
    4.2707   -4.9248   47.6295 N   0  0  0  0  0  0  0  0  0  0  0  0
    3.2045   -5.2092   47.1521 C   0  0  0  0  0  0  0  0  0  0  0  0
    1.4482   -4.6186   45.4134 C   0  0  2  0  0  0  0  0  0  0  0  0
    1.2398   -3.5043   44.6236 O   0  0  0  0  0  0  0  0  0  0  0  0
    6.3317   -3.9297   46.0870 C   0  0  2  0  0  0  0  0  0  0  0  0
    9.5296   -2.5449   46.9776 C   0  0  0  0  0  0  0  0  0  0  0  0
    9.7921   -1.7530   47.9018 O   0  0  0  0  0  0  0  0  0  0  0  0
    7.4454   -3.8344   46.8035 C   0  0  0  0  0  0  0  0  0  0  0  0
   10.5010   -3.0847   46.3190 O   0  0  0  0  0  0  0  0  0  0  0  0
    0.5569   -4.7693   46.5649 C   0  0  0  0  0  0  0  0  0  0  0  0
   11.7452   -2.8462   46.6234 C   0  0  0  0  0  0  0  0  0  0  0  0
   12.4344   -1.8951   45.7393 C   0  0  0  0  0  0  0  0  0  0  0  0
   12.4612   -3.5429   47.5581 C   0  0  0  0  0  0  0  0  0  0  0  0
   11.7737   -4.5216   48.4115 C   0  0  0  0  0  0  0  0  0  0  0  0
   13.7789   -3.2174   47.8431 C   0  0  0  0  0  0  0  0  0  0  0  0
   14.4816   -3.8690   48.9184 C   0  0  0  0  0  0  0  0  0  0  0  0
   12.3650   -5.1478   49.4723 C   0  0  0  0  0  0  0  0  0  0  0  0
   14.3222   -2.2769   47.0191 C   0  0  0  0  0  0  0  0  0  0  0  0
   13.8426   -4.7141   49.6407 C   0  0  0  0  0  0  0  0  0  0  0  0
   11.7266   -1.2747   44.7411 F   0  0  0  0  0  0  0  0  0  0  0  0
   13.6126   -1.6816   46.0589 C   0  0  0  0  0  0  0  0  0  0  0  0
  1  2  1  0
  2  3  2  0
  3  4  1  0
  1  5  2  0
  4  5  1  0
  3  6  1  0
  4  7  2  0
  6  8  1  0
  8  9  1  0
  7 10  1  0
  9 11  1  0
  5 12  1  0
  7 13  1  0
  8 13  2  0
 10 14  1  0
 12 15  1  0
 12 16  2  0
 14 17  1  0
 15 18  1  0
 13 19  1  0
 16 20  1  0
 18 20  2  0
 11 21  1  0
 19 21  2  0
 21 22  1  0
 11 23  2  0
 14 24  2  0
 24 25  1  0
 17 26  1  0
 25 26  2  0
 17 27  1  0
 15 28  1  6
 27 28  1  0
 19 29  1  0
 24 29  1  0
 22 30  1  6
 30 31  2  0
 22 32  1  0
 29 32  1  1
 30 33  1  0
 27 34  1  1
 33 35  1  0
 35 36  2  0
 35 37  1  0
 37 38  2  0
 37 39  1  0
 39 40  2  0
 38 41  1  0
 39 42  1  0
 40 43  1  0
 41 43  2  0
 36 44  1  0
 36 45  1  0
 42 45  2  0
M  END
$$$$
O14757_Pocket2Mol_idx-in-all-generaetd-32
     RDKit          3D

 36 41  0  0  0  0  0  0  0  0999 V2000
    1.5482   -0.3111   41.9233 C   0  0  0  0  0  0  0  0  0  0  0  0
    2.7284    0.2018   42.1525 N   0  0  0  0  0  0  0  0  0  0  0  0
    3.7893   -0.3016   42.7005 C   0  0  0  0  0  0  0  0  0  0  0  0
    3.3781   -1.7350   43.0000 C   0  0  0  0  0  0  0  0  0  0  0  0
    2.0339   -1.9619   42.6217 C   0  0  0  0  0  0  0  0  0  0  0  0
    4.1166   -2.4997   43.8458 C   0  0  0  0  0  0  0  0  0  0  0  0
    1.1731   -3.0051   42.5773 C   0  0  0  0  0  0  0  0  0  0  0  0
    0.4701   -3.2344   41.4901 C   0  0  0  0  0  0  0  0  0  0  0  0
    5.3799   -1.7814   44.2691 C   0  0  0  0  0  0  0  0  0  0  0  0
    5.0159   -0.0180   43.1201 N   0  0  0  0  0  0  0  0  0  0  0  0
    5.7693   -0.6937   43.8418 C   0  0  0  0  0  0  0  0  0  0  0  0
    0.8078   -3.6166   43.6782 C   0  0  0  0  0  0  0  0  0  0  0  0
    0.0663   -4.7011   43.7415 N   0  0  0  0  0  0  0  0  0  0  0  0
    6.2223   -2.6843   45.1565 C   0  0  0  0  0  0  0  0  0  0  0  0
    6.9599   -0.2351   44.2608 N   0  0  0  0  0  0  0  0  0  0  0  0
    5.9065   -3.9037   45.7499 N   0  0  0  0  0  0  0  0  0  0  0  0
   -0.5459   -5.1185   42.5870 C   0  0  0  0  0  0  0  0  0  0  0  0
    5.7480   -4.0340   46.9810 C   0  0  0  0  0  0  0  0  0  0  0  0
    7.4448   -1.8511   45.4198 C   0  0  0  0  0  0  0  0  0  0  0  0
    7.7572   -0.7827   45.0128 C   0  0  0  0  0  0  0  0  0  0  0  0
    8.4076   -2.7217   46.4541 C   0  0  0  0  0  0  0  0  0  0  0  0
    9.3167   -2.0988   47.1049 N   0  0  0  0  0  0  0  0  0  0  0  0
   -0.4719   -4.3893   41.5406 C   0  0  0  0  0  0  0  0  0  0  0  0
    8.3667   -4.0284   46.5743 N   0  0  0  0  0  0  0  0  0  0  0  0
   10.1532   -2.5726   47.9567 C   0  0  0  0  0  0  0  0  0  0  0  0
   11.0726   -1.7892   48.6998 C   0  0  0  0  0  0  0  0  0  0  0  0
   10.4886   -0.9372   49.4584 C   0  0  0  0  0  0  0  0  0  0  0  0
    8.9772   -4.5617   47.6013 C   0  0  0  0  0  0  0  0  0  0  0  0
    9.9765   -3.9922   48.2636 C   0  0  0  0  0  0  0  0  0  0  0  0
   11.3393   -0.1462   50.3539 C   0  0  0  0  0  0  0  0  0  0  0  0
   12.4892   -1.8956   48.4941 C   0  0  0  0  0  0  0  0  0  0  0  0
   12.8930   -0.3809   50.0834 C   0  0  0  0  0  0  0  0  0  0  0  0
   12.9994   -2.9244   47.4139 C   0  0  0  0  0  0  0  0  0  0  0  0
   13.2804   -1.1960   49.2234 C   0  0  0  0  0  0  0  0  0  0  0  0
   13.3446   -4.0675   47.7977 O   0  0  0  0  0  0  0  0  0  0  0  0
   12.8901   -2.5944   46.1662 N   0  0  0  0  0  0  0  0  0  0  0  0
  1  2  1  0
  2  3  2  0
  3  4  1  0
  1  5  2  0
  4  5  1  0
  4  6  2  0
  5  7  1  0
  7  8  2  0
  6  9  1  0
  3 10  1  0
  9 11  2  0
 10 11  1  0
  7 12  1  0
 12 13  2  0
  9 14  1  0
 11 15  1  0
 14 16  1  0
 13 17  1  0
 16 18  1  0
 14 19  2  0
 15 20  2  0
 19 20  1  0
 19 21  1  0
 21 22  2  0
  8 23  1  0
 17 23  2  0
 21 24  1  0
 22 25  1  0
 25 26  1  0
 26 27  2  0
 24 28  2  0
 25 29  2  0
 28 29  1  0
 27 30  1  0
 26 31  1  0
 30 32  2  0
 31 33  1  0
 31 34  2  0
 32 34  1  0
 33 35  2  0
 33 36  1  0
M  END
$$$$
O14757_Pocket2Mol_idx-in-all-generaetd-33
     RDKit          3D

 29 35  0  0  0  0  0  0  0  0999 V2000
    4.8037   -0.1366   42.7100 N   0  0  0  0  0  0  0  0  0  0  0  0
    3.6577   -0.7759   42.7186 C   0  0  0  0  0  0  0  0  0  0  0  0
    3.6660   -1.8665   43.4760 C   0  0  0  0  0  0  0  0  0  0  0  0
    2.7271   -2.8718   43.6599 C   0  0  0  0  0  0  0  0  0  0  0  0
    2.4846   -0.2994   42.1254 N   0  0  0  0  0  0  0  0  0  0  0  0
    5.0524   -1.7697   43.9367 C   0  0  0  0  0  0  0  0  0  0  0  0
    1.4917   -2.9000   43.0914 C   0  0  0  0  0  0  0  0  0  0  0  0
    3.1274   -3.9503   44.5163 C   0  0  0  0  0  0  0  0  0  0  0  0
    1.0744   -1.9066   42.1491 C   0  0  2  0  0  0  0  0  0  0  0  0
    5.6624   -0.7003   43.4895 C   0  0  0  0  0  0  0  0  0  0  0  0
    5.5753   -2.5784   45.0324 C   0  0  0  0  0  0  0  0  0  0  0  0
    0.4030   -3.6297   43.4883 N   0  0  0  0  0  0  0  0  0  0  0  0
    1.5052   -0.8077   41.7519 C   0  0  0  0  0  0  0  0  0  0  0  0
   -0.5645   -3.4039   42.5585 N   0  0  0  0  0  0  0  0  0  0  0  0
    2.5059   -5.1012   44.7935 C   0  0  0  0  0  0  0  0  0  0  0  0
    4.4581   -3.8218   45.2947 C   0  0  0  0  0  0  0  0  0  0  0  0
   -0.3089   -2.3979   41.8128 C   0  0  0  0  0  0  0  0  0  0  0  0
    6.6435   -2.6577   45.6991 C   0  0  0  0  0  0  0  0  0  0  0  0
    7.0869   -3.7008   46.4717 C   0  0  0  0  0  0  0  0  0  0  0  0
    7.5912   -1.5296   45.5455 C   0  0  0  0  0  0  0  0  0  0  0  0
    8.7765   -1.4352   46.2248 C   0  0  0  0  0  0  0  0  0  0  0  0
    6.3069   -4.7944   46.6836 O   0  0  0  0  0  0  0  0  0  0  0  0
    4.8984   -4.5252   46.1302 C   0  0  0  0  0  0  0  0  0  0  0  0
    4.2122   -5.9932   46.2216 C   0  0  0  0  0  0  0  0  0  0  0  0
    3.0046   -6.0549   45.6421 C   0  0  0  0  0  0  0  0  0  0  0  0
    8.2374   -3.8078   47.1146 C   0  0  0  0  0  0  0  0  0  0  0  0
    8.7057   -4.8761   47.9258 O   0  0  0  0  0  0  0  0  0  0  0  0
    9.2255   -2.6612   47.1284 C   0  0  0  0  0  0  0  0  0  0  0  0
    9.6861   -5.6130   47.4866 C   0  0  0  0  0  0  0  0  0  0  0  0
  1  2  2  0
  2  3  1  0
  3  4  2  0
  2  5  1  0
  3  6  1  0
  4  7  1  0
  4  8  1  0
  7  9  1  0
  1 10  1  0
  6 10  1  0
  6 11  2  0
  7 12  2  0
  5 13  2  0
  9 13  1  1
 12 14  1  0
  8 15  2  0
  8 16  1  0
 11 16  1  0
  9 17  1  0
 14 17  2  0
 11 18  1  0
 18 19  2  0
 18 20  1  0
 20 21  2  0
 19 22  1  0
 16 23  2  0
 22 23  1  0
 23 24  1  0
 15 25  1  0
 24 25  2  0
 19 26  1  0
 26 27  1  0
 21 28  1  0
 26 28  2  0
 27 29  1  0
M  END
$$$$
O14757_Pocket2Mol_idx-in-all-generaetd-34
     RDKit          3D

 38 44  0  0  0  0  0  0  0  0999 V2000
    5.3420    0.2589   42.8836 O   0  0  0  0  0  0  0  0  0  0  0  0
    5.1627   -0.7554   43.4753 C   0  0  0  0  0  0  0  0  0  0  0  0
    4.0509   -1.4657   43.4177 N   0  0  0  0  0  0  0  0  0  0  0  0
    5.9969   -1.2317   44.6840 C   0  0  0  0  0  0  0  0  0  0  0  0
    2.9618   -1.1021   42.5918 C   0  0  0  0  0  0  0  0  0  0  0  0
    7.3392   -0.8596   44.8412 C   0  0  0  0  0  0  0  0  0  0  0  0
    1.9754   -2.0820   42.2741 C   0  0  0  0  0  0  0  0  0  0  0  0
    5.5910   -2.4282   45.3439 C   0  0  0  0  0  0  0  0  0  0  0  0
    6.5874   -2.9636   46.1581 C   0  0  0  0  0  0  0  0  0  0  0  0
    4.2763   -3.0680   45.0493 N   0  0  0  0  0  0  0  0  0  0  0  0
    3.6188   -2.5886   44.2024 C   0  0  0  0  0  0  0  0  0  0  0  0
    8.1921   -1.4071   45.7505 C   0  0  0  0  0  0  0  0  0  0  0  0
    1.0154   -1.8839   41.2980 C   0  0  0  0  0  0  0  0  0  0  0  0
    2.5720   -3.3564   43.9063 C   0  0  0  0  0  0  0  0  0  0  0  0
    0.2502   -2.8976   41.0751 C   0  0  0  0  0  0  0  0  0  0  0  0
    6.1761   -4.1775   47.0209 C   0  0  0  0  0  0  0  0  0  0  0  0
    1.7266   -3.1047   43.0115 C   0  0  2  0  0  0  0  0  0  0  0  0
    2.3696   -4.5367   44.7536 N   0  0  0  0  0  0  0  0  0  0  0  0
    1.2264   -5.2346   44.4693 C   0  0  0  0  0  0  0  0  0  0  0  0
    0.7187   -3.8955   42.5465 C   0  0  0  0  0  0  0  0  0  0  0  0
    9.4576   -0.8949   46.0327 N   0  0  0  0  0  0  0  0  0  0  0  0
    0.8625   -6.3901   45.2462 C   0  0  0  0  0  0  0  0  0  0  0  0
    7.6467   -2.5139   46.4892 C   0  0  0  0  0  0  0  0  0  0  0  0
   10.4908   -1.5336   45.8242 C   0  0  0  0  0  0  0  0  0  0  0  0
    0.3057   -4.9299   43.2909 C   0  0  0  0  0  0  0  0  0  0  0  0
   11.5916   -1.4291   46.7436 C   0  0  0  0  0  0  0  0  0  0  0  0
   10.5566   -2.3672   44.8649 O   0  0  0  0  0  0  0  0  0  0  0  0
   11.6051   -2.2111   47.7709 N   0  0  0  0  0  0  0  0  0  0  0  0
   12.6215   -0.5876   46.5424 C   0  0  0  0  0  0  0  0  0  0  0  0
   12.5420   -2.0938   48.7186 C   0  0  0  0  0  0  0  0  0  0  0  0
    3.0270    0.0702   42.0603 O   0  0  0  0  0  0  0  0  0  0  0  0
   12.6957    0.2513   45.2919 C   0  0  0  0  0  0  0  0  0  0  0  0
   13.6707   -0.5939   47.5160 C   0  0  0  0  0  0  0  0  0  0  0  0
   12.5041   -3.0819   49.9184 C   0  0  0  0  0  0  0  0  0  0  0  0
   14.8478    0.3178   47.2649 C   0  0  0  0  0  0  0  0  0  0  0  0
   13.6623   -1.3750   48.5807 C   0  0  0  0  0  0  0  0  0  0  0  0
   13.7946    1.2197   45.3700 C   0  0  0  0  0  0  0  0  0  0  0  0
   14.7420    1.1011   46.2905 C   0  0  0  0  0  0  0  0  0  0  0  0
  1  2  2  0
  2  3  1  0
  2  4  1  0
  3  5  1  0
  4  6  2  0
  5  7  1  0
  4  8  1  0
  8  9  2  0
  8 10  1  0
  3 11  1  0
 10 11  2  0
  6 12  1  0
  7 13  2  0
 11 14  1  0
 13 15  1  0
  9 16  1  0
 17  7  1  6
 14 17  1  0
 14 18  2  0
 18 19  1  0
 15 20  2  0
 17 20  1  0
 12 21  1  0
 19 22  1  0
  9 23  1  0
 12 23  2  0
 21 24  1  0
 19 25  2  0
 20 25  1  0
 24 26  1  0
 24 27  2  0
 26 28  2  0
 26 29  1  0
 28 30  1  0
  5 31  2  0
 29 32  2  0
 29 33  1  0
 30 34  1  0
 33 35  2  0
 30 36  2  0
 33 36  1  0
 32 37  1  0
 35 38  1  0
 37 38  2  0
M  END
$$$$
O14757_Pocket2Mol_idx-in-all-generaetd-35
     RDKit          3D

 36 41  0  0  0  0  0  0  0  0999 V2000
    1.5482   -0.3111   41.9233 C   0  0  0  0  0  0  0  0  0  0  0  0
    2.7284    0.2018   42.1525 N   0  0  0  0  0  0  0  0  0  0  0  0
    3.7893   -0.3016   42.7005 C   0  0  0  0  0  0  0  0  0  0  0  0
    3.3781   -1.7350   43.0000 C   0  0  0  0  0  0  0  0  0  0  0  0
    2.0339   -1.9619   42.6217 C   0  0  0  0  0  0  0  0  0  0  0  0
    4.1166   -2.4997   43.8458 C   0  0  0  0  0  0  0  0  0  0  0  0
    1.1731   -3.0051   42.5773 C   0  0  0  0  0  0  0  0  0  0  0  0
    0.4701   -3.2344   41.4901 C   0  0  0  0  0  0  0  0  0  0  0  0
    5.3799   -1.7814   44.2691 C   0  0  0  0  0  0  0  0  0  0  0  0
    5.0159   -0.0180   43.1201 N   0  0  0  0  0  0  0  0  0  0  0  0
    5.7693   -0.6937   43.8418 C   0  0  0  0  0  0  0  0  0  0  0  0
    0.8078   -3.6166   43.6782 C   0  0  0  0  0  0  0  0  0  0  0  0
    0.0663   -4.7011   43.7415 N   0  0  0  0  0  0  0  0  0  0  0  0
    6.2223   -2.6843   45.1565 C   0  0  0  0  0  0  0  0  0  0  0  0
    6.9599   -0.2351   44.2608 N   0  0  0  0  0  0  0  0  0  0  0  0
    5.9065   -3.9037   45.7499 N   0  0  0  0  0  0  0  0  0  0  0  0
   -0.5459   -5.1185   42.5870 C   0  0  0  0  0  0  0  0  0  0  0  0
    5.7480   -4.0340   46.9810 C   0  0  0  0  0  0  0  0  0  0  0  0
    7.4448   -1.8511   45.4198 C   0  0  0  0  0  0  0  0  0  0  0  0
    7.7572   -0.7827   45.0128 C   0  0  0  0  0  0  0  0  0  0  0  0
    8.4076   -2.7217   46.4541 C   0  0  0  0  0  0  0  0  0  0  0  0
    9.3167   -2.0988   47.1049 N   0  0  0  0  0  0  0  0  0  0  0  0
   -0.4719   -4.3893   41.5406 C   0  0  0  0  0  0  0  0  0  0  0  0
    8.3667   -4.0284   46.5743 N   0  0  0  0  0  0  0  0  0  0  0  0
   10.1532   -2.5726   47.9567 C   0  0  0  0  0  0  0  0  0  0  0  0
    7.1666   -4.7114   47.2915 C   0  0  0  0  0  0  0  0  0  0  0  0
   11.4560   -2.5376   47.5873 C   0  0  0  0  0  0  0  0  0  0  0  0
   11.8152   -3.5493   46.6694 C   0  0  0  0  0  0  0  0  0  0  0  0
   12.7174   -3.2253   45.6793 O   0  0  0  0  0  0  0  0  0  0  0  0
   11.1601   -4.5914   46.3617 O   0  0  0  0  0  0  0  0  0  0  0  0
    9.8346   -2.3571   49.3169 C   0  0  0  0  0  0  0  0  0  0  0  0
   11.0830   -2.4359   50.1249 C   0  0  0  0  0  0  0  0  0  0  0  0
   10.6602   -2.2937   51.6316 O   0  0  0  0  0  0  0  0  0  0  0  0
   12.1234   -2.7026   49.7710 C   0  0  0  0  0  0  0  0  0  0  0  0
   12.5159   -2.8470   48.5442 C   0  0  0  0  0  0  0  0  0  0  0  0
   11.0363   -1.3747   52.3248 C   0  0  0  0  0  0  0  0  0  0  0  0
  1  2  1  0
  2  3  2  0
  3  4  1  0
  1  5  2  0
  4  5  1  0
  4  6  2  0
  5  7  1  0
  7  8  2  0
  6  9  1  0
  3 10  1  0
  9 11  2  0
 10 11  1  0
  7 12  1  0
 12 13  2  0
  9 14  1  0
 11 15  1  0
 14 16  1  0
 13 17  1  0
 16 18  1  0
 14 19  2  0
 15 20  2  0
 19 20  1  0
 19 21  1  0
 21 22  2  3
  8 23  1  0
 17 23  2  0
 21 24  1  0
 22 25  1  0
 18 26  1  0
 24 26  1  0
 25 27  2  0
 27 28  1  0
 28 29  2  0
 28 30  1  0
 25 31  1  0
 31 32  2  0
 32 33  1  0
 32 34  1  0
 27 35  1  0
 34 35  2  0
 33 36  1  0
M  END
$$$$
O14757_Pocket2Mol_idx-in-all-generaetd-36
     RDKit          3D

 21 23  0  0  0  0  0  0  0  0999 V2000
    5.3420    0.2589   42.8836 N   0  0  0  0  0  0  0  0  0  0  0  0
    5.6740   -0.8311   43.5645 C   0  0  0  0  0  0  0  0  0  0  0  0
    3.9899   -0.0458   42.5141 N   0  0  0  0  0  0  0  0  0  0  0  0
    4.6606   -1.7163   43.6337 C   0  0  0  0  0  0  0  0  0  0  0  0
    3.6244   -1.2025   42.8928 C   0  0  0  0  0  0  0  0  0  0  0  0
    2.3780   -1.7713   42.6359 C   0  0  0  0  0  0  0  0  0  0  0  0
    4.5721   -3.0267   44.2590 C   0  0  0  0  0  0  0  0  0  0  0  0
    1.3110   -1.1954   41.9273 C   0  0  0  0  0  0  0  0  0  0  0  0
    6.9669   -1.0468   44.3352 C   0  0  0  0  0  0  0  0  0  0  0  0
    2.2279   -3.0554   43.2761 C   0  0  0  0  0  0  0  0  0  0  0  0
    7.2112   -1.1065   45.5035 C   0  0  0  0  0  0  0  0  0  0  0  0
    3.2239   -3.6182   44.0333 C   0  0  0  0  0  0  0  0  0  0  0  0
    8.4186   -1.4161   46.1085 C   0  0  0  0  0  0  0  0  0  0  0  0
    9.4169   -0.6822   46.1899 O   0  0  0  0  0  0  0  0  0  0  0  0
    0.9504   -3.6440   42.9670 C   0  0  0  0  0  0  0  0  0  0  0  0
    8.6308   -2.7462   46.5345 O   0  0  0  0  0  0  0  0  0  0  0  0
    9.8325   -3.1241   47.0044 C   0  0  0  0  0  0  0  0  0  0  0  0
    1.5160    0.1268   41.4340 O   0  0  0  0  0  0  0  0  0  0  0  0
    0.2635   -1.7253   41.7006 C   0  0  0  0  0  0  0  0  0  0  0  0
    0.7210   -4.9444   43.4620 O   0  0  0  0  0  0  0  0  0  0  0  0
   -0.0221   -3.1295   42.1858 C   0  0  0  0  0  0  0  0  0  0  0  0
  1  2  2  0
  1  3  1  0
  2  4  1  0
  3  5  1  0
  4  5  2  0
  5  6  1  0
  4  7  1  0
  6  8  2  0
  2  9  1  0
  6 10  1  0
  9 11  2  3
  7 12  2  0
 10 12  1  0
 11 13  1  0
 13 14  2  0
 10 15  2  0
 13 16  1  0
 16 17  1  0
  8 18  1  0
  8 19  1  0
 15 20  1  0
 15 21  1  0
 19 21  2  0
M  END
$$$$
O14757_Pocket2Mol_idx-in-all-generaetd-37
     RDKit          3D

 50 59  0  0  0  0  0  0  0  0999 V2000
    1.5482   -0.3111   41.9233 C   0  0  0  0  0  0  0  0  0  0  0  0
    2.7284    0.2018   42.1525 N   0  0  0  0  0  0  0  0  0  0  0  0
    3.7893   -0.3016   42.7005 C   0  0  0  0  0  0  0  0  0  0  0  0
    3.3781   -1.7350   43.0000 C   0  0  0  0  0  0  0  0  0  0  0  0
    2.0339   -1.9619   42.6217 C   0  0  0  0  0  0  0  0  0  0  0  0
    5.0090    0.1219   42.9340 N   0  0  0  0  0  0  0  0  0  0  0  0
    4.2895   -2.4979   43.6707 C   0  0  0  0  0  0  0  0  0  0  0  0
    5.8391   -0.6675   43.6343 C   0  0  0  0  0  0  0  0  0  0  0  0
    6.9849   -0.2377   44.0028 N   0  0  0  0  0  0  0  0  0  0  0  0
    4.0426   -3.8794   44.0832 C   0  0  0  0  0  0  0  0  0  0  0  0
    7.6796   -0.8734   44.9326 C   0  0  0  0  0  0  0  0  0  0  0  0
    1.1064   -2.9576   42.4211 C   0  0  0  0  0  0  0  0  0  0  0  0
    5.5298   -1.9496   44.0315 C   0  0  0  0  0  0  0  0  0  0  0  0
    3.8954   -4.1817   45.4718 C   0  0  0  0  0  0  0  0  0  0  0  0
    0.6765   -3.5480   43.4006 C   0  0  1  0  0  0  0  0  0  0  0  0
    0.5804   -3.2191   41.1635 C   0  0  0  0  0  0  0  0  0  0  0  0
    2.8083   -4.8227   45.9203 N   0  0  0  0  0  0  0  0  0  0  0  0
   -0.1574   -4.5754   42.9329 N   0  0  0  0  0  0  0  0  0  0  0  0
    6.5271   -2.5531   44.9677 C   0  0  0  0  0  0  0  0  0  0  0  0
   -0.2272   -4.3703   41.5137 C   0  0  0  0  0  0  0  0  0  0  0  0
    7.5095   -2.0029   45.3993 C   0  0  0  0  0  0  0  0  0  0  0  0
    8.2550   -2.6982   46.3988 C   0  0  1  0  0  0  0  0  0  0  0  0
    8.8975   -0.3029   45.3267 O   0  0  0  0  0  0  0  0  0  0  0  0
    4.8299   -4.4637   46.4212 C   0  0  0  0  0  0  0  0  0  0  0  0
    4.2707   -4.9248   47.6295 N   0  0  0  0  0  0  0  0  0  0  0  0
    3.2045   -5.2092   47.1521 C   0  0  0  0  0  0  0  0  0  0  0  0
    1.4482   -4.6186   45.4134 C   0  0  0  0  0  0  0  0  0  0  0  0
    1.3256   -3.7660   44.6394 N   0  0  0  0  0  0  0  0  0  0  0  0
    9.2816   -2.1418   47.1273 N   0  0  0  0  0  0  0  0  0  0  0  0
   10.0629   -3.1324   47.8508 C   0  0  0  0  0  0  0  0  0  0  0  0
    6.3491   -3.8960   46.0844 C   0  0  2  0  0  0  0  0  0  0  0  0
    7.4349   -3.5889   46.9054 C   0  0  0  0  0  0  0  0  0  0  0  0
   10.3145   -2.7271   49.0818 O   0  0  0  0  0  0  0  0  0  0  0  0
    0.6213   -5.4445   45.7455 O   0  0  0  0  0  0  0  0  0  0  0  0
   11.0262   -3.8136   47.1050 C   0  0  0  0  0  0  0  0  0  0  0  0
   12.1704   -3.3854   46.7547 C   0  0  0  0  0  0  0  0  0  0  0  0
   13.1080   -4.1111   46.0053 C   0  0  0  0  0  0  0  0  0  0  0  0
   14.3489   -3.5966   45.7888 C   0  0  0  0  0  0  0  0  0  0  0  0
   12.7430   -5.2725   45.5056 C   0  0  0  0  0  0  0  0  0  0  0  0
   10.8315   -5.3520   46.8908 C   0  0  0  0  0  0  0  0  0  0  0  0
   11.5834   -5.8795   45.9965 C   0  0  0  0  0  0  0  0  0  0  0  0
   14.5673   -2.2844   45.3294 C   0  0  0  0  0  0  0  0  0  0  0  0
   15.6990   -1.9377   44.9307 C   0  0  0  0  0  0  0  0  0  0  0  0
   15.4698   -4.3840   45.9734 C   0  0  0  0  0  0  0  0  0  0  0  0
   15.3726   -5.7464   46.5341 O   0  0  0  0  0  0  0  0  0  0  0  0
   15.3365   -5.8380   47.7232 C   0  0  0  0  0  0  0  0  0  0  0  0
   15.8635   -0.5078   44.4177 O   0  0  0  0  0  0  0  0  0  0  0  0
   14.8003   -0.1402   43.6941 C   0  0  0  0  0  0  0  0  0  0  0  0
   16.8980   -2.6369   45.0597 C   0  0  0  0  0  0  0  0  0  0  0  0
   16.8064   -3.7896   45.4931 C   0  0  0  0  0  0  0  0  0  0  0  0
  1  2  1  0
  2  3  2  0
  3  4  1  0
  1  5  2  0
  4  5  1  0
  3  6  1  0
  4  7  2  0
  6  8  1  0
  8  9  1  0
  7 10  1  0
  9 11  1  0
  5 12  1  0
  7 13  1  0
  8 13  2  0
 10 14  1  0
 12 15  1  0
 12 16  2  0
 14 17  1  0
 15 18  1  0
 13 19  1  0
 16 20  1  0
 18 20  2  0
 11 21  1  0
 19 21  2  0
 21 22  1  0
 11 23  2  0
 14 24  2  0
 24 25  1  0
 17 26  1  0
 25 26  2  0
 17 27  1  0
 15 28  1  6
 27 28  1  0
 22 29  1  1
 29 30  1  0
 19 31  1  0
 24 31  1  0
 22 32  1  0
 31 32  1  1
 30 33  2  0
 27 34  2  0
 30 35  1  0
 35 36  2  0
 36 37  1  0
 37 38  1  0
 37 39  2  0
 35 40  1  0
 39 41  1  0
 40 41  2  0
 38 42  2  0
 42 43  1  0
 38 44  1  0
 44 45  1  0
 45 46  1  0
 43 47  1  0
 47 48  1  0
 43 49  2  0
 44 50  2  0
 49 50  1  0
M  END
$$$$
O14757_Pocket2Mol_idx-in-all-generaetd-38
     RDKit          3D

 46 54  0  0  0  0  0  0  0  0999 V2000
    1.5482   -0.3111   41.9233 C   0  0  0  0  0  0  0  0  0  0  0  0
    2.7284    0.2018   42.1525 N   0  0  0  0  0  0  0  0  0  0  0  0
    3.7893   -0.3016   42.7005 C   0  0  0  0  0  0  0  0  0  0  0  0
    3.3781   -1.7350   43.0000 C   0  0  0  0  0  0  0  0  0  0  0  0
    2.0339   -1.9619   42.6217 C   0  0  0  0  0  0  0  0  0  0  0  0
    5.0090    0.1219   42.9340 N   0  0  0  0  0  0  0  0  0  0  0  0
    4.2895   -2.4979   43.6707 C   0  0  0  0  0  0  0  0  0  0  0  0
    5.8391   -0.6675   43.6343 C   0  0  0  0  0  0  0  0  0  0  0  0
    6.9849   -0.2377   44.0028 N   0  0  0  0  0  0  0  0  0  0  0  0
    4.0426   -3.8794   44.0832 C   0  0  0  0  0  0  0  0  0  0  0  0
    7.6796   -0.8734   44.9326 C   0  0  0  0  0  0  0  0  0  0  0  0
    1.1064   -2.9576   42.4211 C   0  0  0  0  0  0  0  0  0  0  0  0
    5.5298   -1.9496   44.0315 C   0  0  0  0  0  0  0  0  0  0  0  0
    3.8954   -4.1817   45.4718 C   0  0  0  0  0  0  0  0  0  0  0  0
    0.6765   -3.5480   43.4006 C   0  0  1  0  0  0  0  0  0  0  0  0
    0.5804   -3.2191   41.1635 C   0  0  0  0  0  0  0  0  0  0  0  0
    2.8083   -4.8227   45.9203 N   0  0  0  0  0  0  0  0  0  0  0  0
   -0.1574   -4.5754   42.9329 N   0  0  0  0  0  0  0  0  0  0  0  0
    6.5271   -2.5531   44.9677 C   0  0  0  0  0  0  0  0  0  0  0  0
   -0.2272   -4.3703   41.5137 C   0  0  0  0  0  0  0  0  0  0  0  0
    7.5095   -2.0029   45.3993 C   0  0  0  0  0  0  0  0  0  0  0  0
    8.2550   -2.6982   46.3988 C   0  0  0  0  0  0  0  0  0  0  0  0
    8.8975   -0.3029   45.3267 O   0  0  0  0  0  0  0  0  0  0  0  0
    4.8299   -4.4637   46.4212 C   0  0  0  0  0  0  0  0  0  0  0  0
    4.2707   -4.9248   47.6295 N   0  0  0  0  0  0  0  0  0  0  0  0
    3.2045   -5.2092   47.1521 C   0  0  0  0  0  0  0  0  0  0  0  0
    1.4482   -4.6186   45.4134 C   0  0  1  0  0  0  0  0  0  0  0  0
    1.2398   -3.5043   44.6236 O   0  0  0  0  0  0  0  0  0  0  0  0
    7.8521   -3.9584   46.8773 C   0  0  0  0  0  0  0  0  0  0  0  0
    8.4079   -4.7553   47.7407 C   0  0  0  0  0  0  0  0  0  0  0  0
    5.9516   -3.8110   45.9146 C   0  0  0  0  0  0  0  0  0  0  0  0
    6.6436   -4.3892   46.6649 C   0  0  0  0  0  0  0  0  0  0  0  0
    9.5111   -5.5246   47.2994 O   0  0  0  0  0  0  0  0  0  0  0  0
   10.6238   -5.0197   46.8534 C   0  0  0  0  0  0  0  0  0  0  0  0
   11.5866   -4.7361   47.6189 C   0  0  0  0  0  0  0  0  0  0  0  0
    1.2153   -5.7944   44.5753 C   0  0  0  0  0  0  0  0  0  0  0  0
   10.7023   -4.6532   45.4361 C   0  0  0  0  0  0  0  0  0  0  0  0
   11.7209   -4.2457   45.0565 C   0  0  0  0  0  0  0  0  0  0  0  0
   11.5467   -4.9832   49.1186 O   0  0  0  0  0  0  0  0  0  0  0  0
   12.3505   -5.8268   49.5929 C   0  0  0  0  0  0  0  0  0  0  0  0
   12.8150   -3.9071   45.8420 C   0  0  0  0  0  0  0  0  0  0  0  0
   12.7609   -4.0921   47.1778 C   0  0  0  0  0  0  0  0  0  0  0  0
   14.1653   -3.1593   45.3623 C   0  0  0  0  0  0  0  0  0  0  0  0
   15.3006   -3.6132   45.6495 O   0  0  0  0  0  0  0  0  0  0  0  0
   13.9843   -2.0164   44.7168 N   0  0  0  0  0  0  0  0  0  0  0  0
   15.1130   -1.3434   44.2132 C   0  0  0  0  0  0  0  0  0  0  0  0
  1  2  1  0
  2  3  2  0
  3  4  1  0
  1  5  2  0
  4  5  1  0
  3  6  1  0
  4  7  2  0
  6  8  1  0
  8  9  1  0
  7 10  1  0
  9 11  1  0
  5 12  1  0
  7 13  1  0
  8 13  2  0
 10 14  1  0
 12 15  1  0
 12 16  2  0
 14 17  1  0
 15 18  1  0
 13 19  1  0
 16 20  1  0
 18 20  2  0
 11 21  1  0
 19 21  2  0
 21 22  1  0
 11 23  2  0
 14 24  2  0
 24 25  1  0
 17 26  1  0
 25 26  2  0
 17 27  1  0
 15 28  1  6
 27 28  1  0
 22 29  2  0
 29 30  1  0
 19 31  1  0
 24 31  1  0
 29 32  1  0
 31 32  2  0
 30 33  1  0
 33 34  1  0
 34 35  2  0
 27 36  1  6
 34 37  1  0
 37 38  2  0
 35 39  1  0
 39 40  1  0
 38 41  1  0
 35 42  1  0
 41 42  2  0
 41 43  1  0
 43 44  2  0
 43 45  1  0
 45 46  1  0
M  END
$$$$
O14757_Pocket2Mol_idx-in-all-generaetd-39
     RDKit          3D

 41 49  0  0  0  0  0  0  0  0999 V2000
    4.8037   -0.1366   42.7100 N   0  0  0  0  0  0  0  0  0  0  0  0
    3.6577   -0.7759   42.7186 C   0  0  0  0  0  0  0  0  0  0  0  0
    3.6660   -1.8665   43.4760 C   0  0  0  0  0  0  0  0  0  0  0  0
    2.7271   -2.8718   43.6599 C   0  0  0  0  0  0  0  0  0  0  0  0
    2.4846   -0.2994   42.1254 N   0  0  0  0  0  0  0  0  0  0  0  0
    5.0524   -1.7697   43.9367 C   0  0  0  0  0  0  0  0  0  0  0  0
    1.4917   -2.9000   43.0914 C   0  0  0  0  0  0  0  0  0  0  0  0
    3.1274   -3.9503   44.5163 C   0  0  0  0  0  0  0  0  0  0  0  0
    1.0744   -1.9066   42.1491 C   0  0  2  0  0  0  0  0  0  0  0  0
    5.6624   -0.7003   43.4895 C   0  0  0  0  0  0  0  0  0  0  0  0
    5.5753   -2.5784   45.0324 C   0  0  0  0  0  0  0  0  0  0  0  0
    0.4030   -3.6297   43.4883 N   0  0  0  0  0  0  0  0  0  0  0  0
    1.5052   -0.8077   41.7519 C   0  0  0  0  0  0  0  0  0  0  0  0
   -0.5645   -3.4039   42.5585 N   0  0  0  0  0  0  0  0  0  0  0  0
    2.5059   -5.1012   44.7935 C   0  0  0  0  0  0  0  0  0  0  0  0
    4.4581   -3.8218   45.2947 C   0  0  0  0  0  0  0  0  0  0  0  0
   -0.3089   -2.3979   41.8128 C   0  0  0  0  0  0  0  0  0  0  0  0
    6.6435   -2.6577   45.6991 C   0  0  0  0  0  0  0  0  0  0  0  0
    7.0869   -3.7008   46.4717 C   0  0  0  0  0  0  0  0  0  0  0  0
    7.5912   -1.5296   45.5455 C   0  0  0  0  0  0  0  0  0  0  0  0
    8.7765   -1.4352   46.2248 C   0  0  0  0  0  0  0  0  0  0  0  0
    6.3069   -4.7944   46.6836 O   0  0  0  0  0  0  0  0  0  0  0  0
    4.8984   -4.5252   46.1302 C   0  0  0  0  0  0  0  0  0  0  0  0
    4.2122   -5.9932   46.2216 C   0  0  0  0  0  0  0  0  0  0  0  0
    8.3395   -3.6608   47.2172 C   0  0  0  0  0  0  0  0  0  0  0  0
    4.6690   -6.8778   47.1549 O   0  0  0  0  0  0  0  0  0  0  0  0
    9.1822   -2.5745   47.1243 C   0  0  0  0  0  0  0  0  0  0  0  0
   10.4419   -2.3733   47.8332 C   0  0  0  0  0  0  0  0  0  0  0  0
   10.5277   -1.5655   48.7043 O   0  0  0  0  0  0  0  0  0  0  0  0
    2.9373   -6.0805   45.7037 C   0  0  0  0  0  0  0  0  0  0  0  0
   11.4886   -2.8791   47.1590 O   0  0  0  0  0  0  0  0  0  0  0  0
   12.5752   -2.3359   47.1530 C   0  0  0  0  0  0  0  0  0  0  0  0
   13.6119   -3.1431   47.5861 C   0  0  0  0  0  0  0  0  0  0  0  0
   14.6644   -3.4220   46.7962 C   0  0  0  0  0  0  0  0  0  0  0  0
   15.0228   -2.5926   45.7286 C   0  0  0  0  0  0  0  0  0  0  0  0
   16.2366   -2.7191   44.9974 C   0  0  0  0  0  0  0  0  0  0  0  0
   12.8457   -1.7314   45.7599 C   0  0  0  0  0  0  0  0  0  0  0  0
   14.0523   -1.7184   45.1864 C   0  0  0  0  0  0  0  0  0  0  0  0
   17.2007   -3.6635   45.2970 C   0  0  0  0  0  0  0  0  0  0  0  0
   17.0439   -4.5865   46.2255 C   0  0  0  0  0  0  0  0  0  0  0  0
   15.8556   -4.3128   47.1529 C   0  0  0  0  0  0  0  0  0  0  0  0
  1  2  2  0
  2  3  1  0
  3  4  2  0
  2  5  1  0
  3  6  1  0
  4  7  1  0
  4  8  1  0
  7  9  1  0
  1 10  1  0
  6 10  1  0
  6 11  2  0
  7 12  2  0
  5 13  2  0
  9 13  1  1
 12 14  1  0
  8 15  2  0
  8 16  1  0
 11 16  1  0
  9 17  1  0
 14 17  2  0
 11 18  1  0
 18 19  2  0
 18 20  1  0
 20 21  2  0
 19 22  1  0
 16 23  2  0
 22 23  1  0
 23 24  1  0
 19 25  1  0
 24 26  1  0
 21 27  1  0
 25 27  2  0
 27 28  1  0
 28 29  2  0
 15 30  1  0
 24 30  2  0
 28 31  1  0
 31 32  1  0
 32 33  2  0
 33 34  1  0
 34 35  2  0
 35 36  1  0
 32 37  1  0
 35 38  1  0
 37 38  2  0
 36 39  2  0
 39 40  1  0
 34 41  1  0
 40 41  2  0
M  END
$$$$
O14757_Pocket2Mol_idx-in-all-generaetd-40
     RDKit          3D

 39 46  0  0  0  0  0  0  0  0999 V2000
    1.5482   -0.3111   41.9233 C   0  0  0  0  0  0  0  0  0  0  0  0
    2.7284    0.2018   42.1525 N   0  0  0  0  0  0  0  0  0  0  0  0
    3.7893   -0.3016   42.7005 C   0  0  0  0  0  0  0  0  0  0  0  0
    3.3781   -1.7350   43.0000 C   0  0  0  0  0  0  0  0  0  0  0  0
    2.0339   -1.9619   42.6217 C   0  0  0  0  0  0  0  0  0  0  0  0
    5.0090    0.1219   42.9340 N   0  0  0  0  0  0  0  0  0  0  0  0
    4.2895   -2.4979   43.6707 C   0  0  0  0  0  0  0  0  0  0  0  0
    5.8391   -0.6675   43.6343 C   0  0  0  0  0  0  0  0  0  0  0  0
    6.9849   -0.2377   44.0028 N   0  0  0  0  0  0  0  0  0  0  0  0
    4.0426   -3.8794   44.0832 C   0  0  0  0  0  0  0  0  0  0  0  0
    7.6796   -0.8734   44.9326 C   0  0  0  0  0  0  0  0  0  0  0  0
    1.1064   -2.9576   42.4211 C   0  0  0  0  0  0  0  0  0  0  0  0
    5.5298   -1.9496   44.0315 C   0  0  0  0  0  0  0  0  0  0  0  0
    3.8954   -4.1817   45.4718 C   0  0  0  0  0  0  0  0  0  0  0  0
    0.6765   -3.5480   43.4006 C   0  0  1  0  0  0  0  0  0  0  0  0
    0.5804   -3.2191   41.1635 C   0  0  0  0  0  0  0  0  0  0  0  0
    2.8083   -4.8227   45.9203 N   0  0  0  0  0  0  0  0  0  0  0  0
   -0.1574   -4.5754   42.9329 N   0  0  0  0  0  0  0  0  0  0  0  0
    6.5271   -2.5531   44.9677 C   0  0  0  0  0  0  0  0  0  0  0  0
   -0.2272   -4.3703   41.5137 C   0  0  0  0  0  0  0  0  0  0  0  0
    7.5095   -2.0029   45.3993 C   0  0  0  0  0  0  0  0  0  0  0  0
    8.2550   -2.6982   46.3988 C   0  0  0  0  0  0  0  0  0  0  0  0
    8.8975   -0.3029   45.3267 O   0  0  0  0  0  0  0  0  0  0  0  0
    4.8299   -4.4637   46.4212 C   0  0  0  0  0  0  0  0  0  0  0  0
    4.2707   -4.9248   47.6295 N   0  0  0  0  0  0  0  0  0  0  0  0
    3.2045   -5.2092   47.1521 C   0  0  0  0  0  0  0  0  0  0  0  0
    1.4482   -4.6186   45.4134 C   0  0  1  0  0  0  0  0  0  0  0  0
    1.2398   -3.5043   44.6236 O   0  0  0  0  0  0  0  0  0  0  0  0
    6.3317   -3.9297   46.0870 C   0  0  2  0  0  0  0  0  0  0  0  0
    9.5296   -2.5449   46.9776 C   0  0  0  0  0  0  0  0  0  0  0  0
    9.7921   -1.7530   47.9018 O   0  0  0  0  0  0  0  0  0  0  0  0
    7.3972   -3.8130   46.7939 C   0  0  0  0  0  0  0  0  0  0  0  0
    1.2392   -5.7793   44.5610 C   0  0  0  0  0  0  0  0  0  0  0  0
   10.4934   -3.0755   46.3117 N   0  0  0  0  0  0  0  0  0  0  0  0
   11.8909   -2.7870   46.6074 C   0  0  0  0  0  0  0  0  0  0  0  0
   12.5823   -3.7629   46.9107 C   0  0  0  0  0  0  0  0  0  0  0  0
   12.0631   -4.9385   46.9969 O   0  0  0  0  0  0  0  0  0  0  0  0
   12.5099   -6.0358   46.2692 C   0  0  0  0  0  0  0  0  0  0  0  0
   13.9654   -3.7865   46.7957 O   0  0  0  0  0  0  0  0  0  0  0  0
  1  2  1  0
  2  3  2  0
  3  4  1  0
  1  5  2  0
  4  5  1  0
  3  6  1  0
  4  7  2  0
  6  8  1  0
  8  9  1  0
  7 10  1  0
  9 11  1  0
  5 12  1  0
  7 13  1  0
  8 13  2  0
 10 14  1  0
 12 15  1  0
 12 16  2  0
 14 17  1  0
 15 18  1  0
 13 19  1  0
 16 20  1  0
 18 20  2  0
 11 21  1  0
 19 21  2  0
 21 22  1  0
 11 23  2  0
 14 24  2  0
 24 25  1  0
 17 26  1  0
 25 26  2  0
 17 27  1  0
 15 28  1  6
 27 28  1  0
 19 29  1  0
 24 29  1  0
 22 30  1  0
 30 31  2  0
 22 32  2  0
 29 32  1  1
 27 33  1  6
 30 34  1  0
 34 35  1  0
 35 36  1  0
 36 37  1  0
 37 38  1  0
 36 39  2  0
M  END
$$$$
O14757_Pocket2Mol_idx-in-all-generaetd-41
     RDKit          3D

 44 53  0  0  0  0  0  0  0  0999 V2000
    1.5482   -0.3111   41.9233 C   0  0  0  0  0  0  0  0  0  0  0  0
    2.7284    0.2018   42.1525 N   0  0  0  0  0  0  0  0  0  0  0  0
    3.7893   -0.3016   42.7005 C   0  0  0  0  0  0  0  0  0  0  0  0
    3.3781   -1.7350   43.0000 C   0  0  0  0  0  0  0  0  0  0  0  0
    2.0339   -1.9619   42.6217 C   0  0  0  0  0  0  0  0  0  0  0  0
    5.0090    0.1219   42.9340 N   0  0  0  0  0  0  0  0  0  0  0  0
    4.2895   -2.4979   43.6707 C   0  0  0  0  0  0  0  0  0  0  0  0
    5.8391   -0.6675   43.6343 C   0  0  0  0  0  0  0  0  0  0  0  0
    6.9849   -0.2377   44.0028 N   0  0  0  0  0  0  0  0  0  0  0  0
    4.0426   -3.8794   44.0832 C   0  0  0  0  0  0  0  0  0  0  0  0
    7.6796   -0.8734   44.9326 C   0  0  0  0  0  0  0  0  0  0  0  0
    1.1064   -2.9576   42.4211 C   0  0  0  0  0  0  0  0  0  0  0  0
    5.5298   -1.9496   44.0315 C   0  0  0  0  0  0  0  0  0  0  0  0
    3.8954   -4.1817   45.4718 C   0  0  0  0  0  0  0  0  0  0  0  0
    0.6765   -3.5480   43.4006 C   0  0  1  0  0  0  0  0  0  0  0  0
    0.5804   -3.2191   41.1635 C   0  0  0  0  0  0  0  0  0  0  0  0
    2.8083   -4.8227   45.9203 N   0  0  0  0  0  0  0  0  0  0  0  0
   -0.1574   -4.5754   42.9329 N   0  0  0  0  0  0  0  0  0  0  0  0
    6.5271   -2.5531   44.9677 C   0  0  0  0  0  0  0  0  0  0  0  0
   -0.2272   -4.3703   41.5137 C   0  0  0  0  0  0  0  0  0  0  0  0
    7.5095   -2.0029   45.3993 C   0  0  0  0  0  0  0  0  0  0  0  0
    8.2550   -2.6982   46.3988 C   0  0  2  0  0  0  0  0  0  0  0  0
    8.8975   -0.3029   45.3267 O   0  0  0  0  0  0  0  0  0  0  0  0
    4.8299   -4.4637   46.4212 C   0  0  0  0  0  0  0  0  0  0  0  0
    4.2707   -4.9248   47.6295 N   0  0  0  0  0  0  0  0  0  0  0  0
    3.2045   -5.2092   47.1521 C   0  0  0  0  0  0  0  0  0  0  0  0
    1.4482   -4.6186   45.4134 C   0  0  2  0  0  0  0  0  0  0  0  0
    1.2398   -3.5043   44.6236 O   0  0  0  0  0  0  0  0  0  0  0  0
    6.3317   -3.9297   46.0870 C   0  0  2  0  0  0  0  0  0  0  0  0
    9.5296   -2.5449   46.9776 C   0  0  0  0  0  0  0  0  0  0  0  0
    9.7921   -1.7530   47.9018 O   0  0  0  0  0  0  0  0  0  0  0  0
    7.4454   -3.8344   46.8035 C   0  0  0  0  0  0  0  0  0  0  0  0
   10.5010   -3.0847   46.3190 O   0  0  0  0  0  0  0  0  0  0  0  0
    0.5569   -4.7693   46.5649 C   0  0  0  0  0  0  0  0  0  0  0  0
   11.7452   -2.8462   46.6234 C   0  0  0  0  0  0  0  0  0  0  0  0
   12.4344   -1.8951   45.7393 C   0  0  0  0  0  0  0  0  0  0  0  0
   12.4612   -3.5429   47.5581 C   0  0  0  0  0  0  0  0  0  0  0  0
   11.7737   -4.5216   48.4115 C   0  0  0  0  0  0  0  0  0  0  0  0
   13.7789   -3.2174   47.8431 C   0  0  0  0  0  0  0  0  0  0  0  0
   14.4816   -3.8690   48.9184 C   0  0  0  0  0  0  0  0  0  0  0  0
   12.3650   -5.1478   49.4723 C   0  0  0  0  0  0  0  0  0  0  0  0
   14.3222   -2.2769   47.0191 C   0  0  0  0  0  0  0  0  0  0  0  0
   13.8426   -4.7141   49.6407 C   0  0  0  0  0  0  0  0  0  0  0  0
   13.7039   -1.6171   46.0239 C   0  0  0  0  0  0  0  0  0  0  0  0
  1  2  1  0
  2  3  2  0
  3  4  1  0
  1  5  2  0
  4  5  1  0
  3  6  1  0
  4  7  2  0
  6  8  1  0
  8  9  1  0
  7 10  1  0
  9 11  1  0
  5 12  1  0
  7 13  1  0
  8 13  2  0
 10 14  1  0
 12 15  1  0
 12 16  2  0
 14 17  1  0
 15 18  1  0
 13 19  1  0
 16 20  1  0
 18 20  2  0
 11 21  1  0
 19 21  2  0
 21 22  1  0
 11 23  2  0
 14 24  2  0
 24 25  1  0
 17 26  1  0
 25 26  2  0
 17 27  1  0
 15 28  1  6
 27 28  1  0
 19 29  1  0
 24 29  1  0
 22 30  1  6
 30 31  2  0
 22 32  1  0
 29 32  1  1
 30 33  1  0
 27 34  1  1
 33 35  1  0
 35 36  2  0
 35 37  1  0
 37 38  2  0
 37 39  1  0
 39 40  2  0
 38 41  1  0
 39 42  1  0
 40 43  1  0
 41 43  2  0
 36 44  1  0
 42 44  2  0
M  END
$$$$
O14757_Pocket2Mol_idx-in-all-generaetd-42
     RDKit          3D

 24 27  0  0  0  0  0  0  0  0999 V2000
    5.5575   -0.4055   43.2321 N   0  0  0  0  0  0  0  0  0  0  0  0
    4.5233    0.0727   42.5988 N   0  0  0  0  0  0  0  0  0  0  0  0
    5.5185   -1.4416   44.0420 C   0  0  0  0  0  0  0  0  0  0  0  0
    4.3875   -2.2245   44.1531 C   0  0  0  0  0  0  0  0  0  0  0  0
    3.2861   -1.8496   43.3848 C   0  0  0  0  0  0  0  0  0  0  0  0
    3.4114   -0.6332   42.6207 C   0  0  0  0  0  0  0  0  0  0  0  0
    2.0148   -2.5286   43.3349 C   0  0  0  0  0  0  0  0  0  0  0  0
    2.2040   -0.1772   41.8915 C   0  0  0  0  0  0  0  0  0  0  0  0
    6.7404   -1.7719   44.8313 C   0  0  0  0  0  0  0  0  0  0  0  0
    4.4493   -3.3769   44.9530 C   0  0  0  0  0  0  0  0  0  0  0  0
    0.9770   -2.1010   42.5872 C   0  0  0  0  0  0  0  0  0  0  0  0
    7.8435   -0.9501   44.8922 C   0  0  0  0  0  0  0  0  0  0  0  0
    8.8174   -1.2323   45.8656 C   0  0  0  0  0  0  0  0  0  0  0  0
    6.6450   -2.9978   45.6522 C   0  0  0  0  0  0  0  0  0  0  0  0
    9.9746   -0.4271   45.9704 O   0  0  0  0  0  0  0  0  0  0  0  0
    5.5292   -3.7498   45.6783 C   0  0  0  0  0  0  0  0  0  0  0  0
    1.1920   -0.9070   41.7693 C   0  0  0  0  0  0  0  0  0  0  0  0
   -0.3843   -2.8698   42.4939 C   0  0  0  0  0  0  0  0  0  0  0  0
    8.7251   -2.4823   46.6768 C   0  0  0  0  0  0  0  0  0  0  0  0
    7.7029   -3.2957   46.6249 C   0  0  0  0  0  0  0  0  0  0  0  0
    9.8614   -2.7430   47.5101 O   0  0  0  0  0  0  0  0  0  0  0  0
   10.0686   -2.2601   48.6242 C   0  0  0  0  0  0  0  0  0  0  0  0
   -0.2010   -4.0105   42.6774 O   0  0  0  0  0  0  0  0  0  0  0  0
   -1.2968   -2.2930   42.0897 O   0  0  0  0  0  0  0  0  0  0  0  0
  1  2  2  0
  1  3  1  0
  3  4  2  0
  4  5  1  0
  2  6  1  0
  5  6  2  0
  5  7  1  0
  6  8  1  0
  3  9  1  0
  4 10  1  0
  7 11  2  0
  9 12  2  0
 12 13  1  0
  9 14  1  0
 13 15  1  0
 10 16  2  0
 14 16  1  0
  8 17  2  0
 11 17  1  0
 11 18  1  0
 13 19  2  0
 14 20  2  0
 19 20  1  0
 19 21  1  0
 21 22  1  0
 18 23  1  0
 18 24  2  0
M  END
$$$$
O14757_Pocket2Mol_idx-in-all-generaetd-43
     RDKit          3D

 23 26  0  0  0  0  0  0  0  0999 V2000
    3.7044    0.1389   42.5158 N   0  0  0  0  0  0  0  0  0  0  0  0
    3.0206   -1.0018   42.4929 C   0  0  0  0  0  0  0  0  0  0  0  0
    3.4791   -2.0817   43.2077 C   0  0  0  0  0  0  0  0  0  0  0  0
    4.8540    0.3862   43.0582 N   0  0  0  0  0  0  0  0  0  0  0  0
    5.1377   -0.9552   43.7144 C   0  0  0  0  0  0  0  0  0  0  0  0
    1.5846   -1.0753   41.7644 C   0  0  0  0  0  0  0  0  0  0  0  0
    2.6127   -3.2469   43.2056 C   0  0  0  0  0  0  0  0  0  0  0  0
    4.6372   -2.0125   43.8200 C   0  0  0  0  0  0  0  0  0  0  0  0
    2.9973   -4.3132   44.0699 C   0  0  0  0  0  0  0  0  0  0  0  0
    5.2490   -3.1260   44.5377 C   0  0  0  0  0  0  0  0  0  0  0  0
    2.3220   -5.3356   44.3123 O   0  0  0  0  0  0  0  0  0  0  0  0
    1.3893   -3.2604   42.5359 C   0  0  0  0  0  0  0  0  0  0  0  0
    0.9530   -2.1738   41.8390 C   0  0  0  0  0  0  0  0  0  0  0  0
    6.3785   -3.0087   45.3464 C   0  0  0  0  0  0  0  0  0  0  0  0
    4.2965   -4.1585   44.8143 C   0  0  0  0  0  0  0  0  0  0  0  0
    6.7994   -3.9001   46.1713 C   0  0  0  0  0  0  0  0  0  0  0  0
    7.2541   -1.9116   45.0500 C   0  0  0  0  0  0  0  0  0  0  0  0
    8.4347   -1.7504   45.7118 C   0  0  0  0  0  0  0  0  0  0  0  0
    8.8676   -2.6745   46.5985 C   0  0  0  0  0  0  0  0  0  0  0  0
    7.9901   -3.7784   46.8970 C   0  0  0  0  0  0  0  0  0  0  0  0
   10.0573   -2.5432   47.3324 C   0  0  0  0  0  0  0  0  0  0  0  0
   10.2777   -1.7231   48.2287 O   0  0  0  0  0  0  0  0  0  0  0  0
   11.3333   -1.6817   48.9404 C   0  0  0  0  0  0  0  0  0  0  0  0
  1  2  2  0
  2  3  1  0
  1  4  1  0
  4  5  2  0
  2  6  1  0
  3  7  1  0
  3  8  2  0
  5  8  1  0
  7  9  1  0
  8 10  1  0
  9 11  2  0
  7 12  2  0
  6 13  2  0
 12 13  1  0
 10 14  1  0
  9 15  1  0
 10 15  2  0
 14 16  2  0
 14 17  1  0
 17 18  2  0
 18 19  1  0
 16 20  1  0
 19 20  2  0
 19 21  1  0
 21 22  1  0
 22 23  1  0
M  END
$$$$
O14757_Pocket2Mol_idx-in-all-generaetd-44
     RDKit          3D

 26 30  0  0  0  0  0  0  0  0999 V2000
    4.5156    0.0550   42.9895 N   0  0  0  0  0  0  0  0  0  0  0  0
    5.0618   -0.8645   43.5295 C   0  0  0  0  0  0  0  0  0  0  0  0
    4.4350   -2.0604   43.7783 C   0  0  0  0  0  0  0  0  0  0  0  0
    4.9987   -3.0994   44.5839 C   0  0  0  0  0  0  0  0  0  0  0  0
    3.2714   -1.8664   43.0632 C   0  0  0  0  0  0  0  0  0  0  0  0
    6.4064   -0.5942   44.3204 N   0  0  0  0  0  0  0  0  0  0  0  0
    4.3422   -4.3256   44.7203 C   0  0  0  0  0  0  0  0  0  0  0  0
    2.1845   -2.6668   42.8270 N   0  0  0  0  0  0  0  0  0  0  0  0
    3.3305   -0.5395   42.5465 N   0  0  0  0  0  0  0  0  0  0  0  0
    1.9502   -3.8972   43.4076 C   0  0  0  0  0  0  0  0  0  0  0  0
    2.7156   -4.1184   44.6954 N   0  0  0  0  0  0  0  0  0  0  0  0
    1.1719   -2.1982   41.9728 C   0  0  0  0  0  0  0  0  0  0  0  0
    6.8720   -1.6194   45.0791 C   0  0  0  0  0  0  0  0  0  0  0  0
    6.2034   -2.8706   45.2712 C   0  0  0  0  0  0  0  0  0  0  0  0
    0.8810   -4.3047   43.2565 N   0  0  0  0  0  0  0  0  0  0  0  0
    0.2743   -3.4662   42.2236 C   0  0  0  0  0  0  0  0  0  0  0  0
    8.1299   -1.3446   45.7773 C   0  0  0  0  0  0  0  0  0  0  0  0
    2.1237   -5.2503   45.4328 C   0  0  0  0  0  0  0  0  0  0  0  0
    8.6658   -2.2763   46.6169 C   0  0  0  0  0  0  0  0  0  0  0  0
    6.6594   -3.7971   46.2709 C   0  0  0  0  0  0  0  0  0  0  0  0
    7.9194   -3.5435   46.8361 C   0  0  0  0  0  0  0  0  0  0  0  0
    9.8587   -2.0745   47.2810 O   0  0  0  0  0  0  0  0  0  0  0  0
   10.8773   -1.6616   46.4693 C   0  0  0  0  0  0  0  0  0  0  0  0
   11.9418   -1.2176   47.1846 C   0  0  0  0  0  0  0  0  0  0  0  0
   13.0353   -0.7859   46.4106 C   0  0  0  0  0  0  0  0  0  0  0  0
   13.2370   -1.3666   45.1096 O   0  0  0  0  0  0  0  0  0  0  0  0
  1  2  2  0
  2  3  1  0
  3  4  1  0
  3  5  2  0
  2  6  1  0
  4  7  1  0
  5  8  1  0
  1  9  1  0
  5  9  1  0
  8 10  1  0
  7 11  1  0
 10 11  1  0
  8 12  1  0
  6 13  2  0
  4 14  2  0
 13 14  1  0
 10 15  2  0
 12 16  2  0
 15 16  1  0
 13 17  1  0
 11 18  1  0
 17 19  2  0
 14 20  1  0
 19 21  1  0
 20 21  2  0
 19 22  1  0
 22 23  1  0
 23 24  1  0
 24 25  1  0
 25 26  1  0
M  END
$$$$
O14757_Pocket2Mol_idx-in-all-generaetd-45
     RDKit          3D

 44 50  0  0  0  0  0  0  0  0999 V2000
    1.5482   -0.3111   41.9233 C   0  0  0  0  0  0  0  0  0  0  0  0
    2.7284    0.2018   42.1525 N   0  0  0  0  0  0  0  0  0  0  0  0
    3.7893   -0.3016   42.7005 C   0  0  0  0  0  0  0  0  0  0  0  0
    3.3781   -1.7350   43.0000 C   0  0  0  0  0  0  0  0  0  0  0  0
    2.0339   -1.9619   42.6217 C   0  0  0  0  0  0  0  0  0  0  0  0
    4.1166   -2.4997   43.8458 C   0  0  0  0  0  0  0  0  0  0  0  0
    1.1731   -3.0051   42.5773 C   0  0  0  0  0  0  0  0  0  0  0  0
    0.4701   -3.2344   41.4901 C   0  0  0  0  0  0  0  0  0  0  0  0
    5.3799   -1.7814   44.2691 C   0  0  0  0  0  0  0  0  0  0  0  0
    5.0159   -0.0180   43.1201 N   0  0  0  0  0  0  0  0  0  0  0  0
    5.7693   -0.6937   43.8418 C   0  0  0  0  0  0  0  0  0  0  0  0
    0.8078   -3.6166   43.6782 C   0  0  0  0  0  0  0  0  0  0  0  0
    0.0663   -4.7011   43.7415 N   0  0  0  0  0  0  0  0  0  0  0  0
    6.2223   -2.6843   45.1565 C   0  0  0  0  0  0  0  0  0  0  0  0
    1.4459   -3.3095   45.0236 O   0  0  0  0  0  0  0  0  0  0  0  0
   -0.5278   -5.1074   42.5506 C   0  0  0  0  0  0  0  0  0  0  0  0
   -1.3099   -6.2193   42.5332 N   0  0  0  0  0  0  0  0  0  0  0  0
   -0.3906   -4.3573   41.3904 C   0  0  0  0  0  0  0  0  0  0  0  0
    7.0535   -0.4845   44.4478 N   0  0  0  0  0  0  0  0  0  0  0  0
    0.6210   -3.8397   46.1835 C   0  0  0  0  0  0  0  0  0  0  0  0
    6.2906   -3.7888   45.8815 C   0  0  0  0  0  0  0  0  0  0  0  0
    7.3965   -1.5466   45.3147 C   0  0  0  0  0  0  0  0  0  0  0  0
    5.1449   -4.4973   46.0473 O   0  0  0  0  0  0  0  0  0  0  0  0
    7.4148   -4.1081   46.6372 C   0  0  0  0  0  0  0  0  0  0  0  0
    8.5011   -3.1747   46.6693 C   0  0  0  0  0  0  0  0  0  0  0  0
    8.4580   -1.9168   46.0438 C   0  0  0  0  0  0  0  0  0  0  0  0
    9.8193   -3.4927   47.5654 C   0  0  1  0  0  0  0  0  0  0  0  0
    4.3482   -4.5667   47.1383 C   0  0  0  0  0  0  0  0  0  0  0  0
   10.8925   -3.4519   46.9633 C   0  0  0  0  0  0  0  0  0  0  0  0
   11.7691   -2.4393   47.2298 N   0  0  0  0  0  0  0  0  0  0  0  0
   11.5679   -1.6048   48.2682 C   0  0  0  0  0  0  0  0  0  0  0  0
   13.2337   -2.7224   46.9899 C   0  0  0  0  0  0  0  0  0  0  0  0
   11.1468   -4.1806   45.9346 O   0  0  0  0  0  0  0  0  0  0  0  0
   14.0674   -3.2434   47.7193 C   0  0  0  0  0  0  0  0  0  0  0  0
   13.7337   -3.8357   48.9955 C   0  0  0  0  0  0  0  0  0  0  0  0
   10.6978   -1.8484   49.2819 O   0  0  0  0  0  0  0  0  0  0  0  0
    9.4523   -2.4064   48.7424 C   0  0  0  0  0  0  0  0  0  0  0  0
   15.3983   -3.3716   47.3589 C   0  0  0  0  0  0  0  0  0  0  0  0
   13.6455   -2.4134   45.5677 C   0  0  0  0  0  0  0  0  0  0  0  0
   14.9623   -2.4297   45.2343 C   0  0  0  0  0  0  0  0  0  0  0  0
   15.4163   -2.0814   43.8913 O   0  0  0  0  0  0  0  0  0  0  0  0
   16.3968   -3.9531   48.2499 O   0  0  0  0  0  0  0  0  0  0  0  0
   15.9471   -2.9759   46.0635 C   0  0  0  0  0  0  0  0  0  0  0  0
   14.9354   -0.9912   43.3351 C   0  0  0  0  0  0  0  0  0  0  0  0
  1  2  1  0
  2  3  2  0
  3  4  1  0
  1  5  2  0
  4  5  1  0
  4  6  2  0
  5  7  1  0
  7  8  2  0
  6  9  1  0
  3 10  1  0
  9 11  1  0
 10 11  1  0
  7 12  1  0
 12 13  2  0
  9 14  2  0
 12 15  1  0
 13 16  1  0
 16 17  1  0
  8 18  1  0
 16 18  2  0
 11 19  2  0
 15 20  1  0
 14 21  1  0
 14 22  1  0
 19 22  1  0
 21 23  1  0
 21 24  2  0
 24 25  1  0
 22 26  2  0
 25 26  2  0
 27 25  1  6
 23 28  1  0
 27 29  1  0
 29 30  1  0
 30 31  1  0
 30 32  1  0
 29 33  2  0
 32 34  2  0
 34 35  1  0
 31 36  1  0
 27 37  1  0
 36 37  1  0
 34 38  1  0
 32 39  1  0
 39 40  2  0
 40 41  1  0
 38 42  1  0
 38 43  2  0
 40 43  1  0
 41 44  1  0
M  END
$$$$
O14757_Pocket2Mol_idx-in-all-generaetd-46
     RDKit          3D

 48 55  0  0  0  0  0  0  0  0999 V2000
    5.3420    0.2589   42.8836 O   0  0  0  0  0  0  0  0  0  0  0  0
    5.1627   -0.7554   43.4753 C   0  0  0  0  0  0  0  0  0  0  0  0
    4.0509   -1.4657   43.4177 N   0  0  0  0  0  0  0  0  0  0  0  0
    5.9969   -1.2317   44.6840 C   0  0  0  0  0  0  0  0  0  0  0  0
    2.9618   -1.1021   42.5918 C   0  0  1  0  0  0  0  0  0  0  0  0
    7.3392   -0.8596   44.8412 C   0  0  0  0  0  0  0  0  0  0  0  0
    1.9754   -2.0820   42.2741 C   0  0  0  0  0  0  0  0  0  0  0  0
    5.5910   -2.4282   45.3439 C   0  0  0  0  0  0  0  0  0  0  0  0
    6.5874   -2.9636   46.1581 C   0  0  0  0  0  0  0  0  0  0  0  0
    4.2763   -3.0680   45.0493 N   0  0  0  0  0  0  0  0  0  0  0  0
    3.6188   -2.5886   44.2024 C   0  0  0  0  0  0  0  0  0  0  0  0
    8.1921   -1.4071   45.7505 C   0  0  0  0  0  0  0  0  0  0  0  0
    1.0154   -1.8839   41.2980 C   0  0  0  0  0  0  0  0  0  0  0  0
    2.5720   -3.3564   43.9063 C   0  0  0  0  0  0  0  0  0  0  0  0
    0.2502   -2.8976   41.0751 C   0  0  0  0  0  0  0  0  0  0  0  0
    6.1761   -4.1775   47.0209 C   0  0  0  0  0  0  0  0  0  0  0  0
    1.7266   -3.1047   43.0115 C   0  0  2  0  0  0  0  0  0  0  0  0
    2.3696   -4.5367   44.7536 N   0  0  0  0  0  0  0  0  0  0  0  0
    1.2264   -5.2346   44.4693 C   0  0  0  0  0  0  0  0  0  0  0  0
    0.7187   -3.8955   42.5465 C   0  0  0  0  0  0  0  0  0  0  0  0
    9.4576   -0.8949   46.0327 N   0  0  0  0  0  0  0  0  0  0  0  0
    0.8625   -6.3901   45.2462 C   0  0  0  0  0  0  0  0  0  0  0  0
    7.6467   -2.5139   46.4892 C   0  0  0  0  0  0  0  0  0  0  0  0
   10.4908   -1.5336   45.8242 C   0  0  0  0  0  0  0  0  0  0  0  0
    0.3057   -4.9299   43.2909 C   0  0  0  0  0  0  0  0  0  0  0  0
   11.5916   -1.4291   46.7436 C   0  0  0  0  0  0  0  0  0  0  0  0
   10.5566   -2.3672   44.8649 O   0  0  0  0  0  0  0  0  0  0  0  0
    2.4730    0.2084   42.8389 O   0  0  0  0  0  0  0  0  0  0  0  0
   11.6027   -2.2081   47.7725 N   0  0  0  0  0  0  0  0  0  0  0  0
   12.6189   -0.5862   46.5415 C   0  0  0  0  0  0  0  0  0  0  0  0
   13.6413   -0.4484   47.4129 C   0  0  0  0  0  0  0  0  0  0  0  0
   10.4764   -3.1097   48.1134 C   0  0  0  0  0  0  0  0  0  0  0  0
    9.5762   -2.4717   49.0753 C   0  0  0  0  0  0  0  0  0  0  0  0
    9.7761   -1.2394   49.5167 C   0  0  0  0  0  0  0  0  0  0  0  0
    8.6397   -3.3252   49.7339 C   0  0  0  0  0  0  0  0  0  0  0  0
    8.9861   -0.7034   50.5819 C   0  0  0  0  0  0  0  0  0  0  0  0
   14.7137    0.5128   47.0925 C   0  0  0  0  0  0  0  0  0  0  0  0
    8.1815   -1.5423   51.2387 C   0  0  0  0  0  0  0  0  0  0  0  0
    8.4156   -4.7176   49.2102 O   0  0  0  0  0  0  0  0  0  0  0  0
   13.6915   -1.2597   48.4795 C   0  0  0  0  0  0  0  0  0  0  0  0
   14.7842   -1.1839   49.3622 C   0  0  0  0  0  0  0  0  0  0  0  0
   12.5774   -2.1710   48.6835 C   0  0  0  0  0  0  0  0  0  0  0  0
   14.8423   -1.9939   50.5370 O   0  0  0  0  0  0  0  0  0  0  0  0
    7.9254   -2.8787   50.8112 C   0  0  0  0  0  0  0  0  0  0  0  0
    8.1000   -5.6218   49.9570 C   0  0  0  0  0  0  0  0  0  0  0  0
   15.7943   -0.2480   49.1897 C   0  0  0  0  0  0  0  0  0  0  0  0
   14.6734    1.3628   46.0134 O   0  0  0  0  0  0  0  0  0  0  0  0
   15.6837    0.6144   48.0348 C   0  0  0  0  0  0  0  0  0  0  0  0
  1  2  2  0
  2  3  1  0
  2  4  1  0
  3  5  1  0
  4  6  2  0
  5  7  1  0
  4  8  1  0
  8  9  2  0
  8 10  1  0
  3 11  1  0
 10 11  2  0
  6 12  1  0
  7 13  2  0
 11 14  1  0
 13 15  1  0
  9 16  1  0
 17  7  1  6
 14 17  1  0
 14 18  2  0
 18 19  1  0
 15 20  2  0
 17 20  1  0
 12 21  1  0
 19 22  1  0
  9 23  1  0
 12 23  2  0
 21 24  1  0
 19 25  2  0
 20 25  1  0
 24 26  1  0
 24 27  2  0
  5 28  1  1
 26 29  1  0
 26 30  2  0
 30 31  1  0
 29 32  1  0
 32 33  1  0
 33 34  2  0
 33 35  1  0
 34 36  1  0
 31 37  2  0
 36 38  2  0
 35 39  1  0
 31 40  1  0
 40 41  2  0
 29 42  1  0
 40 42  1  0
 41 43  1  0
 35 44  2  0
 38 44  1  0
 39 45  1  0
 41 46  1  0
 37 47  1  0
 37 48  1  0
 46 48  2  0
M  END
$$$$
O14757_Pocket2Mol_idx-in-all-generaetd-47
     RDKit          3D

 39 47  0  0  0  0  0  0  0  0999 V2000
    4.8037   -0.1366   42.7100 N   0  0  0  0  0  0  0  0  0  0  0  0
    3.6577   -0.7759   42.7186 C   0  0  0  0  0  0  0  0  0  0  0  0
    3.6660   -1.8665   43.4760 C   0  0  0  0  0  0  0  0  0  0  0  0
    2.7271   -2.8718   43.6599 C   0  0  0  0  0  0  0  0  0  0  0  0
    2.4846   -0.2994   42.1254 N   0  0  0  0  0  0  0  0  0  0  0  0
    5.0524   -1.7697   43.9367 C   0  0  0  0  0  0  0  0  0  0  0  0
    1.4917   -2.9000   43.0914 C   0  0  0  0  0  0  0  0  0  0  0  0
    3.1274   -3.9503   44.5163 C   0  0  0  0  0  0  0  0  0  0  0  0
    1.0744   -1.9066   42.1491 C   0  0  2  0  0  0  0  0  0  0  0  0
    5.6624   -0.7003   43.4895 C   0  0  0  0  0  0  0  0  0  0  0  0
    5.5753   -2.5784   45.0324 C   0  0  0  0  0  0  0  0  0  0  0  0
    0.4030   -3.6297   43.4883 N   0  0  0  0  0  0  0  0  0  0  0  0
    1.5052   -0.8077   41.7519 C   0  0  0  0  0  0  0  0  0  0  0  0
   -0.5645   -3.4039   42.5585 N   0  0  0  0  0  0  0  0  0  0  0  0
    2.5059   -5.1012   44.7935 C   0  0  0  0  0  0  0  0  0  0  0  0
    4.4581   -3.8218   45.2947 C   0  0  0  0  0  0  0  0  0  0  0  0
   -0.3089   -2.3979   41.8128 C   0  0  0  0  0  0  0  0  0  0  0  0
    6.6435   -2.6577   45.6991 C   0  0  0  0  0  0  0  0  0  0  0  0
    7.0869   -3.7008   46.4717 C   0  0  0  0  0  0  0  0  0  0  0  0
    7.5912   -1.5296   45.5455 C   0  0  0  0  0  0  0  0  0  0  0  0
    8.7765   -1.4352   46.2248 C   0  0  0  0  0  0  0  0  0  0  0  0
    6.3069   -4.7944   46.6836 O   0  0  0  0  0  0  0  0  0  0  0  0
    4.8984   -4.5252   46.1302 C   0  0  0  0  0  0  0  0  0  0  0  0
    4.2122   -5.9932   46.2216 C   0  0  0  0  0  0  0  0  0  0  0  0
    3.0046   -6.0549   45.6421 C   0  0  0  0  0  0  0  0  0  0  0  0
    8.2374   -3.8078   47.1146 C   0  0  0  0  0  0  0  0  0  0  0  0
    9.1909   -2.6332   47.0292 C   0  0  0  0  0  0  0  0  0  0  0  0
   10.4575   -2.6198   47.6824 O   0  0  0  0  0  0  0  0  0  0  0  0
   11.4873   -2.2059   46.9341 C   0  0  0  0  0  0  0  0  0  0  0  0
   12.2817   -1.4398   47.4308 O   0  0  0  0  0  0  0  0  0  0  0  0
   13.2946   -1.0299   46.6543 C   0  0  0  0  0  0  0  0  0  0  0  0
   13.0925   -1.0831   45.3218 C   0  0  0  0  0  0  0  0  0  0  0  0
   11.8014   -2.7848   45.6647 C   0  0  0  0  0  0  0  0  0  0  0  0
   12.3675   -2.0988   44.8604 C   0  0  0  0  0  0  0  0  0  0  0  0
   14.1163    0.0513   47.2686 C   0  0  0  0  0  0  0  0  0  0  0  0
   14.9187    0.6641   46.4231 C   0  0  0  0  0  0  0  0  0  0  0  0
   15.8454    1.6553   47.0117 O   0  0  0  0  0  0  0  0  0  0  0  0
   14.2957   -0.3486   44.6129 C   0  0  0  0  0  0  0  0  0  0  0  0
   15.0337    0.4709   45.0990 C   0  0  0  0  0  0  0  0  0  0  0  0
  1  2  2  0
  2  3  1  0
  3  4  2  0
  2  5  1  0
  3  6  1  0
  4  7  1  0
  4  8  1  0
  7  9  1  0
  1 10  1  0
  6 10  1  0
  6 11  2  0
  7 12  2  0
  5 13  2  0
  9 13  1  1
 12 14  1  0
  8 15  2  0
  8 16  1  0
 11 16  1  0
  9 17  1  0
 14 17  2  0
 11 18  1  0
 18 19  2  0
 18 20  1  0
 20 21  2  0
 19 22  1  0
 16 23  2  0
 22 23  1  0
 23 24  1  0
 15 25  1  0
 24 25  2  0
 19 26  1  0
 21 27  1  0
 26 27  2  0
 27 28  1  0
 28 29  1  0
 29 30  1  0
 30 31  1  0
 31 32  2  0
 29 33  2  0
 32 34  1  0
 33 34  1  0
 31 35  1  0
 35 36  2  0
 36 37  1  0
 32 38  1  0
 36 39  1  0
 38 39  2  0
M  END
$$$$
O14757_Pocket2Mol_idx-in-all-generaetd-48
     RDKit          3D

 43 50  0  0  0  0  0  0  0  0999 V2000
    5.3420    0.2589   42.8836 O   0  0  0  0  0  0  0  0  0  0  0  0
    5.1627   -0.7554   43.4753 C   0  0  0  0  0  0  0  0  0  0  0  0
    4.0509   -1.4657   43.4177 N   0  0  0  0  0  0  0  0  0  0  0  0
    5.9969   -1.2317   44.6840 C   0  0  0  0  0  0  0  0  0  0  0  0
    2.9618   -1.1021   42.5918 C   0  0  1  0  0  0  0  0  0  0  0  0
    7.3392   -0.8596   44.8412 C   0  0  0  0  0  0  0  0  0  0  0  0
    1.9754   -2.0820   42.2741 C   0  0  0  0  0  0  0  0  0  0  0  0
    5.5910   -2.4282   45.3439 C   0  0  0  0  0  0  0  0  0  0  0  0
    6.5874   -2.9636   46.1581 C   0  0  0  0  0  0  0  0  0  0  0  0
    4.2763   -3.0680   45.0493 N   0  0  0  0  0  0  0  0  0  0  0  0
    3.6188   -2.5886   44.2024 C   0  0  0  0  0  0  0  0  0  0  0  0
    8.1921   -1.4071   45.7505 C   0  0  0  0  0  0  0  0  0  0  0  0
    1.0154   -1.8839   41.2980 C   0  0  0  0  0  0  0  0  0  0  0  0
    2.5720   -3.3564   43.9063 C   0  0  0  0  0  0  0  0  0  0  0  0
    0.2502   -2.8976   41.0751 C   0  0  0  0  0  0  0  0  0  0  0  0
    6.1761   -4.1775   47.0209 C   0  0  0  0  0  0  0  0  0  0  0  0
    1.7266   -3.1047   43.0115 C   0  0  2  0  0  0  0  0  0  0  0  0
    2.3696   -4.5367   44.7536 N   0  0  0  0  0  0  0  0  0  0  0  0
    1.2264   -5.2346   44.4693 C   0  0  0  0  0  0  0  0  0  0  0  0
    0.7187   -3.8955   42.5465 C   0  0  0  0  0  0  0  0  0  0  0  0
    9.4576   -0.8949   46.0327 N   0  0  0  0  0  0  0  0  0  0  0  0
    0.8625   -6.3901   45.2462 C   0  0  0  0  0  0  0  0  0  0  0  0
    7.6467   -2.5139   46.4892 C   0  0  0  0  0  0  0  0  0  0  0  0
   10.4908   -1.5336   45.8242 C   0  0  0  0  0  0  0  0  0  0  0  0
    0.3057   -4.9299   43.2909 C   0  0  0  0  0  0  0  0  0  0  0  0
   11.5916   -1.4291   46.7436 C   0  0  0  0  0  0  0  0  0  0  0  0
   10.5566   -2.3672   44.8649 O   0  0  0  0  0  0  0  0  0  0  0  0
    2.4730    0.2084   42.8389 O   0  0  0  0  0  0  0  0  0  0  0  0
   11.6027   -2.2081   47.7725 N   0  0  0  0  0  0  0  0  0  0  0  0
   12.6189   -0.5862   46.5415 C   0  0  0  0  0  0  0  0  0  0  0  0
   13.6413   -0.4484   47.4129 C   0  0  0  0  0  0  0  0  0  0  0  0
   10.4764   -3.1097   48.1134 C   0  0  0  0  0  0  0  0  0  0  0  0
    9.5762   -2.4717   49.0753 C   0  0  0  0  0  0  0  0  0  0  0  0
    9.7761   -1.2394   49.5167 C   0  0  0  0  0  0  0  0  0  0  0  0
    8.6397   -3.3252   49.7339 C   0  0  0  0  0  0  0  0  0  0  0  0
    8.9861   -0.7034   50.5819 C   0  0  0  0  0  0  0  0  0  0  0  0
   12.7628   -2.0677   48.3467 C   0  0  0  0  0  0  0  0  0  0  0  0
    8.3925   -4.6975   49.1448 C   0  0  0  0  0  0  0  0  0  0  0  0
   13.7449   -1.3168   48.3092 C   0  0  0  0  0  0  0  0  0  0  0  0
    7.9223   -2.7559   50.6680 C   0  0  0  0  0  0  0  0  0  0  0  0
    6.9792   -5.0197   49.0246 N   0  0  0  0  0  0  0  0  0  0  0  0
    8.2175   -1.4390   51.1429 C   0  0  0  0  0  0  0  0  0  0  0  0
    6.5446   -5.1174   47.7438 C   0  0  0  0  0  0  0  0  0  0  0  0
  1  2  2  0
  2  3  1  0
  2  4  1  0
  3  5  1  0
  4  6  2  0
  5  7  1  0
  4  8  1  0
  8  9  2  0
  8 10  1  0
  3 11  1  0
 10 11  2  0
  6 12  1  0
  7 13  2  0
 11 14  1  0
 13 15  1  0
  9 16  1  0
 17  7  1  6
 14 17  1  0
 14 18  2  0
 18 19  1  0
 15 20  2  0
 17 20  1  0
 12 21  1  0
 19 22  1  0
  9 23  1  0
 12 23  2  0
 21 24  1  0
 19 25  2  0
 20 25  1  0
 24 26  1  0
 24 27  2  0
  5 28  1  1
 26 29  1  0
 26 30  2  0
 30 31  1  0
 29 32  1  0
 32 33  1  0
 33 34  1  0
 33 35  2  0
 34 36  2  0
 29 37  1  0
 35 38  1  0
 31 39  2  0
 37 39  1  0
 35 40  1  0
 38 41  1  0
 36 42  1  0
 40 42  2  0
 16 43  1  0
 41 43  1  0
M  END
$$$$
O14757_Pocket2Mol_idx-in-all-generaetd-49
     RDKit          3D

 30 36  0  0  0  0  0  0  0  0999 V2000
    4.8173    0.2791   42.6993 N   0  0  0  0  0  0  0  0  0  0  0  0
    5.3297   -0.7477   43.3688 C   0  0  0  0  0  0  0  0  0  0  0  0
    3.4732   -0.2235   42.4530 C   0  0  0  0  0  0  0  0  0  0  0  0
    4.4984   -1.7876   43.6214 C   0  0  0  0  0  0  0  0  0  0  0  0
    3.3438   -1.5190   42.9379 C   0  0  0  0  0  0  0  0  0  0  0  0
    2.1381   -2.3401   42.8254 C   0  0  0  0  0  0  0  0  0  0  0  0
    2.3894    0.3572   41.9843 N   0  0  0  0  0  0  0  0  0  0  0  0
    4.9180   -3.0430   44.3829 C   0  0  0  0  0  0  0  0  0  0  0  0
    5.9444   -2.9314   45.3934 C   0  0  0  0  0  0  0  0  0  0  0  0
    4.2808   -4.1329   44.3252 C   0  0  0  0  0  0  0  0  0  0  0  0
    3.1588   -4.4221   43.4852 O   0  0  0  0  0  0  0  0  0  0  0  0
    4.5704   -5.2518   45.1995 C   0  0  0  0  0  0  0  0  0  0  0  0
    1.9853   -3.6792   43.3495 C   0  0  0  0  0  0  0  0  0  0  0  0
    0.9181   -4.3294   43.4638 C   0  0  0  0  0  0  0  0  0  0  0  0
    6.7403   -1.6226   45.5272 C   0  0  2  0  0  0  0  0  0  0  0  0
    0.9752   -1.7845   42.3366 C   0  0  0  0  0  0  0  0  0  0  0  0
    6.2516   -3.7287   46.2722 C   0  0  0  0  0  0  0  0  0  0  0  0
   -0.2404   -2.4179   42.2529 C   0  0  0  0  0  0  0  0  0  0  0  0
   -1.3835   -1.8904   41.6559 N   0  0  0  0  0  0  0  0  0  0  0  0
    3.8706   -6.4216   45.1394 O   0  0  0  0  0  0  0  0  0  0  0  0
    0.9456   -0.2789   41.7649 C   0  0  0  0  0  0  0  0  0  0  0  0
   -0.2678   -3.6969   42.7575 C   0  0  0  0  0  0  0  0  0  0  0  0
    6.3913   -0.7000   44.3807 N   0  0  0  0  0  0  0  0  0  0  0  0
    2.5860   -6.5259   45.7405 C   0  0  0  0  0  0  0  0  0  0  0  0
    7.9499   -1.5695   46.0043 C   0  0  0  0  0  0  0  0  0  0  0  0
    5.3910   -5.1159   46.3580 C   0  0  0  0  0  0  0  0  0  0  0  0
    8.4983   -2.4524   46.7921 C   0  0  2  0  0  0  0  0  0  0  0  0
    8.7201   -0.4041   45.9335 O   0  0  0  0  0  0  0  0  0  0  0  0
    7.4318   -3.6941   47.2054 C   0  0  0  0  0  0  0  0  0  0  0  0
    9.2062   -2.1195   47.9503 O   0  0  0  0  0  0  0  0  0  0  0  0
  1  2  2  0
  1  3  1  0
  2  4  1  0
  3  5  1  0
  4  5  2  0
  5  6  1  0
  3  7  2  0
  4  8  1  0
  8  9  1  0
  8 10  2  0
 10 11  1  0
 10 12  1  0
  6 13  1  0
 11 13  1  0
 13 14  2  0
  9 15  1  0
  6 16  2  0
  9 17  2  0
 16 18  1  0
 18 19  1  0
 12 20  1  0
  7 21  1  0
 16 21  1  0
 14 22  1  0
 18 22  2  0
  2 23  1  0
 15 23  1  6
 20 24  1  0
 15 25  1  0
 12 26  2  0
 17 26  1  0
 25 27  1  0
 25 28  2  0
 17 29  1  0
 27 29  1  0
 27 30  1  1
M  END
$$$$
O14757_Pocket2Mol_idx-in-all-generaetd-50
     RDKit          3D

 44 51  0  0  0  0  0  0  0  0999 V2000
    5.3420    0.2589   42.8836 O   0  0  0  0  0  0  0  0  0  0  0  0
    5.1627   -0.7554   43.4753 C   0  0  0  0  0  0  0  0  0  0  0  0
    4.0509   -1.4657   43.4177 N   0  0  0  0  0  0  0  0  0  0  0  0
    5.9969   -1.2317   44.6840 C   0  0  0  0  0  0  0  0  0  0  0  0
    2.9618   -1.1021   42.5918 C   0  0  1  0  0  0  0  0  0  0  0  0
    7.3392   -0.8596   44.8412 C   0  0  0  0  0  0  0  0  0  0  0  0
    1.9754   -2.0820   42.2741 C   0  0  0  0  0  0  0  0  0  0  0  0
    5.5910   -2.4282   45.3439 C   0  0  0  0  0  0  0  0  0  0  0  0
    6.5874   -2.9636   46.1581 C   0  0  0  0  0  0  0  0  0  0  0  0
    4.2763   -3.0680   45.0493 N   0  0  0  0  0  0  0  0  0  0  0  0
    3.6188   -2.5886   44.2024 C   0  0  0  0  0  0  0  0  0  0  0  0
    8.1921   -1.4071   45.7505 C   0  0  0  0  0  0  0  0  0  0  0  0
    1.0154   -1.8839   41.2980 C   0  0  0  0  0  0  0  0  0  0  0  0
    2.5720   -3.3564   43.9063 C   0  0  0  0  0  0  0  0  0  0  0  0
    0.2502   -2.8976   41.0751 C   0  0  0  0  0  0  0  0  0  0  0  0
    6.1761   -4.1775   47.0209 C   0  0  0  0  0  0  0  0  0  0  0  0
    1.7266   -3.1047   43.0115 C   0  0  2  0  0  0  0  0  0  0  0  0
    2.3696   -4.5367   44.7536 N   0  0  0  0  0  0  0  0  0  0  0  0
    1.2264   -5.2346   44.4693 C   0  0  0  0  0  0  0  0  0  0  0  0
    0.7187   -3.8955   42.5465 C   0  0  0  0  0  0  0  0  0  0  0  0
    9.4576   -0.8949   46.0327 N   0  0  0  0  0  0  0  0  0  0  0  0
    0.8625   -6.3901   45.2462 C   0  0  0  0  0  0  0  0  0  0  0  0
    7.6467   -2.5139   46.4892 C   0  0  0  0  0  0  0  0  0  0  0  0
   10.4908   -1.5336   45.8242 C   0  0  0  0  0  0  0  0  0  0  0  0
    0.3057   -4.9299   43.2909 C   0  0  0  0  0  0  0  0  0  0  0  0
   11.5916   -1.4291   46.7436 C   0  0  0  0  0  0  0  0  0  0  0  0
   10.5566   -2.3672   44.8649 O   0  0  0  0  0  0  0  0  0  0  0  0
    2.4730    0.2084   42.8389 O   0  0  0  0  0  0  0  0  0  0  0  0
   11.6027   -2.2081   47.7725 N   0  0  0  0  0  0  0  0  0  0  0  0
   12.6189   -0.5862   46.5415 C   0  0  0  0  0  0  0  0  0  0  0  0
   13.6413   -0.4484   47.4129 C   0  0  0  0  0  0  0  0  0  0  0  0
   10.4764   -3.1097   48.1134 C   0  0  0  0  0  0  0  0  0  0  0  0
    9.5762   -2.4717   49.0753 C   0  0  0  0  0  0  0  0  0  0  0  0
    9.7761   -1.2394   49.5167 C   0  0  0  0  0  0  0  0  0  0  0  0
    8.6397   -3.3252   49.7339 C   0  0  0  0  0  0  0  0  0  0  0  0
    8.9861   -0.7034   50.5819 C   0  0  0  0  0  0  0  0  0  0  0  0
   14.7137    0.5128   47.0925 C   0  0  0  0  0  0  0  0  0  0  0  0
    8.3536   -4.6815   49.2042 C   0  0  0  0  0  0  0  0  0  0  0  0
    7.9034   -2.7594   50.6763 C   0  0  0  0  0  0  0  0  0  0  0  0
    6.9327   -5.0150   49.0248 N   0  0  0  0  0  0  0  0  0  0  0  0
    8.1305   -1.4992   51.1482 C   0  0  0  0  0  0  0  0  0  0  0  0
    6.3852   -3.9495   48.3951 C   0  0  0  0  0  0  0  0  0  0  0  0
   12.7659   -2.0815   48.3727 C   0  0  0  0  0  0  0  0  0  0  0  0
   13.7443   -1.3188   48.3137 N   0  0  0  0  0  0  0  0  0  0  0  0
  1  2  2  0
  2  3  1  0
  2  4  1  0
  3  5  1  0
  4  6  2  0
  5  7  1  0
  4  8  1  0
  8  9  2  0
  8 10  1  0
  3 11  1  0
 10 11  2  0
  6 12  1  0
  7 13  2  0
 11 14  1  0
 13 15  1  0
  9 16  1  0
 17  7  1  6
 14 17  1  0
 14 18  2  0
 18 19  1  0
 15 20  2  0
 17 20  1  0
 12 21  1  0
 19 22  1  0
  9 23  1  0
 12 23  2  0
 21 24  1  0
 19 25  2  0
 20 25  1  0
 24 26  1  0
 24 27  2  0
  5 28  1  1
 26 29  1  0
 26 30  2  0
 30 31  1  0
 29 32  1  0
 32 33  1  0
 33 34  1  0
 33 35  2  0
 34 36  2  0
 31 37  1  0
 35 38  1  0
 35 39  1  0
 38 40  1  0
 36 41  1  0
 39 41  2  0
 16 42  1  0
 40 42  1  0
 29 43  1  0
 31 44  2  0
 43 44  1  0
M  END
$$$$
O14757_Pocket2Mol_idx-in-all-generaetd-51
     RDKit          3D

 42 49  0  0  0  0  0  0  0  0999 V2000
    1.5482   -0.3111   41.9233 C   0  0  0  0  0  0  0  0  0  0  0  0
    2.7284    0.2018   42.1525 N   0  0  0  0  0  0  0  0  0  0  0  0
    3.7893   -0.3016   42.7005 C   0  0  0  0  0  0  0  0  0  0  0  0
    3.3781   -1.7350   43.0000 C   0  0  0  0  0  0  0  0  0  0  0  0
    2.0339   -1.9619   42.6217 C   0  0  0  0  0  0  0  0  0  0  0  0
    4.1166   -2.4997   43.8458 C   0  0  0  0  0  0  0  0  0  0  0  0
    1.1731   -3.0051   42.5773 C   0  0  0  0  0  0  0  0  0  0  0  0
    0.4701   -3.2344   41.4901 C   0  0  0  0  0  0  0  0  0  0  0  0
    5.3799   -1.7814   44.2691 C   0  0  0  0  0  0  0  0  0  0  0  0
    5.0159   -0.0180   43.1201 N   0  0  0  0  0  0  0  0  0  0  0  0
    5.7693   -0.6937   43.8418 C   0  0  0  0  0  0  0  0  0  0  0  0
    0.8078   -3.6166   43.6782 C   0  0  0  0  0  0  0  0  0  0  0  0
    0.0663   -4.7011   43.7415 N   0  0  0  0  0  0  0  0  0  0  0  0
    6.2223   -2.6843   45.1565 C   0  0  0  0  0  0  0  0  0  0  0  0
    6.9599   -0.2351   44.2608 N   0  0  0  0  0  0  0  0  0  0  0  0
    5.9065   -3.9037   45.7499 N   0  0  0  0  0  0  0  0  0  0  0  0
   -0.5459   -5.1185   42.5870 C   0  0  0  0  0  0  0  0  0  0  0  0
    5.7480   -4.0340   46.9810 C   0  0  0  0  0  0  0  0  0  0  0  0
    7.4448   -1.8511   45.4198 C   0  0  0  0  0  0  0  0  0  0  0  0
    7.7572   -0.7827   45.0128 C   0  0  0  0  0  0  0  0  0  0  0  0
    8.4076   -2.7217   46.4541 C   0  0  0  0  0  0  0  0  0  0  0  0
    9.3167   -2.0988   47.1049 N   0  0  0  0  0  0  0  0  0  0  0  0
   -0.4719   -4.3893   41.5406 C   0  0  0  0  0  0  0  0  0  0  0  0
    8.3667   -4.0284   46.5743 N   0  0  0  0  0  0  0  0  0  0  0  0
    9.5309   -4.3147   47.3094 C   0  0  0  0  0  0  0  0  0  0  0  0
    5.3113   -3.3789   47.8005 O   0  0  0  0  0  0  0  0  0  0  0  0
    9.9022   -5.6301   47.7684 C   0  0  0  0  0  0  0  0  0  0  0  0
    5.4470   -5.5868   47.2096 C   0  0  0  0  0  0  0  0  0  0  0  0
   11.2254   -5.8679   48.0402 C   0  0  0  0  0  0  0  0  0  0  0  0
    8.9736   -6.6532   47.8548 C   0  0  0  0  0  0  0  0  0  0  0  0
   10.0616   -3.0670   47.6360 C   0  0  0  0  0  0  0  0  0  0  0  0
    7.5566   -6.3564   47.5477 N   0  0  0  0  0  0  0  0  0  0  0  0
    6.4157   -6.1721   48.0913 C   0  0  0  0  0  0  0  0  0  0  0  0
   12.3275   -4.8510   47.9324 C   0  0  2  0  0  0  0  0  0  0  0  0
    9.4585   -7.9662   48.0726 C   0  0  0  0  0  0  0  0  0  0  0  0
   11.5288   -2.7910   48.1740 C   0  0  0  0  0  0  0  0  0  0  0  0
   13.6010   -5.5179   48.0202 O   0  0  0  0  0  0  0  0  0  0  0  0
   11.6306   -7.1387   48.1870 C   0  0  0  0  0  0  0  0  0  0  0  0
   12.2848   -3.4444   48.4497 C   0  0  0  0  0  0  0  0  0  0  0  0
    8.4737   -9.0517   48.1621 O   0  0  0  0  0  0  0  0  0  0  0  0
   10.7522   -8.3181   48.3920 C   0  0  0  0  0  0  0  0  0  0  0  0
    8.8926  -10.2902   47.7669 C   0  0  0  0  0  0  0  0  0  0  0  0
  1  2  1  0
  2  3  2  0
  3  4  1  0
  1  5  2  0
  4  5  1  0
  4  6  2  0
  5  7  1  0
  7  8  2  0
  6  9  1  0
  3 10  1  0
  9 11  2  0
 10 11  1  0
  7 12  1  0
 12 13  2  0
  9 14  1  0
 11 15  1  0
 14 16  1  0
 13 17  1  0
 16 18  1  0
 14 19  2  0
 15 20  2  0
 19 20  1  0
 19 21  1  0
 21 22  2  0
  8 23  1  0
 17 23  2  0
 21 24  1  0
 24 25  1  0
 18 26  2  0
 25 27  1  0
 18 28  1  0
 27 29  2  0
 27 30  1  0
 22 31  1  0
 25 31  2  0
 30 32  1  0
 28 33  1  0
 32 33  1  0
 29 34  1  0
 30 35  2  0
 31 36  1  0
 34 37  1  1
 29 38  1  0
 34 39  1  0
 36 39  2  0
 35 40  1  0
 35 41  1  0
 38 41  2  0
 40 42  1  0
M  END
$$$$
O14757_Pocket2Mol_idx-in-all-generaetd-52
     RDKit          3D

 34 40  0  0  0  0  0  0  0  0999 V2000
    4.5156    0.0550   42.9895 N   0  0  0  0  0  0  0  0  0  0  0  0
    5.0618   -0.8645   43.5295 C   0  0  0  0  0  0  0  0  0  0  0  0
    4.4350   -2.0604   43.7783 C   0  0  0  0  0  0  0  0  0  0  0  0
    4.9987   -3.0994   44.5839 C   0  0  0  0  0  0  0  0  0  0  0  0
    3.2714   -1.8664   43.0632 C   0  0  0  0  0  0  0  0  0  0  0  0
    6.4064   -0.5942   44.3204 N   0  0  0  0  0  0  0  0  0  0  0  0
    4.3422   -4.3256   44.7203 C   0  0  0  0  0  0  0  0  0  0  0  0
    2.1845   -2.6668   42.8270 N   0  0  0  0  0  0  0  0  0  0  0  0
    3.3305   -0.5395   42.5465 N   0  0  0  0  0  0  0  0  0  0  0  0
    1.9502   -3.8972   43.4076 C   0  0  0  0  0  0  0  0  0  0  0  0
    2.7156   -4.1184   44.6954 N   0  0  0  0  0  0  0  0  0  0  0  0
    6.8581   -1.5862   45.1101 C   0  0  0  0  0  0  0  0  0  0  0  0
    6.1801   -2.8430   45.2383 C   0  0  0  0  0  0  0  0  0  0  0  0
    2.1454   -5.1901   45.5771 C   0  0  0  0  0  0  0  0  0  0  0  0
    8.0137   -1.3946   45.8526 C   0  0  0  0  0  0  0  0  0  0  0  0
    0.9733   -4.5725   43.2066 O   0  0  0  0  0  0  0  0  0  0  0  0
    2.2437    0.0035   41.8733 C   0  0  0  0  0  0  0  0  0  0  0  0
    1.3210   -2.2077   41.7009 C   0  0  0  0  0  0  0  0  0  0  0  0
    8.6047   -2.2876   46.6923 C   0  0  0  0  0  0  0  0  0  0  0  0
    7.9141   -3.5157   46.8869 C   0  0  0  0  0  0  0  0  0  0  0  0
    1.0501   -0.8658   41.6612 C   0  0  0  0  0  0  0  0  0  0  0  0
    6.7278   -3.7718   46.2525 C   0  0  0  0  0  0  0  0  0  0  0  0
    9.8280   -2.0492   47.3361 C   0  0  0  0  0  0  0  0  0  0  0  0
    9.8262   -1.5735   48.5432 C   0  0  0  0  0  0  0  0  0  0  0  0
   11.0745   -2.0905   46.6735 C   0  0  0  0  0  0  0  0  0  0  0  0
    8.5798   -1.4294   49.3788 F   0  0  0  0  0  0  0  0  0  0  0  0
   12.2255   -1.7445   47.2852 C   0  0  0  0  0  0  0  0  0  0  0  0
   11.0129   -1.2913   49.2988 C   0  0  0  0  0  0  0  0  0  0  0  0
   11.0580   -2.4152   45.0953 C   0  0  0  0  0  0  0  0  0  0  0  0
   12.2034   -1.4549   48.6570 C   0  0  0  0  0  0  0  0  0  0  0  0
   13.4827   -1.8601   46.6777 C   0  0  0  0  0  0  0  0  0  0  0  0
   12.1526   -2.3806   44.6378 C   0  0  0  0  0  0  0  0  0  0  0  0
   12.3056   -2.6607   43.2386 O   0  0  0  0  0  0  0  0  0  0  0  0
   13.5587   -2.0924   45.2135 C   0  0  0  0  0  0  0  0  0  0  0  0
  1  2  2  0
  2  3  1  0
  3  4  1  0
  3  5  2  0
  2  6  1  0
  4  7  1  0
  5  8  1  0
  1  9  1  0
  5  9  1  0
  8 10  1  0
  7 11  1  0
 10 11  1  0
  6 12  2  0
  4 13  2  0
 12 13  1  0
 11 14  1  0
 12 15  1  0
 10 16  2  0
  9 17  1  0
  8 18  1  0
 15 19  2  0
 19 20  1  0
 17 21  1  0
 18 21  1  0
 13 22  1  0
 20 22  2  0
 19 23  1  0
 23 24  2  0
 23 25  1  0
 24 26  1  0
 25 27  2  0
 24 28  1  0
 25 29  1  0
 27 30  1  0
 28 30  2  0
 27 31  1  0
 29 32  2  0
 32 33  1  0
 31 34  2  0
 32 34  1  0
M  END
$$$$
O14757_Pocket2Mol_idx-in-all-generaetd-53
     RDKit          3D

 47 56  0  0  0  0  0  0  0  0999 V2000
    1.5482   -0.3111   41.9233 C   0  0  0  0  0  0  0  0  0  0  0  0
    2.7284    0.2018   42.1525 N   0  0  0  0  0  0  0  0  0  0  0  0
    3.7893   -0.3016   42.7005 C   0  0  0  0  0  0  0  0  0  0  0  0
    3.3781   -1.7350   43.0000 C   0  0  0  0  0  0  0  0  0  0  0  0
    2.0339   -1.9619   42.6217 C   0  0  0  0  0  0  0  0  0  0  0  0
    5.0090    0.1219   42.9340 N   0  0  0  0  0  0  0  0  0  0  0  0
    4.2895   -2.4979   43.6707 C   0  0  0  0  0  0  0  0  0  0  0  0
    5.8391   -0.6675   43.6343 C   0  0  0  0  0  0  0  0  0  0  0  0
    6.9849   -0.2377   44.0028 N   0  0  0  0  0  0  0  0  0  0  0  0
    4.0426   -3.8794   44.0832 C   0  0  0  0  0  0  0  0  0  0  0  0
    7.6796   -0.8734   44.9326 C   0  0  0  0  0  0  0  0  0  0  0  0
    1.1064   -2.9576   42.4211 C   0  0  0  0  0  0  0  0  0  0  0  0
    5.5298   -1.9496   44.0315 C   0  0  0  0  0  0  0  0  0  0  0  0
    3.8954   -4.1817   45.4718 C   0  0  0  0  0  0  0  0  0  0  0  0
    0.6765   -3.5480   43.4006 C   0  0  1  0  0  0  0  0  0  0  0  0
    0.5804   -3.2191   41.1635 C   0  0  0  0  0  0  0  0  0  0  0  0
    2.8083   -4.8227   45.9203 N   0  0  0  0  0  0  0  0  0  0  0  0
   -0.1574   -4.5754   42.9329 N   0  0  0  0  0  0  0  0  0  0  0  0
    6.5271   -2.5531   44.9677 C   0  0  0  0  0  0  0  0  0  0  0  0
   -0.2272   -4.3703   41.5137 C   0  0  0  0  0  0  0  0  0  0  0  0
    7.5095   -2.0029   45.3993 C   0  0  0  0  0  0  0  0  0  0  0  0
    8.2550   -2.6982   46.3988 C   0  0  1  0  0  0  0  0  0  0  0  0
    8.8975   -0.3029   45.3267 O   0  0  0  0  0  0  0  0  0  0  0  0
    4.8299   -4.4637   46.4212 C   0  0  0  0  0  0  0  0  0  0  0  0
    4.2707   -4.9248   47.6295 N   0  0  0  0  0  0  0  0  0  0  0  0
    3.2045   -5.2092   47.1521 C   0  0  0  0  0  0  0  0  0  0  0  0
    1.4482   -4.6186   45.4134 C   0  0  0  0  0  0  0  0  0  0  0  0
    1.3256   -3.7660   44.6394 N   0  0  0  0  0  0  0  0  0  0  0  0
    9.2816   -2.1418   47.1273 N   0  0  0  0  0  0  0  0  0  0  0  0
   10.0629   -3.1324   47.8508 C   0  0  0  0  0  0  0  0  0  0  0  0
    6.3491   -3.8960   46.0844 C   0  0  2  0  0  0  0  0  0  0  0  0
    7.4349   -3.5889   46.9054 C   0  0  0  0  0  0  0  0  0  0  0  0
   10.3145   -2.7271   49.0818 O   0  0  0  0  0  0  0  0  0  0  0  0
    0.6213   -5.4445   45.7455 O   0  0  0  0  0  0  0  0  0  0  0  0
   11.0262   -3.8136   47.1050 C   0  0  0  0  0  0  0  0  0  0  0  0
   12.1704   -3.3854   46.7547 C   0  0  0  0  0  0  0  0  0  0  0  0
   13.1080   -4.1111   46.0053 C   0  0  0  0  0  0  0  0  0  0  0  0
   14.3489   -3.5966   45.7888 C   0  0  0  0  0  0  0  0  0  0  0  0
   12.7430   -5.2725   45.5056 C   0  0  0  0  0  0  0  0  0  0  0  0
   14.6935   -2.2816   45.3353 C   0  0  0  0  0  0  0  0  0  0  0  0
   15.8828   -1.9964   44.9887 C   0  0  0  0  0  0  0  0  0  0  0  0
   15.4347   -4.4529   45.9716 C   0  0  0  0  0  0  0  0  0  0  0  0
   16.7721   -4.1219   45.6921 C   0  0  0  0  0  0  0  0  0  0  0  0
   11.3688   -5.7097   45.8726 C   0  0  0  0  0  0  0  0  0  0  0  0
   17.8587   -5.0161   45.8548 O   0  0  0  0  0  0  0  0  0  0  0  0
   10.5613   -5.0170   46.6517 C   0  0  0  0  0  0  0  0  0  0  0  0
   17.0016   -2.8007   45.1872 C   0  0  0  0  0  0  0  0  0  0  0  0
  1  2  1  0
  2  3  2  0
  3  4  1  0
  1  5  2  0
  4  5  1  0
  3  6  1  0
  4  7  2  0
  6  8  1  0
  8  9  1  0
  7 10  1  0
  9 11  1  0
  5 12  1  0
  7 13  1  0
  8 13  2  0
 10 14  1  0
 12 15  1  0
 12 16  2  0
 14 17  1  0
 15 18  1  0
 13 19  1  0
 16 20  1  0
 18 20  2  0
 11 21  1  0
 19 21  2  0
 21 22  1  0
 11 23  2  0
 14 24  2  0
 24 25  1  0
 17 26  1  0
 25 26  2  0
 17 27  1  0
 15 28  1  6
 27 28  1  0
 22 29  1  1
 29 30  1  0
 19 31  1  0
 24 31  1  0
 22 32  1  0
 31 32  1  1
 30 33  2  0
 27 34  2  0
 30 35  1  0
 35 36  2  0
 36 37  1  0
 37 38  1  0
 37 39  2  0
 38 40  2  0
 40 41  1  0
 38 42  1  0
 42 43  2  0
 39 44  1  0
 43 45  1  0
 35 46  1  0
 44 46  2  0
 41 47  2  0
 43 47  1  0
M  END
$$$$
O14757_Pocket2Mol_idx-in-all-generaetd-54
     RDKit          3D

 34 40  0  0  0  0  0  0  0  0999 V2000
    4.8037   -0.1366   42.7100 N   0  0  0  0  0  0  0  0  0  0  0  0
    3.6577   -0.7759   42.7186 C   0  0  0  0  0  0  0  0  0  0  0  0
    3.6660   -1.8665   43.4760 C   0  0  0  0  0  0  0  0  0  0  0  0
    2.7271   -2.8718   43.6599 C   0  0  0  0  0  0  0  0  0  0  0  0
    2.4846   -0.2994   42.1254 N   0  0  0  0  0  0  0  0  0  0  0  0
    5.0524   -1.7697   43.9367 C   0  0  0  0  0  0  0  0  0  0  0  0
    1.4917   -2.9000   43.0914 C   0  0  0  0  0  0  0  0  0  0  0  0
    3.1274   -3.9503   44.5163 C   0  0  0  0  0  0  0  0  0  0  0  0
    1.0744   -1.9066   42.1491 C   0  0  2  0  0  0  0  0  0  0  0  0
    5.6624   -0.7003   43.4895 C   0  0  0  0  0  0  0  0  0  0  0  0
    5.5753   -2.5784   45.0324 C   0  0  0  0  0  0  0  0  0  0  0  0
    0.4030   -3.6297   43.4883 N   0  0  0  0  0  0  0  0  0  0  0  0
    1.5052   -0.8077   41.7519 C   0  0  0  0  0  0  0  0  0  0  0  0
   -0.5645   -3.4039   42.5585 N   0  0  0  0  0  0  0  0  0  0  0  0
    2.5059   -5.1012   44.7935 C   0  0  0  0  0  0  0  0  0  0  0  0
    4.4581   -3.8218   45.2947 C   0  0  0  0  0  0  0  0  0  0  0  0
   -0.3089   -2.3979   41.8128 C   0  0  0  0  0  0  0  0  0  0  0  0
    6.6435   -2.6577   45.6991 C   0  0  0  0  0  0  0  0  0  0  0  0
    7.0869   -3.7008   46.4717 C   0  0  0  0  0  0  0  0  0  0  0  0
    7.5912   -1.5296   45.5455 C   0  0  0  0  0  0  0  0  0  0  0  0
    8.7765   -1.4352   46.2248 C   0  0  0  0  0  0  0  0  0  0  0  0
    6.3069   -4.7944   46.6836 O   0  0  0  0  0  0  0  0  0  0  0  0
    4.8984   -4.5252   46.1302 C   0  0  0  0  0  0  0  0  0  0  0  0
    4.2122   -5.9932   46.2216 C   0  0  0  0  0  0  0  0  0  0  0  0
    8.3395   -3.6608   47.2172 C   0  0  0  0  0  0  0  0  0  0  0  0
    4.6690   -6.8778   47.1549 O   0  0  0  0  0  0  0  0  0  0  0  0
    9.1822   -2.5745   47.1243 C   0  0  0  0  0  0  0  0  0  0  0  0
    2.9294   -6.0876   45.6584 C   0  0  0  0  0  0  0  0  0  0  0  0
   10.6189   -2.4417   47.8512 C   0  0  0  0  0  0  0  0  0  0  0  0
   10.7314   -1.5102   48.5876 O   0  0  0  0  0  0  0  0  0  0  0  0
   11.4971   -3.1547   47.2404 O   0  0  0  0  0  0  0  0  0  0  0  0
   12.6503   -2.6724   47.0560 C   0  0  0  0  0  0  0  0  0  0  0  0
   12.7640   -2.3159   45.6064 C   0  0  0  0  0  0  0  0  0  0  0  0
   13.8486   -1.6752   45.1753 O   0  0  0  0  0  0  0  0  0  0  0  0
  1  2  2  0
  2  3  1  0
  3  4  2  0
  2  5  1  0
  3  6  1  0
  4  7  1  0
  4  8  1  0
  7  9  1  0
  1 10  1  0
  6 10  1  0
  6 11  2  0
  7 12  2  0
  5 13  2  0
  9 13  1  1
 12 14  1  0
  8 15  2  0
  8 16  1  0
 11 16  1  0
  9 17  1  0
 14 17  2  0
 11 18  1  0
 18 19  2  0
 18 20  1  0
 20 21  2  0
 19 22  1  0
 16 23  2  0
 22 23  1  0
 23 24  1  0
 19 25  1  0
 24 26  1  0
 21 27  1  0
 25 27  2  0
 15 28  1  0
 24 28  2  0
 27 29  1  0
 29 30  2  0
 29 31  1  0
 31 32  1  0
 32 33  1  0
 33 34  1  0
M  END
$$$$
O14757_Pocket2Mol_idx-in-all-generaetd-55
     RDKit          3D

 39 43  0  0  0  0  0  0  0  0999 V2000
    3.7044    0.1389   42.5158 N   0  0  0  0  0  0  0  0  0  0  0  0
    3.0206   -1.0018   42.4929 C   0  0  0  0  0  0  0  0  0  0  0  0
    3.4791   -2.0817   43.2077 C   0  0  0  0  0  0  0  0  0  0  0  0
    4.8540    0.3862   43.0582 N   0  0  0  0  0  0  0  0  0  0  0  0
    5.1377   -0.9552   43.7144 C   0  0  0  0  0  0  0  0  0  0  0  0
    1.5846   -1.0753   41.7644 C   0  0  0  0  0  0  0  0  0  0  0  0
    4.6026   -2.0358   43.8129 C   0  0  0  0  0  0  0  0  0  0  0  0
    5.1584   -3.1511   44.6069 C   0  0  0  0  0  0  0  0  0  0  0  0
    6.6094   -0.7911   44.3696 N   0  0  0  0  0  0  0  0  0  0  0  0
    4.4744   -4.3270   44.8472 C   0  0  0  0  0  0  0  0  0  0  0  0
    6.9275   -1.8713   45.2437 C   0  0  0  0  0  0  0  0  0  0  0  0
    8.2702   -1.7750   45.8768 C   0  0  0  0  0  0  0  0  0  0  0  0
    0.9365   -0.0867   41.7346 O   0  0  0  0  0  0  0  0  0  0  0  0
    6.2322   -3.0484   45.3118 C   0  0  0  0  0  0  0  0  0  0  0  0
    6.7747   -4.0433   46.1202 N   0  0  0  0  0  0  0  0  0  0  0  0
    1.2161   -2.2739   41.2518 N   0  0  0  0  0  0  0  0  0  0  0  0
    9.0373   -0.5649   45.9132 O   0  0  0  0  0  0  0  0  0  0  0  0
    3.8907   -5.0906   43.9511 O   0  0  0  0  0  0  0  0  0  0  0  0
    4.3454   -4.8388   46.1621 N   0  0  0  0  0  0  0  0  0  0  0  0
    3.4531   -5.8952   46.4159 C   0  0  0  0  0  0  0  0  0  0  0  0
    8.6904   -2.8983   46.6073 N   0  0  0  0  0  0  0  0  0  0  0  0
    7.9257   -3.9393   46.7384 C   0  0  0  0  0  0  0  0  0  0  0  0
    8.4765   -4.8975   47.5307 O   0  0  0  0  0  0  0  0  0  0  0  0
   10.0100   -2.6771   47.3464 C   0  0  0  0  0  0  0  0  0  0  0  0
   10.0326   -1.8380   48.3764 C   0  0  0  0  0  0  0  0  0  0  0  0
   11.1123   -3.0851   46.6870 C   0  0  0  0  0  0  0  0  0  0  0  0
   11.1072   -3.8213   45.4597 C   0  0  0  0  0  0  0  0  0  0  0  0
   11.0296   -5.0092   45.4509 C   0  0  0  0  0  0  0  0  0  0  0  0
   12.3326   -2.5048   47.0028 C   0  0  0  0  0  0  0  0  0  0  0  0
   13.5735   -2.8551   46.3066 C   0  0  0  0  0  0  0  0  0  0  0  0
   12.4256   -1.8909   48.2805 C   0  0  0  0  0  0  0  0  0  0  0  0
   11.1065   -5.8602   44.2346 C   0  0  0  0  0  0  0  0  0  0  0  0
   13.7113   -1.5168   48.7735 C   0  0  0  0  0  0  0  0  0  0  0  0
   14.8334   -2.4198   46.8061 C   0  0  0  0  0  0  0  0  0  0  0  0
    8.9079   -1.6677   49.1756 O   0  0  0  0  0  0  0  0  0  0  0  0
   16.0616   -2.6613   46.0884 O   0  0  0  0  0  0  0  0  0  0  0  0
   11.3571   -1.5354   49.0613 C   0  0  0  0  0  0  0  0  0  0  0  0
   13.9153   -0.8008   49.9776 O   0  0  0  0  0  0  0  0  0  0  0  0
   15.0118   -1.7107   48.0470 C   0  0  0  0  0  0  0  0  0  0  0  0
  1  2  2  0
  2  3  1  0
  1  4  1  0
  4  5  2  0
  2  6  1  0
  3  7  2  0
  5  7  1  0
  7  8  1  0
  5  9  1  0
  8 10  1  0
  9 11  2  0
 11 12  1  0
  6 13  2  0
  8 14  2  0
 11 14  1  0
 14 15  1  0
  6 16  1  0
 12 17  2  0
 10 18  2  0
 10 19  1  0
 19 20  1  0
 12 21  1  0
 15 22  1  0
 21 22  1  0
 22 23  2  0
 21 24  1  0
 24 25  2  0
 24 26  1  0
 26 27  1  0
 27 28  2  3
 26 29  2  0
 29 30  1  0
 29 31  1  0
 28 32  1  0
 31 33  1  0
 30 34  2  0
 25 35  1  0
 34 36  1  0
 25 37  1  0
 31 37  2  0
 33 38  1  0
 33 39  2  0
 34 39  1  0
M  END
$$$$
O14757_Pocket2Mol_idx-in-all-generaetd-56
     RDKit          3D

 41 48  0  0  0  0  0  0  0  0999 V2000
    1.5482   -0.3111   41.9233 C   0  0  0  0  0  0  0  0  0  0  0  0
    2.7284    0.2018   42.1525 N   0  0  0  0  0  0  0  0  0  0  0  0
    3.7893   -0.3016   42.7005 C   0  0  0  0  0  0  0  0  0  0  0  0
    3.3781   -1.7350   43.0000 C   0  0  0  0  0  0  0  0  0  0  0  0
    2.0339   -1.9619   42.6217 C   0  0  0  0  0  0  0  0  0  0  0  0
    4.1166   -2.4997   43.8458 C   0  0  0  0  0  0  0  0  0  0  0  0
    1.1731   -3.0051   42.5773 C   0  0  0  0  0  0  0  0  0  0  0  0
    0.4701   -3.2344   41.4901 C   0  0  0  0  0  0  0  0  0  0  0  0
    5.3799   -1.7814   44.2691 C   0  0  0  0  0  0  0  0  0  0  0  0
    5.0159   -0.0180   43.1201 N   0  0  0  0  0  0  0  0  0  0  0  0
    5.7693   -0.6937   43.8418 C   0  0  0  0  0  0  0  0  0  0  0  0
    0.8078   -3.6166   43.6782 C   0  0  0  0  0  0  0  0  0  0  0  0
    0.0663   -4.7011   43.7415 N   0  0  0  0  0  0  0  0  0  0  0  0
    6.2223   -2.6843   45.1565 C   0  0  0  0  0  0  0  0  0  0  0  0
    6.9599   -0.2351   44.2608 N   0  0  0  0  0  0  0  0  0  0  0  0
    5.9065   -3.9037   45.7499 N   0  0  0  0  0  0  0  0  0  0  0  0
   -0.5459   -5.1185   42.5870 C   0  0  0  0  0  0  0  0  0  0  0  0
    5.7480   -4.0340   46.9810 C   0  0  0  0  0  0  0  0  0  0  0  0
    7.4448   -1.8511   45.4198 C   0  0  0  0  0  0  0  0  0  0  0  0
    7.7572   -0.7827   45.0128 C   0  0  0  0  0  0  0  0  0  0  0  0
    8.4076   -2.7217   46.4541 C   0  0  0  0  0  0  0  0  0  0  0  0
    9.3167   -2.0988   47.1049 N   0  0  0  0  0  0  0  0  0  0  0  0
   -0.4719   -4.3893   41.5406 C   0  0  0  0  0  0  0  0  0  0  0  0
    8.3667   -4.0284   46.5743 N   0  0  0  0  0  0  0  0  0  0  0  0
    9.5309   -4.3147   47.3094 C   0  0  0  0  0  0  0  0  0  0  0  0
    5.3113   -3.3789   47.8005 O   0  0  0  0  0  0  0  0  0  0  0  0
    9.9022   -5.6301   47.7684 C   0  0  0  0  0  0  0  0  0  0  0  0
    5.4470   -5.5868   47.2096 C   0  0  0  0  0  0  0  0  0  0  0  0
   11.2254   -5.8679   48.0402 C   0  0  0  0  0  0  0  0  0  0  0  0
    8.9736   -6.6532   47.8548 C   0  0  0  0  0  0  0  0  0  0  0  0
   10.0616   -3.0670   47.6360 C   0  0  0  0  0  0  0  0  0  0  0  0
    7.5566   -6.3564   47.5477 N   0  0  0  0  0  0  0  0  0  0  0  0
    6.4157   -6.1721   48.0913 C   0  0  0  0  0  0  0  0  0  0  0  0
   12.3275   -4.8510   47.9324 C   0  0  2  0  0  0  0  0  0  0  0  0
    9.4585   -7.9662   48.0726 C   0  0  0  0  0  0  0  0  0  0  0  0
   11.5288   -2.7910   48.1740 C   0  0  0  0  0  0  0  0  0  0  0  0
   13.6010   -5.5179   48.0202 O   0  0  0  0  0  0  0  0  0  0  0  0
   11.5403   -1.3581   48.4281 O   0  0  0  0  0  0  0  0  0  0  0  0
   12.4470   -3.5547   48.3188 N   0  0  0  0  0  0  0  0  0  0  0  0
   11.6461   -6.9796   48.4557 C   0  0  0  0  0  0  0  0  0  0  0  0
   10.7746   -8.0648   48.4386 C   0  0  0  0  0  0  0  0  0  0  0  0
  1  2  1  0
  2  3  2  0
  3  4  1  0
  1  5  2  0
  4  5  1  0
  4  6  2  0
  5  7  1  0
  7  8  2  0
  6  9  1  0
  3 10  1  0
  9 11  2  0
 10 11  1  0
  7 12  1  0
 12 13  2  0
  9 14  1  0
 11 15  1  0
 14 16  1  0
 13 17  1  0
 16 18  1  0
 14 19  2  0
 15 20  2  0
 19 20  1  0
 19 21  1  0
 21 22  2  0
  8 23  1  0
 17 23  2  0
 21 24  1  0
 24 25  1  0
 18 26  2  0
 25 27  1  0
 18 28  1  0
 27 29  2  0
 27 30  1  0
 22 31  1  0
 25 31  2  0
 30 32  1  0
 28 33  1  0
 32 33  1  0
 29 34  1  0
 30 35  2  0
 31 36  1  0
 34 37  1  1
 36 38  2  0
 34 39  1  0
 36 39  1  0
 29 40  1  0
 35 41  1  0
 40 41  2  0
M  END
$$$$
O14757_Pocket2Mol_idx-in-all-generaetd-57
     RDKit          3D

 37 42  0  0  0  0  0  0  0  0999 V2000
    5.3420    0.2589   42.8836 O   0  0  0  0  0  0  0  0  0  0  0  0
    5.1627   -0.7554   43.4753 C   0  0  0  0  0  0  0  0  0  0  0  0
    4.0509   -1.4657   43.4177 N   0  0  0  0  0  0  0  0  0  0  0  0
    5.9969   -1.2317   44.6840 C   0  0  0  0  0  0  0  0  0  0  0  0
    2.9618   -1.1021   42.5918 C   0  0  1  0  0  0  0  0  0  0  0  0
    7.3392   -0.8596   44.8412 C   0  0  0  0  0  0  0  0  0  0  0  0
    1.9754   -2.0820   42.2741 C   0  0  0  0  0  0  0  0  0  0  0  0
    5.5910   -2.4282   45.3439 C   0  0  0  0  0  0  0  0  0  0  0  0
    6.5874   -2.9636   46.1581 C   0  0  0  0  0  0  0  0  0  0  0  0
    4.2763   -3.0680   45.0493 N   0  0  0  0  0  0  0  0  0  0  0  0
    3.6188   -2.5886   44.2024 C   0  0  0  0  0  0  0  0  0  0  0  0
    8.1921   -1.4071   45.7505 C   0  0  0  0  0  0  0  0  0  0  0  0
    1.0154   -1.8839   41.2980 C   0  0  0  0  0  0  0  0  0  0  0  0
    2.5720   -3.3564   43.9063 C   0  0  0  0  0  0  0  0  0  0  0  0
    0.2502   -2.8976   41.0751 C   0  0  0  0  0  0  0  0  0  0  0  0
    6.1761   -4.1775   47.0209 C   0  0  0  0  0  0  0  0  0  0  0  0
    1.7266   -3.1047   43.0115 C   0  0  2  0  0  0  0  0  0  0  0  0
    2.3696   -4.5367   44.7536 N   0  0  0  0  0  0  0  0  0  0  0  0
    1.2264   -5.2346   44.4693 C   0  0  0  0  0  0  0  0  0  0  0  0
    0.7187   -3.8955   42.5465 C   0  0  0  0  0  0  0  0  0  0  0  0
    9.4576   -0.8949   46.0327 N   0  0  0  0  0  0  0  0  0  0  0  0
    0.8625   -6.3901   45.2462 C   0  0  0  0  0  0  0  0  0  0  0  0
    7.6467   -2.5139   46.4892 C   0  0  0  0  0  0  0  0  0  0  0  0
   10.4908   -1.5336   45.8242 C   0  0  0  0  0  0  0  0  0  0  0  0
    0.3057   -4.9299   43.2909 C   0  0  0  0  0  0  0  0  0  0  0  0
   11.5916   -1.4291   46.7436 C   0  0  0  0  0  0  0  0  0  0  0  0
   10.5566   -2.3672   44.8649 O   0  0  0  0  0  0  0  0  0  0  0  0
    2.4730    0.2084   42.8389 O   0  0  0  0  0  0  0  0  0  0  0  0
   11.6027   -2.2081   47.7725 N   0  0  0  0  0  0  0  0  0  0  0  0
   12.6189   -0.5862   46.5415 C   0  0  0  0  0  0  0  0  0  0  0  0
   13.6413   -0.4484   47.4129 C   0  0  0  0  0  0  0  0  0  0  0  0
   10.4764   -3.1097   48.1134 C   0  0  0  0  0  0  0  0  0  0  0  0
    9.5762   -2.4717   49.0753 C   0  0  0  0  0  0  0  0  0  0  0  0
    9.7761   -1.2394   49.5167 O   0  0  0  0  0  0  0  0  0  0  0  0
    8.5184   -3.1146   49.5122 O   0  0  0  0  0  0  0  0  0  0  0  0
   12.6452   -2.1413   48.6204 C   0  0  0  0  0  0  0  0  0  0  0  0
   13.7138   -1.2802   48.5113 C   0  0  0  0  0  0  0  0  0  0  0  0
  1  2  2  0
  2  3  1  0
  2  4  1  0
  3  5  1  0
  4  6  2  0
  5  7  1  0
  4  8  1  0
  8  9  2  0
  8 10  1  0
  3 11  1  0
 10 11  2  0
  6 12  1  0
  7 13  2  0
 11 14  1  0
 13 15  1  0
  9 16  1  0
 17  7  1  6
 14 17  1  0
 14 18  2  0
 18 19  1  0
 15 20  2  0
 17 20  1  0
 12 21  1  0
 19 22  1  0
  9 23  1  0
 12 23  2  0
 21 24  1  0
 19 25  2  0
 20 25  1  0
 24 26  1  0
 24 27  2  0
  5 28  1  1
 26 29  1  0
 26 30  2  0
 30 31  1  0
 29 32  1  0
 32 33  1  0
 33 34  2  0
 33 35  1  0
 29 36  1  0
 31 37  2  0
 36 37  1  0
M  END
$$$$
O14757_Pocket2Mol_idx-in-all-generaetd-58
     RDKit          3D

 28 32  0  0  0  0  0  0  0  0999 V2000
    1.5482   -0.3111   41.9233 C   0  0  0  0  0  0  0  0  0  0  0  0
    2.7284    0.2018   42.1525 N   0  0  0  0  0  0  0  0  0  0  0  0
    3.7893   -0.3016   42.7005 C   0  0  0  0  0  0  0  0  0  0  0  0
    3.3781   -1.7350   43.0000 C   0  0  0  0  0  0  0  0  0  0  0  0
    2.0339   -1.9619   42.6217 C   0  0  0  0  0  0  0  0  0  0  0  0
    4.1166   -2.4997   43.8458 C   0  0  0  0  0  0  0  0  0  0  0  0
    1.1731   -3.0051   42.5773 C   0  0  0  0  0  0  0  0  0  0  0  0
    0.4701   -3.2344   41.4901 C   0  0  0  0  0  0  0  0  0  0  0  0
    5.3799   -1.7814   44.2691 C   0  0  0  0  0  0  0  0  0  0  0  0
    5.0159   -0.0180   43.1201 N   0  0  0  0  0  0  0  0  0  0  0  0
    5.7693   -0.6937   43.8418 C   0  0  0  0  0  0  0  0  0  0  0  0
    0.8078   -3.6166   43.6782 C   0  0  0  0  0  0  0  0  0  0  0  0
    0.0663   -4.7011   43.7415 N   0  0  0  0  0  0  0  0  0  0  0  0
    6.2223   -2.6843   45.1565 C   0  0  0  0  0  0  0  0  0  0  0  0
    1.4459   -3.3095   45.0236 O   0  0  0  0  0  0  0  0  0  0  0  0
   -0.5278   -5.1074   42.5506 C   0  0  0  0  0  0  0  0  0  0  0  0
   -1.3099   -6.2193   42.5332 N   0  0  0  0  0  0  0  0  0  0  0  0
   -0.3906   -4.3573   41.3904 C   0  0  0  0  0  0  0  0  0  0  0  0
    7.0535   -0.4845   44.4478 N   0  0  0  0  0  0  0  0  0  0  0  0
    0.6210   -3.8397   46.1835 C   0  0  0  0  0  0  0  0  0  0  0  0
    6.2906   -3.7888   45.8815 C   0  0  0  0  0  0  0  0  0  0  0  0
    7.3965   -1.5466   45.3147 C   0  0  2  0  0  0  0  0  0  0  0  0
    8.4891   -1.8052   46.0149 C   0  0  0  0  0  0  0  0  0  0  0  0
    7.4470   -4.0779   46.6400 C   0  0  0  0  0  0  0  0  0  0  0  0
    9.5197   -0.9904   46.2301 C   0  0  0  0  0  0  0  0  0  0  0  0
    8.5135   -3.0823   46.7300 C   0  0  0  0  0  0  0  0  0  0  0  0
   10.6577   -1.1638   45.9432 O   0  0  0  0  0  0  0  0  0  0  0  0
    9.2135    0.1043   46.8194 O   0  0  0  0  0  0  0  0  0  0  0  0
  1  2  1  0
  2  3  2  0
  3  4  1  0
  1  5  2  0
  4  5  1  0
  4  6  2  0
  5  7  1  0
  7  8  2  0
  6  9  1  0
  3 10  1  0
  9 11  1  0
 10 11  1  0
  7 12  1  0
 12 13  2  0
  9 14  2  0
 12 15  1  0
 13 16  1  0
 16 17  1  0
  8 18  1  0
 16 18  2  0
 11 19  2  0
 15 20  1  0
 14 21  1  0
 14 22  1  0
 22 19  1  6
 22 23  1  0
 21 24  2  0
 23 25  1  0
 23 26  2  0
 24 26  1  0
 25 27  2  0
 25 28  1  0
M  END
$$$$
O14757_Pocket2Mol_idx-in-all-generaetd-59
     RDKit          3D

 38 43  0  0  0  0  0  0  0  0999 V2000
    1.5482   -0.3111   41.9233 C   0  0  0  0  0  0  0  0  0  0  0  0
    2.7284    0.2018   42.1525 N   0  0  0  0  0  0  0  0  0  0  0  0
    3.7893   -0.3016   42.7005 C   0  0  0  0  0  0  0  0  0  0  0  0
    3.3781   -1.7350   43.0000 C   0  0  0  0  0  0  0  0  0  0  0  0
    2.0339   -1.9619   42.6217 C   0  0  0  0  0  0  0  0  0  0  0  0
    4.1166   -2.4997   43.8458 C   0  0  0  0  0  0  0  0  0  0  0  0
    1.1731   -3.0051   42.5773 C   0  0  0  0  0  0  0  0  0  0  0  0
    0.4701   -3.2344   41.4901 C   0  0  0  0  0  0  0  0  0  0  0  0
    5.3799   -1.7814   44.2691 C   0  0  0  0  0  0  0  0  0  0  0  0
    5.0159   -0.0180   43.1201 N   0  0  0  0  0  0  0  0  0  0  0  0
    5.7693   -0.6937   43.8418 C   0  0  0  0  0  0  0  0  0  0  0  0
    0.8078   -3.6166   43.6782 C   0  0  0  0  0  0  0  0  0  0  0  0
    0.0663   -4.7011   43.7415 N   0  0  0  0  0  0  0  0  0  0  0  0
    6.2223   -2.6843   45.1565 C   0  0  0  0  0  0  0  0  0  0  0  0
    1.4459   -3.3095   45.0236 O   0  0  0  0  0  0  0  0  0  0  0  0
   -0.5278   -5.1074   42.5506 C   0  0  0  0  0  0  0  0  0  0  0  0
   -1.3099   -6.2193   42.5332 N   0  0  0  0  0  0  0  0  0  0  0  0
   -0.3906   -4.3573   41.3904 C   0  0  0  0  0  0  0  0  0  0  0  0
    7.0535   -0.4845   44.4478 N   0  0  0  0  0  0  0  0  0  0  0  0
    0.6210   -3.8397   46.1835 C   0  0  0  0  0  0  0  0  0  0  0  0
    6.2906   -3.7888   45.8815 C   0  0  0  0  0  0  0  0  0  0  0  0
    7.3868   -4.0307   46.6450 C   0  0  0  0  0  0  0  0  0  0  0  0
    7.2911   -1.6471   45.3058 C   0  0  2  0  0  0  0  0  0  0  0  0
    8.4503   -3.1394   46.7342 C   0  0  0  0  0  0  0  0  0  0  0  0
    8.4698   -1.9481   46.2096 C   0  0  0  0  0  0  0  0  0  0  0  0
    9.5355   -3.4574   47.6466 O   0  0  0  0  0  0  0  0  0  0  0  0
   10.7239   -3.2394   47.1960 C   0  0  0  0  0  0  0  0  0  0  0  0
   11.3519   -4.3113   46.6932 C   0  0  0  0  0  0  0  0  0  0  0  0
   11.3844   -1.9750   47.3381 C   0  0  0  0  0  0  0  0  0  0  0  0
   12.6499   -1.8546   46.8770 C   0  0  0  0  0  0  0  0  0  0  0  0
   10.6955   -5.5950   46.5459 O   0  0  0  0  0  0  0  0  0  0  0  0
   11.1062   -6.5176   47.2888 C   0  0  0  0  0  0  0  0  0  0  0  0
   13.3383   -0.5589   46.9164 C   0  0  0  0  0  0  0  0  0  0  0  0
   13.7693   -0.1296   45.7134 O   0  0  0  0  0  0  0  0  0  0  0  0
   13.2349   -3.0615   46.1611 C   0  0  0  0  0  0  0  0  0  0  0  0
   13.2055    0.2060   47.8316 O   0  0  0  0  0  0  0  0  0  0  0  0
   14.6274   -2.8214   45.6656 O   0  0  0  0  0  0  0  0  0  0  0  0
   12.7198   -4.2898   46.0508 C   0  0  0  0  0  0  0  0  0  0  0  0
  1  2  1  0
  2  3  2  0
  3  4  1  0
  1  5  2  0
  4  5  1  0
  4  6  2  0
  5  7  1  0
  7  8  2  0
  6  9  1  0
  3 10  1  0
  9 11  1  0
 10 11  1  0
  7 12  1  0
 12 13  2  0
  9 14  2  0
 12 15  1  0
 13 16  1  0
 16 17  1  0
  8 18  1  0
 16 18  2  0
 11 19  2  0
 15 20  1  0
 14 21  1  0
 21 22  2  0
 14 23  1  0
 19 23  1  0
 22 24  1  0
 23 25  1  6
 24 25  2  0
 24 26  1  0
 26 27  1  0
 27 28  2  0
 27 29  1  0
 29 30  2  0
 28 31  1  0
 31 32  1  0
 30 33  1  0
 33 34  2  0
 30 35  1  0
 33 36  1  0
 35 37  1  0
 28 38  1  0
 35 38  2  0
M  END
$$$$
O14757_Pocket2Mol_idx-in-all-generaetd-60
     RDKit          3D

 35 40  0  0  0  0  0  0  0  0999 V2000
    5.3420    0.2589   42.8836 O   0  0  0  0  0  0  0  0  0  0  0  0
    5.1627   -0.7554   43.4753 C   0  0  0  0  0  0  0  0  0  0  0  0
    4.0509   -1.4657   43.4177 N   0  0  0  0  0  0  0  0  0  0  0  0
    5.9969   -1.2317   44.6840 C   0  0  0  0  0  0  0  0  0  0  0  0
    2.9618   -1.1021   42.5918 C   0  0  0  0  0  0  0  0  0  0  0  0
    7.3392   -0.8596   44.8412 C   0  0  0  0  0  0  0  0  0  0  0  0
    1.9754   -2.0820   42.2741 C   0  0  0  0  0  0  0  0  0  0  0  0
    5.5910   -2.4282   45.3439 C   0  0  0  0  0  0  0  0  0  0  0  0
    6.5874   -2.9636   46.1581 C   0  0  0  0  0  0  0  0  0  0  0  0
    4.2763   -3.0680   45.0493 N   0  0  0  0  0  0  0  0  0  0  0  0
    3.6188   -2.5886   44.2024 C   0  0  0  0  0  0  0  0  0  0  0  0
    8.1921   -1.4071   45.7505 C   0  0  0  0  0  0  0  0  0  0  0  0
    1.0154   -1.8839   41.2980 C   0  0  0  0  0  0  0  0  0  0  0  0
    2.5720   -3.3564   43.9063 C   0  0  0  0  0  0  0  0  0  0  0  0
    0.2502   -2.8976   41.0751 C   0  0  0  0  0  0  0  0  0  0  0  0
    6.1761   -4.1775   47.0209 C   0  0  0  0  0  0  0  0  0  0  0  0
    1.7266   -3.1047   43.0115 C   0  0  2  0  0  0  0  0  0  0  0  0
    2.3696   -4.5367   44.7536 N   0  0  0  0  0  0  0  0  0  0  0  0
    1.2264   -5.2346   44.4693 C   0  0  0  0  0  0  0  0  0  0  0  0
    0.7187   -3.8955   42.5465 C   0  0  0  0  0  0  0  0  0  0  0  0
    9.4576   -0.8949   46.0327 N   0  0  0  0  0  0  0  0  0  0  0  0
    0.8625   -6.3901   45.2462 C   0  0  0  0  0  0  0  0  0  0  0  0
    7.6467   -2.5139   46.4892 C   0  0  0  0  0  0  0  0  0  0  0  0
   10.4908   -1.5336   45.8242 C   0  0  0  0  0  0  0  0  0  0  0  0
    0.3057   -4.9299   43.2909 C   0  0  0  0  0  0  0  0  0  0  0  0
   11.5916   -1.4291   46.7436 C   0  0  0  0  0  0  0  0  0  0  0  0
   10.5566   -2.3672   44.8649 O   0  0  0  0  0  0  0  0  0  0  0  0
   11.6051   -2.2111   47.7709 N   0  0  0  0  0  0  0  0  0  0  0  0
   12.6215   -0.5876   46.5424 C   0  0  0  0  0  0  0  0  0  0  0  0
   12.5420   -2.0938   48.7186 C   0  0  0  0  0  0  0  0  0  0  0  0
    3.0270    0.0702   42.0603 O   0  0  0  0  0  0  0  0  0  0  0  0
   12.6957    0.2513   45.2919 C   0  0  0  0  0  0  0  0  0  0  0  0
   13.6707   -0.5939   47.5160 C   0  0  0  0  0  0  0  0  0  0  0  0
   12.5041   -3.0819   49.9184 C   0  0  0  0  0  0  0  0  0  0  0  0
   13.6645   -1.3508   48.5631 C   0  0  0  0  0  0  0  0  0  0  0  0
  1  2  2  0
  2  3  1  0
  2  4  1  0
  3  5  1  0
  4  6  2  0
  5  7  1  0
  4  8  1  0
  8  9  2  0
  8 10  1  0
  3 11  1  0
 10 11  2  0
  6 12  1  0
  7 13  2  0
 11 14  1  0
 13 15  1  0
  9 16  1  0
 17  7  1  6
 14 17  1  0
 14 18  2  0
 18 19  1  0
 15 20  2  0
 17 20  1  0
 12 21  1  0
 19 22  1  0
  9 23  1  0
 12 23  2  0
 21 24  1  0
 19 25  2  0
 20 25  1  0
 24 26  1  0
 24 27  2  0
 26 28  2  0
 26 29  1  0
 28 30  1  0
  5 31  2  0
 29 32  1  0
 29 33  2  0
 30 34  1  0
 30 35  2  0
 33 35  1  0
M  END
$$$$
O14757_Pocket2Mol_idx-in-all-generaetd-61
     RDKit          3D

 33 37  0  0  0  0  0  0  0  0999 V2000
    4.5156    0.0550   42.9895 N   0  0  0  0  0  0  0  0  0  0  0  0
    5.0618   -0.8645   43.5295 C   0  0  0  0  0  0  0  0  0  0  0  0
    4.4350   -2.0604   43.7783 C   0  0  0  0  0  0  0  0  0  0  0  0
    4.9987   -3.0994   44.5839 C   0  0  0  0  0  0  0  0  0  0  0  0
    3.2714   -1.8664   43.0632 C   0  0  0  0  0  0  0  0  0  0  0  0
    6.4064   -0.5942   44.3204 N   0  0  0  0  0  0  0  0  0  0  0  0
    4.3422   -4.3256   44.7203 C   0  0  0  0  0  0  0  0  0  0  0  0
    2.1845   -2.6668   42.8270 N   0  0  0  0  0  0  0  0  0  0  0  0
    6.7872   -1.6740   45.1626 C   0  0  0  0  0  0  0  0  0  0  0  0
    3.3364   -0.5682   42.5216 C   0  0  0  0  0  0  0  0  0  0  0  0
    6.0794   -2.8367   45.2418 C   0  0  0  0  0  0  0  0  0  0  0  0
    2.2080   -0.0040   41.8105 N   0  0  0  0  0  0  0  0  0  0  0  0
    3.5122   -4.5717   45.8882 C   0  0  0  0  0  0  0  0  0  0  0  0
    8.0343   -1.3439   45.8176 C   0  0  0  0  0  0  0  0  0  0  0  0
    8.5676   -2.2678   46.6666 C   0  0  0  0  0  0  0  0  0  0  0  0
    1.2034   -0.9715   41.7505 C   0  0  0  0  0  0  0  0  0  0  0  0
    9.7543   -2.0263   47.4257 C   0  0  1  0  0  0  0  0  0  0  0  0
   10.9435   -2.3462   46.8726 C   0  0  0  0  0  0  0  0  0  0  0  0
    2.0759   -4.8825   45.5393 N   0  0  0  0  0  0  0  0  0  0  0  0
    1.2148   -2.2334   42.1576 C   0  0  0  0  0  0  0  0  0  0  0  0
    9.6982   -0.8148   48.0427 O   0  0  0  0  0  0  0  0  0  0  0  0
   11.0881   -3.3882   46.0717 O   0  0  0  0  0  0  0  0  0  0  0  0
    7.6623   -3.4449   46.9706 C   0  0  0  0  0  0  0  0  0  0  0  0
    6.5323   -3.6370   46.2770 C   0  0  0  0  0  0  0  0  0  0  0  0
    0.0607   -3.1280   41.9172 C   0  0  0  0  0  0  0  0  0  0  0  0
   12.3311   -3.5802   45.4279 C   0  0  0  0  0  0  0  0  0  0  0  0
   11.7186   -1.3261   46.7020 C   0  0  0  0  0  0  0  0  0  0  0  0
   12.1074   -0.6139   47.6871 O   0  0  0  0  0  0  0  0  0  0  0  0
   -0.3863   -3.3709   40.6959 O   0  0  0  0  0  0  0  0  0  0  0  0
    1.0768   -4.0688   45.7368 C   0  0  0  0  0  0  0  0  0  0  0  0
    0.2411   -3.9036   44.8688 N   0  0  0  0  0  0  0  0  0  0  0  0
   -0.6544   -3.6460   42.8525 N   0  0  0  0  0  0  0  0  0  0  0  0
    0.1462   -4.2590   43.8408 N   0  0  0  0  0  0  0  0  0  0  0  0
  1  2  2  0
  2  3  1  0
  3  4  1  0
  3  5  2  0
  2  6  1  0
  4  7  1  0
  5  8  1  0
  6  9  2  0
  1 10  1  0
  5 10  1  0
  4 11  2  0
  9 11  1  0
 10 12  2  0
  7 13  1  0
  9 14  1  0
 14 15  2  0
 12 16  1  0
 15 17  1  0
 17 18  1  0
 13 19  1  0
  8 20  2  0
 16 20  1  0
 17 21  1  6
 18 22  1  0
 15 23  1  0
 11 24  1  0
 23 24  2  0
 20 25  1  0
 22 26  1  0
 18 27  2  3
 27 28  1  0
 25 29  2  0
 19 30  1  0
 30 31  2  3
 25 32  1  0
 31 33  1  0
 32 33  1  0
M  END
$$$$
O14757_Pocket2Mol_idx-in-all-generaetd-62
     RDKit          3D

 47 53  0  0  0  0  0  0  0  0999 V2000
    5.3420    0.2589   42.8836 O   0  0  0  0  0  0  0  0  0  0  0  0
    5.1627   -0.7554   43.4753 C   0  0  0  0  0  0  0  0  0  0  0  0
    4.0509   -1.4657   43.4177 N   0  0  0  0  0  0  0  0  0  0  0  0
    5.9969   -1.2317   44.6840 C   0  0  0  0  0  0  0  0  0  0  0  0
    2.9618   -1.1021   42.5918 C   0  0  1  0  0  0  0  0  0  0  0  0
    7.3392   -0.8596   44.8412 C   0  0  0  0  0  0  0  0  0  0  0  0
    1.9754   -2.0820   42.2741 C   0  0  0  0  0  0  0  0  0  0  0  0
    5.5910   -2.4282   45.3439 C   0  0  0  0  0  0  0  0  0  0  0  0
    6.5874   -2.9636   46.1581 C   0  0  0  0  0  0  0  0  0  0  0  0
    4.2763   -3.0680   45.0493 N   0  0  0  0  0  0  0  0  0  0  0  0
    3.6188   -2.5886   44.2024 C   0  0  0  0  0  0  0  0  0  0  0  0
    8.1921   -1.4071   45.7505 C   0  0  0  0  0  0  0  0  0  0  0  0
    1.0154   -1.8839   41.2980 C   0  0  0  0  0  0  0  0  0  0  0  0
    2.5720   -3.3564   43.9063 C   0  0  0  0  0  0  0  0  0  0  0  0
    0.2502   -2.8976   41.0751 C   0  0  0  0  0  0  0  0  0  0  0  0
    6.1761   -4.1775   47.0209 C   0  0  0  0  0  0  0  0  0  0  0  0
    1.7266   -3.1047   43.0115 C   0  0  2  0  0  0  0  0  0  0  0  0
    2.3696   -4.5367   44.7536 N   0  0  0  0  0  0  0  0  0  0  0  0
    1.2264   -5.2346   44.4693 C   0  0  0  0  0  0  0  0  0  0  0  0
    0.7187   -3.8955   42.5465 C   0  0  0  0  0  0  0  0  0  0  0  0
    9.4576   -0.8949   46.0327 N   0  0  0  0  0  0  0  0  0  0  0  0
    0.8625   -6.3901   45.2462 C   0  0  0  0  0  0  0  0  0  0  0  0
    7.6467   -2.5139   46.4892 C   0  0  0  0  0  0  0  0  0  0  0  0
   10.4908   -1.5336   45.8242 C   0  0  0  0  0  0  0  0  0  0  0  0
    0.3057   -4.9299   43.2909 C   0  0  0  0  0  0  0  0  0  0  0  0
   11.5916   -1.4291   46.7436 C   0  0  0  0  0  0  0  0  0  0  0  0
   10.5566   -2.3672   44.8649 O   0  0  0  0  0  0  0  0  0  0  0  0
    2.4730    0.2084   42.8389 O   0  0  0  0  0  0  0  0  0  0  0  0
   11.6027   -2.2081   47.7725 N   0  0  0  0  0  0  0  0  0  0  0  0
   12.6189   -0.5862   46.5415 C   0  0  0  0  0  0  0  0  0  0  0  0
   13.6413   -0.4484   47.4129 C   0  0  0  0  0  0  0  0  0  0  0  0
   10.4764   -3.1097   48.1134 C   0  0  0  0  0  0  0  0  0  0  0  0
    9.5762   -2.4717   49.0753 C   0  0  0  0  0  0  0  0  0  0  0  0
    9.7761   -1.2394   49.5167 C   0  0  0  0  0  0  0  0  0  0  0  0
    8.6397   -3.3252   49.7339 C   0  0  0  0  0  0  0  0  0  0  0  0
    8.9861   -0.7034   50.5819 C   0  0  0  0  0  0  0  0  0  0  0  0
   14.7137    0.5128   47.0925 C   0  0  0  0  0  0  0  0  0  0  0  0
    8.1815   -1.5423   51.2387 C   0  0  0  0  0  0  0  0  0  0  0  0
    8.4156   -4.7176   49.2102 O   0  0  0  0  0  0  0  0  0  0  0  0
   13.6915   -1.2597   48.4795 C   0  0  0  0  0  0  0  0  0  0  0  0
   14.7842   -1.1839   49.3622 C   0  0  0  0  0  0  0  0  0  0  0  0
   12.5774   -2.1710   48.6835 C   0  0  0  0  0  0  0  0  0  0  0  0
   14.8423   -1.9939   50.5370 O   0  0  0  0  0  0  0  0  0  0  0  0
    7.9254   -2.8787   50.8112 C   0  0  0  0  0  0  0  0  0  0  0  0
   14.6734    1.3692   45.9797 O   0  0  0  0  0  0  0  0  0  0  0  0
   15.8165   -0.4771   49.1996 O   0  0  0  0  0  0  0  0  0  0  0  0
    8.0575   -5.6031   49.9710 C   0  0  0  0  0  0  0  0  0  0  0  0
  1  2  2  0
  2  3  1  0
  2  4  1  0
  3  5  1  0
  4  6  2  0
  5  7  1  0
  4  8  1  0
  8  9  2  0
  8 10  1  0
  3 11  1  0
 10 11  2  0
  6 12  1  0
  7 13  2  0
 11 14  1  0
 13 15  1  0
  9 16  1  0
 17  7  1  6
 14 17  1  0
 14 18  2  0
 18 19  1  0
 15 20  2  0
 17 20  1  0
 12 21  1  0
 19 22  1  0
  9 23  1  0
 12 23  2  0
 21 24  1  0
 19 25  2  0
 20 25  1  0
 24 26  1  0
 24 27  2  0
  5 28  1  1
 26 29  1  0
 26 30  2  0
 30 31  1  0
 29 32  1  0
 32 33  1  0
 33 34  2  0
 33 35  1  0
 34 36  1  0
 31 37  1  0
 36 38  2  0
 35 39  1  0
 31 40  2  0
 40 41  1  0
 29 42  1  0
 40 42  1  0
 41 43  1  0
 35 44  2  0
 38 44  1  0
 37 45  1  0
 41 46  2  0
 39 47  1  0
M  END
$$$$
O14757_Pocket2Mol_idx-in-all-generaetd-63
     RDKit          3D

 41 48  0  0  0  0  0  0  0  0999 V2000
    1.5482   -0.3111   41.9233 C   0  0  0  0  0  0  0  0  0  0  0  0
    2.7284    0.2018   42.1525 N   0  0  0  0  0  0  0  0  0  0  0  0
    3.7893   -0.3016   42.7005 C   0  0  0  0  0  0  0  0  0  0  0  0
    3.3781   -1.7350   43.0000 C   0  0  0  0  0  0  0  0  0  0  0  0
    2.0339   -1.9619   42.6217 C   0  0  0  0  0  0  0  0  0  0  0  0
    4.1166   -2.4997   43.8458 C   0  0  0  0  0  0  0  0  0  0  0  0
    1.1731   -3.0051   42.5773 C   0  0  0  0  0  0  0  0  0  0  0  0
    0.4701   -3.2344   41.4901 C   0  0  0  0  0  0  0  0  0  0  0  0
    5.3799   -1.7814   44.2691 C   0  0  0  0  0  0  0  0  0  0  0  0
    5.0159   -0.0180   43.1201 N   0  0  0  0  0  0  0  0  0  0  0  0
    5.7693   -0.6937   43.8418 C   0  0  0  0  0  0  0  0  0  0  0  0
    0.8078   -3.6166   43.6782 C   0  0  0  0  0  0  0  0  0  0  0  0
    0.0663   -4.7011   43.7415 N   0  0  0  0  0  0  0  0  0  0  0  0
    6.2223   -2.6843   45.1565 C   0  0  0  0  0  0  0  0  0  0  0  0
    6.9599   -0.2351   44.2608 N   0  0  0  0  0  0  0  0  0  0  0  0
    5.9065   -3.9037   45.7499 N   0  0  0  0  0  0  0  0  0  0  0  0
   -0.5459   -5.1185   42.5870 C   0  0  0  0  0  0  0  0  0  0  0  0
    5.7480   -4.0340   46.9810 C   0  0  0  0  0  0  0  0  0  0  0  0
    7.4448   -1.8511   45.4198 C   0  0  0  0  0  0  0  0  0  0  0  0
    7.7572   -0.7827   45.0128 C   0  0  0  0  0  0  0  0  0  0  0  0
    8.4076   -2.7217   46.4541 C   0  0  0  0  0  0  0  0  0  0  0  0
    9.3167   -2.0988   47.1049 N   0  0  0  0  0  0  0  0  0  0  0  0
   -0.4719   -4.3893   41.5406 C   0  0  0  0  0  0  0  0  0  0  0  0
    8.3667   -4.0284   46.5743 N   0  0  0  0  0  0  0  0  0  0  0  0
    9.5309   -4.3147   47.3094 C   0  0  0  0  0  0  0  0  0  0  0  0
    5.3113   -3.3789   47.8005 O   0  0  0  0  0  0  0  0  0  0  0  0
    9.9022   -5.6301   47.7684 C   0  0  0  0  0  0  0  0  0  0  0  0
    5.4470   -5.5868   47.2096 C   0  0  0  0  0  0  0  0  0  0  0  0
   11.2254   -5.8679   48.0402 C   0  0  0  0  0  0  0  0  0  0  0  0
    8.9736   -6.6532   47.8548 C   0  0  0  0  0  0  0  0  0  0  0  0
   10.0616   -3.0670   47.6360 C   0  0  0  0  0  0  0  0  0  0  0  0
    7.5566   -6.3564   47.5477 N   0  0  0  0  0  0  0  0  0  0  0  0
    6.4157   -6.1721   48.0913 C   0  0  0  0  0  0  0  0  0  0  0  0
   12.3275   -4.8510   47.9324 C   0  0  0  0  0  0  0  0  0  0  0  0
    9.4585   -7.9662   48.0726 C   0  0  0  0  0  0  0  0  0  0  0  0
   11.5288   -2.7910   48.1740 C   0  0  0  0  0  0  0  0  0  0  0  0
   12.2653   -3.6831   48.6307 N   0  0  0  0  0  0  0  0  0  0  0  0
   11.7014   -7.1425   48.3326 C   0  0  0  0  0  0  0  0  0  0  0  0
   13.0716   -7.4306   48.6615 O   0  0  0  0  0  0  0  0  0  0  0  0
   10.8121   -8.2552   48.4616 C   0  0  0  0  0  0  0  0  0  0  0  0
   11.6582   -1.4805   48.4272 O   0  0  0  0  0  0  0  0  0  0  0  0
  1  2  1  0
  2  3  2  0
  3  4  1  0
  1  5  2  0
  4  5  1  0
  4  6  2  0
  5  7  1  0
  7  8  2  0
  6  9  1  0
  3 10  1  0
  9 11  2  0
 10 11  1  0
  7 12  1  0
 12 13  2  0
  9 14  1  0
 11 15  1  0
 14 16  1  0
 13 17  1  0
 16 18  1  0
 14 19  2  0
 15 20  2  0
 19 20  1  0
 19 21  1  0
 21 22  2  0
  8 23  1  0
 17 23  2  0
 21 24  1  0
 24 25  1  0
 18 26  2  0
 25 27  1  0
 18 28  1  0
 27 29  2  0
 27 30  1  0
 22 31  1  0
 25 31  2  0
 30 32  1  0
 28 33  1  0
 32 33  1  0
 29 34  1  0
 30 35  2  0
 31 36  1  0
 34 37  1  0
 36 37  1  0
 29 38  1  0
 38 39  1  0
 35 40  1  0
 38 40  2  0
 36 41  2  0
M  END
$$$$
O14757_Pocket2Mol_idx-in-all-generaetd-64
     RDKit          3D

 28 31  0  0  0  0  0  0  0  0999 V2000
    0.3497   -2.5592   41.5321 C   0  0  0  0  0  0  0  0  0  0  0  0
    0.7059   -1.3065   41.4152 C   0  0  0  0  0  0  0  0  0  0  0  0
    2.0121   -0.9206   42.0074 C   0  0  0  0  0  0  0  0  0  0  0  0
    2.8273   -1.8583   42.7096 C   0  0  0  0  0  0  0  0  0  0  0  0
   -0.9158   -2.9896   41.0259 O   0  0  0  0  0  0  0  0  0  0  0  0
    2.1785   -3.2182   42.8202 C   0  0  0  0  0  0  0  0  0  0  0  0
    2.9957   -4.0364   43.6549 N   0  0  0  0  0  0  0  0  0  0  0  0
    1.0381   -3.5102   42.3147 C   0  0  0  0  0  0  0  0  0  0  0  0
    4.0501   -1.4436   43.3296 C   0  0  0  0  0  0  0  0  0  0  0  0
    4.2345   -3.7127   44.1966 C   0  0  0  0  0  0  0  0  0  0  0  0
    4.9099   -4.6363   45.0387 N   0  0  0  0  0  0  0  0  0  0  0  0
    4.7563   -2.4299   44.0678 C   0  0  0  0  0  0  0  0  0  0  0  0
    6.0306   -2.0532   44.6670 C   0  0  0  0  0  0  0  0  0  0  0  0
    4.6111   -0.1656   43.0716 N   0  0  0  0  0  0  0  0  0  0  0  0
    6.7834   -2.7598   45.5925 N   0  0  0  0  0  0  0  0  0  0  0  0
    8.0062   -2.3962   46.0654 C   0  0  0  0  0  0  0  0  0  0  0  0
    8.3845   -1.1262   46.4117 C   0  0  0  0  0  0  0  0  0  0  0  0
    6.3026   -0.6817   44.5619 N   0  0  0  0  0  0  0  0  0  0  0  0
    9.7158   -1.1202   46.5501 C   0  0  0  0  0  0  0  0  0  0  0  0
    8.4022   -3.1552   47.2051 C   0  0  0  0  0  0  0  0  0  0  0  0
   -2.1369   -2.6089   41.5214 C   0  0  0  0  0  0  0  0  0  0  0  0
    5.5171    0.0680   43.6112 N   0  0  0  0  0  0  0  0  0  0  0  0
    9.8951   -3.1296   47.3739 C   0  0  0  0  0  0  0  0  0  0  0  0
   10.1642   -1.8158   47.6740 N   0  0  0  0  0  0  0  0  0  0  0  0
   11.6310   -1.7072   48.0642 C   0  0  0  0  0  0  0  0  0  0  0  0
   12.3741   -1.5906   47.0005 O   0  0  0  0  0  0  0  0  0  0  0  0
   12.0262   -1.6695   49.2171 O   0  0  0  0  0  0  0  0  0  0  0  0
   13.6288   -2.1267   47.0592 C   0  0  0  0  0  0  0  0  0  0  0  0
  1  2  2  0
  2  3  1  0
  3  4  2  0
  1  5  1  0
  4  6  1  0
  6  7  1  0
  1  8  1  0
  6  8  2  0
  4  9  1  0
  7 10  2  0
 10 11  1  0
  9 12  2  0
 10 12  1  0
 12 13  1  0
  9 14  1  0
 13 15  1  0
 15 16  1  0
 16 17  1  0
 13 18  2  0
 17 19  1  0
 16 20  1  0
  5 21  1  0
 14 22  2  0
 18 22  1  0
 20 23  1  0
 19 24  1  0
 23 24  1  0
 24 25  1  0
 25 26  1  0
 25 27  2  0
 26 28  1  0
M  END
$$$$
O14757_Pocket2Mol_idx-in-all-generaetd-65
     RDKit          3D

 49 56  0  0  0  0  0  0  0  0999 V2000
    5.3420    0.2589   42.8836 O   0  0  0  0  0  0  0  0  0  0  0  0
    5.1627   -0.7554   43.4753 C   0  0  0  0  0  0  0  0  0  0  0  0
    4.0509   -1.4657   43.4177 N   0  0  0  0  0  0  0  0  0  0  0  0
    5.9969   -1.2317   44.6840 C   0  0  0  0  0  0  0  0  0  0  0  0
    2.9618   -1.1021   42.5918 C   0  0  1  0  0  0  0  0  0  0  0  0
    7.3392   -0.8596   44.8412 C   0  0  0  0  0  0  0  0  0  0  0  0
    1.9754   -2.0820   42.2741 C   0  0  0  0  0  0  0  0  0  0  0  0
    5.5910   -2.4282   45.3439 C   0  0  0  0  0  0  0  0  0  0  0  0
    6.5874   -2.9636   46.1581 C   0  0  0  0  0  0  0  0  0  0  0  0
    4.2763   -3.0680   45.0493 N   0  0  0  0  0  0  0  0  0  0  0  0
    3.6188   -2.5886   44.2024 C   0  0  0  0  0  0  0  0  0  0  0  0
    8.1921   -1.4071   45.7505 C   0  0  0  0  0  0  0  0  0  0  0  0
    1.0154   -1.8839   41.2980 C   0  0  0  0  0  0  0  0  0  0  0  0
    2.5720   -3.3564   43.9063 C   0  0  0  0  0  0  0  0  0  0  0  0
    0.2502   -2.8976   41.0751 C   0  0  0  0  0  0  0  0  0  0  0  0
    6.1761   -4.1775   47.0209 C   0  0  0  0  0  0  0  0  0  0  0  0
    1.7266   -3.1047   43.0115 C   0  0  2  0  0  0  0  0  0  0  0  0
    2.3696   -4.5367   44.7536 N   0  0  0  0  0  0  0  0  0  0  0  0
    1.2264   -5.2346   44.4693 C   0  0  0  0  0  0  0  0  0  0  0  0
    0.7187   -3.8955   42.5465 C   0  0  0  0  0  0  0  0  0  0  0  0
    9.4576   -0.8949   46.0327 N   0  0  0  0  0  0  0  0  0  0  0  0
    0.8625   -6.3901   45.2462 C   0  0  0  0  0  0  0  0  0  0  0  0
    7.6467   -2.5139   46.4892 C   0  0  0  0  0  0  0  0  0  0  0  0
   10.4908   -1.5336   45.8242 C   0  0  0  0  0  0  0  0  0  0  0  0
    0.3057   -4.9299   43.2909 C   0  0  0  0  0  0  0  0  0  0  0  0
   11.5916   -1.4291   46.7436 C   0  0  0  0  0  0  0  0  0  0  0  0
   10.5566   -2.3672   44.8649 O   0  0  0  0  0  0  0  0  0  0  0  0
   12.8421   -1.9355   46.2823 C   0  0  0  0  0  0  0  0  0  0  0  0
   13.4833   -2.8582   46.9841 C   0  0  0  0  0  0  0  0  0  0  0  0
   11.4002   -1.1447   48.0540 C   0  0  0  0  0  0  0  0  0  0  0  0
   10.2867   -0.4569   48.4999 O   0  0  0  0  0  0  0  0  0  0  0  0
   12.3327   -1.4798   48.9564 C   0  0  1  0  0  0  0  0  0  0  0  0
   14.7901   -3.3162   46.6439 C   0  0  0  0  0  0  0  0  0  0  0  0
   12.1651   -1.3050   50.3239 O   0  0  0  0  0  0  0  0  0  0  0  0
   15.6765   -2.5740   46.0979 C   0  0  0  0  0  0  0  0  0  0  0  0
    2.4608    0.2106   42.8512 C   0  0  0  0  0  0  0  0  0  0  0  0
   15.5213   -1.2590   45.7606 C   0  0  2  0  0  0  0  0  0  0  0  0
   14.5349   -0.8899   44.8574 C   0  0  0  0  0  0  0  0  0  0  0  0
   12.9775   -3.3460   48.2127 C   0  0  0  0  0  0  0  0  0  0  0  0
   14.7129   -0.1943   43.8652 C   0  0  0  0  0  0  0  0  0  0  0  0
   13.1163   -1.3789   45.0490 O   0  0  0  0  0  0  0  0  0  0  0  0
   12.7443   -2.7596   49.2688 C   0  0  0  0  0  0  0  0  0  0  0  0
   15.8145    0.5028   43.5830 C   0  0  0  0  0  0  0  0  0  0  0  0
   15.9344    1.4629   42.4540 C   0  0  0  0  0  0  0  0  0  0  0  0
   14.7741    2.0231   42.1466 C   0  0  0  0  0  0  0  0  0  0  0  0
   16.8299   -0.7561   45.1452 C   0  0  0  0  0  0  0  0  0  0  0  0
   17.0421    0.2637   44.1628 C   0  0  0  0  0  0  0  0  0  0  0  0
   17.7633   -0.6676   45.9569 O   0  0  0  0  0  0  0  0  0  0  0  0
   14.9387    3.0732   41.0251 C   0  0  0  0  0  0  0  0  0  0  0  0
  1  2  2  0
  2  3  1  0
  2  4  1  0
  3  5  1  0
  4  6  2  0
  5  7  1  0
  4  8  1  0
  8  9  2  0
  8 10  1  0
  3 11  1  0
 10 11  2  0
  6 12  1  0
  7 13  2  0
 11 14  1  0
 13 15  1  0
  9 16  1  0
 17  7  1  6
 14 17  1  0
 14 18  2  0
 18 19  1  0
 15 20  2  0
 17 20  1  0
 12 21  1  0
 19 22  1  0
  9 23  1  0
 12 23  2  0
 21 24  1  0
 19 25  2  0
 20 25  1  0
 24 26  1  0
 24 27  2  0
 26 28  1  0
 28 29  2  0
 26 30  2  0
 30 31  1  0
 30 32  1  0
 29 33  1  0
 32 34  1  1
 33 35  2  0
  5 36  1  1
 37 35  1  6
 37 38  1  0
 29 39  1  0
 38 40  2  0
 28 41  1  0
 38 41  1  0
 32 42  1  0
 39 42  1  0
 40 43  1  0
 43 44  1  0
 44 45  2  3
 37 46  1  0
 43 47  2  0
 46 47  1  0
 46 48  2  0
 45 49  1  0
M  END
$$$$
O14757_Pocket2Mol_idx-in-all-generaetd-66
     RDKit          3D

 43 51  0  0  0  0  0  0  0  0999 V2000
    1.5482   -0.3111   41.9233 C   0  0  0  0  0  0  0  0  0  0  0  0
    2.7284    0.2018   42.1525 N   0  0  0  0  0  0  0  0  0  0  0  0
    3.7893   -0.3016   42.7005 C   0  0  0  0  0  0  0  0  0  0  0  0
    3.3781   -1.7350   43.0000 C   0  0  0  0  0  0  0  0  0  0  0  0
    2.0339   -1.9619   42.6217 C   0  0  0  0  0  0  0  0  0  0  0  0
    5.0090    0.1219   42.9340 N   0  0  0  0  0  0  0  0  0  0  0  0
    4.2895   -2.4979   43.6707 C   0  0  0  0  0  0  0  0  0  0  0  0
    5.8391   -0.6675   43.6343 C   0  0  0  0  0  0  0  0  0  0  0  0
    6.9849   -0.2377   44.0028 N   0  0  0  0  0  0  0  0  0  0  0  0
    4.0426   -3.8794   44.0832 C   0  0  0  0  0  0  0  0  0  0  0  0
    7.6796   -0.8734   44.9326 C   0  0  0  0  0  0  0  0  0  0  0  0
    1.1064   -2.9576   42.4211 C   0  0  0  0  0  0  0  0  0  0  0  0
    5.5298   -1.9496   44.0315 C   0  0  0  0  0  0  0  0  0  0  0  0
    3.8954   -4.1817   45.4718 C   0  0  0  0  0  0  0  0  0  0  0  0
    0.6765   -3.5480   43.4006 C   0  0  1  0  0  0  0  0  0  0  0  0
    0.5804   -3.2191   41.1635 C   0  0  0  0  0  0  0  0  0  0  0  0
    2.8083   -4.8227   45.9203 N   0  0  0  0  0  0  0  0  0  0  0  0
   -0.1574   -4.5754   42.9329 N   0  0  0  0  0  0  0  0  0  0  0  0
    6.5271   -2.5531   44.9677 C   0  0  0  0  0  0  0  0  0  0  0  0
   -0.2272   -4.3703   41.5137 C   0  0  0  0  0  0  0  0  0  0  0  0
    7.5095   -2.0029   45.3993 C   0  0  0  0  0  0  0  0  0  0  0  0
    8.2550   -2.6982   46.3988 C   0  0  0  0  0  0  0  0  0  0  0  0
    8.8975   -0.3029   45.3267 O   0  0  0  0  0  0  0  0  0  0  0  0
    4.8299   -4.4637   46.4212 C   0  0  0  0  0  0  0  0  0  0  0  0
    4.2707   -4.9248   47.6295 N   0  0  0  0  0  0  0  0  0  0  0  0
    3.2045   -5.2092   47.1521 C   0  0  0  0  0  0  0  0  0  0  0  0
    1.4482   -4.6186   45.4134 C   0  0  1  0  0  0  0  0  0  0  0  0
    1.2398   -3.5043   44.6236 O   0  0  0  0  0  0  0  0  0  0  0  0
    6.3317   -3.9297   46.0870 C   0  0  2  0  0  0  0  0  0  0  0  0
    9.5296   -2.5449   46.9776 C   0  0  0  0  0  0  0  0  0  0  0  0
    9.7921   -1.7530   47.9018 O   0  0  0  0  0  0  0  0  0  0  0  0
    7.3972   -3.8130   46.7939 C   0  0  0  0  0  0  0  0  0  0  0  0
    1.2392   -5.7793   44.5610 C   0  0  0  0  0  0  0  0  0  0  0  0
   10.4934   -3.0755   46.3117 O   0  0  0  0  0  0  0  0  0  0  0  0
   10.9462   -4.1456   46.8830 C   0  0  0  0  0  0  0  0  0  0  0  0
   12.2796   -4.1987   47.0522 C   0  0  0  0  0  0  0  0  0  0  0  0
   12.9062   -5.3205   47.0633 C   0  0  0  0  0  0  0  0  0  0  0  0
   14.4025   -5.4237   47.2465 C   0  0  0  0  0  0  0  0  0  0  0  0
   12.2726   -6.4947   46.5456 C   0  0  0  0  0  0  0  0  0  0  0  0
   12.9587   -7.7334   46.4794 O   0  0  0  0  0  0  0  0  0  0  0  0
   11.0506   -6.5329   46.2941 C   0  0  0  0  0  0  0  0  0  0  0  0
   10.2732   -5.2394   46.3137 C   0  0  0  0  0  0  0  0  0  0  0  0
   12.3533   -8.7543   45.8003 C   0  0  0  0  0  0  0  0  0  0  0  0
  1  2  1  0
  2  3  2  0
  3  4  1  0
  1  5  2  0
  4  5  1  0
  3  6  1  0
  4  7  2  0
  6  8  1  0
  8  9  1  0
  7 10  1  0
  9 11  1  0
  5 12  1  0
  7 13  1  0
  8 13  2  0
 10 14  1  0
 12 15  1  0
 12 16  2  0
 14 17  1  0
 15 18  1  0
 13 19  1  0
 16 20  1  0
 18 20  2  0
 11 21  1  0
 19 21  2  0
 21 22  1  0
 11 23  2  0
 14 24  2  0
 24 25  1  0
 17 26  1  0
 25 26  2  0
 17 27  1  0
 15 28  1  6
 27 28  1  0
 19 29  1  0
 24 29  1  0
 22 30  1  0
 30 31  2  0
 22 32  2  0
 29 32  1  1
 27 33  1  6
 30 34  1  0
 34 35  1  0
 35 36  2  0
 36 37  1  0
 37 38  1  0
 37 39  2  0
 39 40  1  0
 39 41  1  0
 35 42  1  0
 41 42  2  0
 40 43  1  0
M  END
$$$$
O14757_Pocket2Mol_idx-in-all-generaetd-67
     RDKit          3D

 49 58  0  0  0  0  0  0  0  0999 V2000
    1.5482   -0.3111   41.9233 C   0  0  0  0  0  0  0  0  0  0  0  0
    2.7284    0.2018   42.1525 N   0  0  0  0  0  0  0  0  0  0  0  0
    3.7893   -0.3016   42.7005 C   0  0  0  0  0  0  0  0  0  0  0  0
    3.3781   -1.7350   43.0000 C   0  0  0  0  0  0  0  0  0  0  0  0
    2.0339   -1.9619   42.6217 C   0  0  0  0  0  0  0  0  0  0  0  0
    5.0090    0.1219   42.9340 N   0  0  0  0  0  0  0  0  0  0  0  0
    4.2895   -2.4979   43.6707 C   0  0  0  0  0  0  0  0  0  0  0  0
    5.8391   -0.6675   43.6343 C   0  0  0  0  0  0  0  0  0  0  0  0
    6.9849   -0.2377   44.0028 N   0  0  0  0  0  0  0  0  0  0  0  0
    4.0426   -3.8794   44.0832 C   0  0  0  0  0  0  0  0  0  0  0  0
    7.6796   -0.8734   44.9326 C   0  0  0  0  0  0  0  0  0  0  0  0
    1.1064   -2.9576   42.4211 C   0  0  0  0  0  0  0  0  0  0  0  0
    5.5298   -1.9496   44.0315 C   0  0  0  0  0  0  0  0  0  0  0  0
    3.8954   -4.1817   45.4718 C   0  0  0  0  0  0  0  0  0  0  0  0
    0.6765   -3.5480   43.4006 C   0  0  1  0  0  0  0  0  0  0  0  0
    0.5804   -3.2191   41.1635 C   0  0  0  0  0  0  0  0  0  0  0  0
    2.8083   -4.8227   45.9203 N   0  0  0  0  0  0  0  0  0  0  0  0
   -0.1574   -4.5754   42.9329 N   0  0  0  0  0  0  0  0  0  0  0  0
    6.5271   -2.5531   44.9677 C   0  0  0  0  0  0  0  0  0  0  0  0
   -0.2272   -4.3703   41.5137 C   0  0  0  0  0  0  0  0  0  0  0  0
    7.5095   -2.0029   45.3993 C   0  0  0  0  0  0  0  0  0  0  0  0
    8.2550   -2.6982   46.3988 C   0  0  1  0  0  0  0  0  0  0  0  0
    8.8975   -0.3029   45.3267 O   0  0  0  0  0  0  0  0  0  0  0  0
    4.8299   -4.4637   46.4212 C   0  0  0  0  0  0  0  0  0  0  0  0
    4.2707   -4.9248   47.6295 N   0  0  0  0  0  0  0  0  0  0  0  0
    3.2045   -5.2092   47.1521 C   0  0  0  0  0  0  0  0  0  0  0  0
    1.4482   -4.6186   45.4134 C   0  0  0  0  0  0  0  0  0  0  0  0
    1.3256   -3.7660   44.6394 N   0  0  0  0  0  0  0  0  0  0  0  0
    9.2816   -2.1418   47.1273 N   0  0  0  0  0  0  0  0  0  0  0  0
   10.0629   -3.1324   47.8508 C   0  0  0  0  0  0  0  0  0  0  0  0
    6.3491   -3.8960   46.0844 C   0  0  2  0  0  0  0  0  0  0  0  0
    7.4349   -3.5889   46.9054 C   0  0  0  0  0  0  0  0  0  0  0  0
   10.3145   -2.7271   49.0818 O   0  0  0  0  0  0  0  0  0  0  0  0
    0.6213   -5.4445   45.7455 O   0  0  0  0  0  0  0  0  0  0  0  0
   11.0262   -3.8136   47.1050 C   0  0  0  0  0  0  0  0  0  0  0  0
   12.1704   -3.3854   46.7547 C   0  0  0  0  0  0  0  0  0  0  0  0
   13.1080   -4.1111   46.0053 C   0  0  0  0  0  0  0  0  0  0  0  0
   14.3489   -3.5966   45.7888 C   0  0  0  0  0  0  0  0  0  0  0  0
   12.7430   -5.2725   45.5056 C   0  0  0  0  0  0  0  0  0  0  0  0
   10.8315   -5.3520   46.8908 C   0  0  0  0  0  0  0  0  0  0  0  0
   11.5834   -5.8795   45.9965 C   0  0  0  0  0  0  0  0  0  0  0  0
   14.5673   -2.2844   45.3294 C   0  0  0  0  0  0  0  0  0  0  0  0
   15.6990   -1.9377   44.9307 C   0  0  0  0  0  0  0  0  0  0  0  0
   15.9777   -0.5351   44.4220 C   0  0  0  0  0  0  0  0  0  0  0  0
   15.4694   -4.3459   45.9452 C   0  0  0  0  0  0  0  0  0  0  0  0
   16.9310   -2.5950   45.1224 C   0  0  0  0  0  0  0  0  0  0  0  0
   16.7670   -3.9180   45.6145 C   0  0  0  0  0  0  0  0  0  0  0  0
   14.8045    0.0786   44.0239 C   0  0  0  0  0  0  0  0  0  0  0  0
   14.9689    1.4210   43.5382 C   0  0  0  0  0  0  0  0  0  0  0  0
  1  2  1  0
  2  3  2  0
  3  4  1  0
  1  5  2  0
  4  5  1  0
  3  6  1  0
  4  7  2  0
  6  8  1  0
  8  9  1  0
  7 10  1  0
  9 11  1  0
  5 12  1  0
  7 13  1  0
  8 13  2  0
 10 14  1  0
 12 15  1  0
 12 16  2  0
 14 17  1  0
 15 18  1  0
 13 19  1  0
 16 20  1  0
 18 20  2  0
 11 21  1  0
 19 21  2  0
 21 22  1  0
 11 23  2  0
 14 24  2  0
 24 25  1  0
 17 26  1  0
 25 26  2  0
 17 27  1  0
 15 28  1  6
 27 28  1  0
 22 29  1  1
 29 30  1  0
 19 31  1  0
 24 31  1  0
 22 32  1  0
 31 32  1  1
 30 33  2  0
 27 34  2  0
 30 35  1  0
 35 36  2  0
 36 37  1  0
 37 38  1  0
 37 39  2  0
 35 40  1  0
 39 41  1  0
 40 41  2  0
 38 42  2  0
 42 43  1  0
 43 44  1  0
 38 45  1  0
 43 46  2  0
 45 47  2  0
 46 47  1  0
 44 48  2  3
 48 49  1  0
M  END
$$$$
O14757_Pocket2Mol_idx-in-all-generaetd-68
     RDKit          3D

 50 59  0  0  0  0  0  0  0  0999 V2000
    1.5482   -0.3111   41.9233 C   0  0  0  0  0  0  0  0  0  0  0  0
    2.7284    0.2018   42.1525 N   0  0  0  0  0  0  0  0  0  0  0  0
    3.7893   -0.3016   42.7005 C   0  0  0  0  0  0  0  0  0  0  0  0
    3.3781   -1.7350   43.0000 C   0  0  0  0  0  0  0  0  0  0  0  0
    2.0339   -1.9619   42.6217 C   0  0  0  0  0  0  0  0  0  0  0  0
    5.0090    0.1219   42.9340 N   0  0  0  0  0  0  0  0  0  0  0  0
    4.2895   -2.4979   43.6707 C   0  0  0  0  0  0  0  0  0  0  0  0
    5.8391   -0.6675   43.6343 C   0  0  0  0  0  0  0  0  0  0  0  0
    6.9849   -0.2377   44.0028 N   0  0  0  0  0  0  0  0  0  0  0  0
    4.0426   -3.8794   44.0832 C   0  0  0  0  0  0  0  0  0  0  0  0
    7.6796   -0.8734   44.9326 C   0  0  0  0  0  0  0  0  0  0  0  0
    1.1064   -2.9576   42.4211 C   0  0  0  0  0  0  0  0  0  0  0  0
    5.5298   -1.9496   44.0315 C   0  0  0  0  0  0  0  0  0  0  0  0
    3.8954   -4.1817   45.4718 C   0  0  0  0  0  0  0  0  0  0  0  0
    0.6765   -3.5480   43.4006 C   0  0  1  0  0  0  0  0  0  0  0  0
    0.5804   -3.2191   41.1635 C   0  0  0  0  0  0  0  0  0  0  0  0
    2.8083   -4.8227   45.9203 N   0  0  0  0  0  0  0  0  0  0  0  0
   -0.1574   -4.5754   42.9329 N   0  0  0  0  0  0  0  0  0  0  0  0
    6.5271   -2.5531   44.9677 C   0  0  0  0  0  0  0  0  0  0  0  0
   -0.2272   -4.3703   41.5137 C   0  0  0  0  0  0  0  0  0  0  0  0
    7.5095   -2.0029   45.3993 C   0  0  0  0  0  0  0  0  0  0  0  0
    8.2550   -2.6982   46.3988 C   0  0  2  0  0  0  0  0  0  0  0  0
    8.8975   -0.3029   45.3267 O   0  0  0  0  0  0  0  0  0  0  0  0
    4.8299   -4.4637   46.4212 C   0  0  0  0  0  0  0  0  0  0  0  0
    4.2707   -4.9248   47.6295 N   0  0  0  0  0  0  0  0  0  0  0  0
    3.2045   -5.2092   47.1521 C   0  0  0  0  0  0  0  0  0  0  0  0
    1.4482   -4.6186   45.4134 C   0  0  2  0  0  0  0  0  0  0  0  0
    1.2398   -3.5043   44.6236 O   0  0  0  0  0  0  0  0  0  0  0  0
    6.3317   -3.9297   46.0870 C   0  0  2  0  0  0  0  0  0  0  0  0
    9.5296   -2.5449   46.9776 C   0  0  0  0  0  0  0  0  0  0  0  0
    9.7921   -1.7530   47.9018 O   0  0  0  0  0  0  0  0  0  0  0  0
    7.4454   -3.8344   46.8035 C   0  0  0  0  0  0  0  0  0  0  0  0
   10.5010   -3.0847   46.3190 O   0  0  0  0  0  0  0  0  0  0  0  0
    0.5569   -4.7693   46.5649 C   0  0  0  0  0  0  0  0  0  0  0  0
   11.7452   -2.8462   46.6234 C   0  0  0  0  0  0  0  0  0  0  0  0
   12.4344   -1.8951   45.7393 C   0  0  0  0  0  0  0  0  0  0  0  0
   12.4612   -3.5429   47.5581 C   0  0  0  0  0  0  0  0  0  0  0  0
   11.7737   -4.5216   48.4115 C   0  0  0  0  0  0  0  0  0  0  0  0
   11.7935   -5.7538   48.0263 C   0  0  0  0  0  0  0  0  0  0  0  0
   13.7403   -3.0985   47.8363 C   0  0  0  0  0  0  0  0  0  0  0  0
   11.7592   -1.2853   44.6374 O   0  0  0  0  0  0  0  0  0  0  0  0
   14.4771   -3.7616   48.9318 C   0  0  0  0  0  0  0  0  0  0  0  0
   11.4381   -5.9814   46.7174 O   0  0  0  0  0  0  0  0  0  0  0  0
   12.6126   -6.6322   48.3806 O   0  0  0  0  0  0  0  0  0  0  0  0
   14.4464   -2.2503   47.0145 C   0  0  0  0  0  0  0  0  0  0  0  0
   10.2915   -6.8136   46.5157 C   0  0  0  0  0  0  0  0  0  0  0  0
   15.8020   -1.9254   47.2126 C   0  0  0  0  0  0  0  0  0  0  0  0
   13.7076   -1.6526   45.9426 C   0  0  0  0  0  0  0  0  0  0  0  0
   15.8140   -3.3584   49.1689 C   0  0  0  0  0  0  0  0  0  0  0  0
   16.4294   -2.4363   48.3013 C   0  0  0  0  0  0  0  0  0  0  0  0
  1  2  1  0
  2  3  2  0
  3  4  1  0
  1  5  2  0
  4  5  1  0
  3  6  1  0
  4  7  2  0
  6  8  1  0
  8  9  1  0
  7 10  1  0
  9 11  1  0
  5 12  1  0
  7 13  1  0
  8 13  2  0
 10 14  1  0
 12 15  1  0
 12 16  2  0
 14 17  1  0
 15 18  1  0
 13 19  1  0
 16 20  1  0
 18 20  2  0
 11 21  1  0
 19 21  2  0
 21 22  1  0
 11 23  2  0
 14 24  2  0
 24 25  1  0
 17 26  1  0
 25 26  2  0
 17 27  1  0
 15 28  1  6
 27 28  1  0
 19 29  1  0
 24 29  1  0
 22 30  1  6
 30 31  2  0
 22 32  1  0
 29 32  1  1
 30 33  1  0
 27 34  1  1
 33 35  1  0
 35 36  2  0
 35 37  1  0
 37 38  1  0
 38 39  1  0
 37 40  2  0
 36 41  1  0
 40 42  1  0
 39 43  1  0
 39 44  2  0
 40 45  1  0
 43 46  1  0
 45 47  1  0
 36 48  1  0
 45 48  2  0
 42 49  2  0
 47 50  2  0
 49 50  1  0
M  END
$$$$
O14757_Pocket2Mol_idx-in-all-generaetd-69
     RDKit          3D

 28 31  0  0  0  0  0  0  0  0999 V2000
    5.5575   -0.4055   43.2321 N   0  0  0  0  0  0  0  0  0  0  0  0
    4.5233    0.0727   42.5988 N   0  0  0  0  0  0  0  0  0  0  0  0
    5.1726   -1.5114   43.9314 C   0  0  0  0  0  0  0  0  0  0  0  0
    5.9080   -2.2268   44.9217 C   0  0  0  0  0  0  0  0  0  0  0  0
    5.3635   -3.3861   45.5121 C   0  0  0  0  0  0  0  0  0  0  0  0
    7.1791   -1.7734   45.4544 C   0  0  0  0  0  0  0  0  0  0  0  0
    3.4069   -0.5377   42.5980 C   0  0  0  0  0  0  0  0  0  0  0  0
    2.1839   -0.4257   41.9942 C   0  0  0  0  0  0  0  0  0  0  0  0
    3.7449   -1.7453   43.5024 C   0  0  0  0  0  0  0  0  0  0  0  0
    7.8525   -0.6503   45.0420 O   0  0  0  0  0  0  0  0  0  0  0  0
    7.8789   -2.5576   46.3941 C   0  0  0  0  0  0  0  0  0  0  0  0
    2.8045   -2.7414   43.6928 C   0  0  0  0  0  0  0  0  0  0  0  0
    9.2115   -2.0969   46.8642 C   0  0  0  0  0  0  0  0  0  0  0  0
    4.0793   -3.8977   45.1232 C   0  0  0  0  0  0  0  0  0  0  0  0
    9.4064   -1.6424   47.9232 O   0  0  0  0  0  0  0  0  0  0  0  0
    3.1160   -3.7348   44.5196 N   0  0  0  0  0  0  0  0  0  0  0  0
   10.2271   -2.0181   45.9902 O   0  0  0  0  0  0  0  0  0  0  0  0
    1.5846   -2.6820   43.0143 C   0  0  0  0  0  0  0  0  0  0  0  0
   11.4761   -2.1798   46.4472 C   0  0  0  0  0  0  0  0  0  0  0  0
    7.2409   -3.6513   46.9381 C   0  0  0  0  0  0  0  0  0  0  0  0
    1.2492   -1.5070   42.1695 C   0  0  0  0  0  0  0  0  0  0  0  0
    0.5019   -3.7675   43.1967 C   0  0  0  0  0  0  0  0  0  0  0  0
    6.0495   -4.1366   46.6035 C   0  0  0  0  0  0  0  0  0  0  0  0
   -0.0338   -4.1944   42.0509 O   0  0  0  0  0  0  0  0  0  0  0  0
   11.8540   -3.4438   46.5319 C   0  0  0  0  0  0  0  0  0  0  0  0
   11.0726   -4.3899   46.1498 O   0  0  0  0  0  0  0  0  0  0  0  0
   13.1725   -3.7609   46.6577 O   0  0  0  0  0  0  0  0  0  0  0  0
    0.4494   -4.3844   44.2270 N   0  0  0  0  0  0  0  0  0  0  0  0
  1  2  2  0
  1  3  1  0
  3  4  1  0
  4  5  2  0
  4  6  1  0
  2  7  1  0
  7  8  2  0
  3  9  2  0
  7  9  1  0
  6 10  1  0
  6 11  2  0
  9 12  1  0
 11 13  1  0
  5 14  1  0
 13 15  2  0
 12 16  1  0
 14 16  2  0
 13 17  1  0
 12 18  1  0
 17 19  1  0
 11 20  1  0
  8 21  1  0
 18 21  2  0
 18 22  1  0
  5 23  1  0
 20 23  2  0
 22 24  2  0
 19 25  1  0
 25 26  2  0
 25 27  1  0
 22 28  1  0
M  END
$$$$
O14757_Pocket2Mol_idx-in-all-generaetd-70
     RDKit          3D

 41 46  0  0  0  0  0  0  0  0999 V2000
    1.5482   -0.3111   41.9233 C   0  0  0  0  0  0  0  0  0  0  0  0
    2.7284    0.2018   42.1525 N   0  0  0  0  0  0  0  0  0  0  0  0
    3.7893   -0.3016   42.7005 C   0  0  0  0  0  0  0  0  0  0  0  0
    3.3781   -1.7350   43.0000 C   0  0  0  0  0  0  0  0  0  0  0  0
    2.0339   -1.9619   42.6217 C   0  0  0  0  0  0  0  0  0  0  0  0
    4.1166   -2.4997   43.8458 C   0  0  0  0  0  0  0  0  0  0  0  0
    1.1731   -3.0051   42.5773 C   0  0  0  0  0  0  0  0  0  0  0  0
    0.4701   -3.2344   41.4901 C   0  0  0  0  0  0  0  0  0  0  0  0
    5.3799   -1.7814   44.2691 C   0  0  0  0  0  0  0  0  0  0  0  0
    5.0159   -0.0180   43.1201 N   0  0  0  0  0  0  0  0  0  0  0  0
    5.7693   -0.6937   43.8418 C   0  0  0  0  0  0  0  0  0  0  0  0
    0.8078   -3.6166   43.6782 C   0  0  0  0  0  0  0  0  0  0  0  0
    0.0663   -4.7011   43.7415 N   0  0  0  0  0  0  0  0  0  0  0  0
    6.2223   -2.6843   45.1565 C   0  0  0  0  0  0  0  0  0  0  0  0
    6.9599   -0.2351   44.2608 N   0  0  0  0  0  0  0  0  0  0  0  0
    5.9065   -3.9037   45.7499 N   0  0  0  0  0  0  0  0  0  0  0  0
   -0.5459   -5.1185   42.5870 C   0  0  0  0  0  0  0  0  0  0  0  0
    5.7480   -4.0340   46.9810 C   0  0  0  0  0  0  0  0  0  0  0  0
    7.4448   -1.8511   45.4198 C   0  0  0  0  0  0  0  0  0  0  0  0
    7.7572   -0.7827   45.0128 C   0  0  0  0  0  0  0  0  0  0  0  0
    8.4076   -2.7217   46.4541 C   0  0  0  0  0  0  0  0  0  0  0  0
    9.3167   -2.0988   47.1049 N   0  0  0  0  0  0  0  0  0  0  0  0
   -0.4719   -4.3893   41.5406 C   0  0  0  0  0  0  0  0  0  0  0  0
    8.3667   -4.0284   46.5743 N   0  0  0  0  0  0  0  0  0  0  0  0
   10.1532   -2.5726   47.9567 C   0  0  0  0  0  0  0  0  0  0  0  0
   11.0726   -1.7892   48.6998 C   0  0  0  0  0  0  0  0  0  0  0  0
   10.4886   -0.9372   49.4584 C   0  0  0  0  0  0  0  0  0  0  0  0
   10.2139   -3.8947   48.0407 C   0  0  0  0  0  0  0  0  0  0  0  0
    6.6188   -4.9855   47.3969 N   0  0  0  0  0  0  0  0  0  0  0  0
    5.1401   -3.1961   47.7242 O   0  0  0  0  0  0  0  0  0  0  0  0
    9.2230   -4.6492   47.2923 C   0  0  0  0  0  0  0  0  0  0  0  0
   12.4306   -1.6942   48.6002 C   0  0  0  0  0  0  0  0  0  0  0  0
   13.1277   -2.5738   47.4657 C   0  0  0  0  0  0  0  0  0  0  0  0
   13.0390   -2.0905   46.2012 C   0  0  0  0  0  0  0  0  0  0  0  0
   12.0480   -1.9723   45.6449 O   0  0  0  0  0  0  0  0  0  0  0  0
   14.1045   -1.8603   45.5011 O   0  0  0  0  0  0  0  0  0  0  0  0
   13.1631   -1.1095   49.4791 C   0  0  0  0  0  0  0  0  0  0  0  0
   12.6036   -0.2624   50.4087 C   0  0  0  0  0  0  0  0  0  0  0  0
    9.0302   -0.8832   49.6441 O   0  0  0  0  0  0  0  0  0  0  0  0
   13.2865    0.4502   51.3843 O   0  0  0  0  0  0  0  0  0  0  0  0
   11.1623   -0.2123   50.4891 C   0  0  0  0  0  0  0  0  0  0  0  0
  1  2  1  0
  2  3  2  0
  3  4  1  0
  1  5  2  0
  4  5  1  0
  4  6  2  0
  5  7  1  0
  7  8  2  0
  6  9  1  0
  3 10  1  0
  9 11  2  0
 10 11  1  0
  7 12  1  0
 12 13  2  0
  9 14  1  0
 11 15  1  0
 14 16  1  0
 13 17  1  0
 16 18  1  0
 14 19  2  0
 15 20  2  0
 19 20  1  0
 19 21  1  0
 21 22  2  0
  8 23  1  0
 17 23  2  0
 21 24  1  0
 22 25  1  0
 25 26  1  0
 26 27  2  0
 25 28  2  0
 18 29  1  0
 18 30  2  0
 24 31  2  0
 28 31  1  0
 26 32  1  0
 32 33  1  0
 33 34  1  0
 34 35  1  0
 34 36  2  0
 32 37  2  0
 37 38  1  0
 27 39  1  0
 38 40  1  0
 27 41  1  0
 38 41  2  0
M  END
$$$$
O14757_Pocket2Mol_idx-in-all-generaetd-71
     RDKit          3D

 31 36  0  0  0  0  0  0  0  0999 V2000
    4.8173    0.2791   42.6993 N   0  0  0  0  0  0  0  0  0  0  0  0
    5.3297   -0.7477   43.3688 C   0  0  0  0  0  0  0  0  0  0  0  0
    3.4732   -0.2235   42.4530 C   0  0  0  0  0  0  0  0  0  0  0  0
    4.4984   -1.7876   43.6214 C   0  0  0  0  0  0  0  0  0  0  0  0
    3.3438   -1.5190   42.9379 C   0  0  0  0  0  0  0  0  0  0  0  0
    2.1381   -2.3401   42.8254 C   0  0  0  0  0  0  0  0  0  0  0  0
    2.3894    0.3572   41.9843 N   0  0  0  0  0  0  0  0  0  0  0  0
    4.9180   -3.0430   44.3829 C   0  0  0  0  0  0  0  0  0  0  0  0
    5.9444   -2.9314   45.3934 C   0  0  0  0  0  0  0  0  0  0  0  0
    4.2808   -4.1329   44.3252 C   0  0  0  0  0  0  0  0  0  0  0  0
    3.1588   -4.4221   43.4852 O   0  0  0  0  0  0  0  0  0  0  0  0
    4.5704   -5.2518   45.1995 C   0  0  0  0  0  0  0  0  0  0  0  0
    1.9853   -3.6792   43.3495 C   0  0  0  0  0  0  0  0  0  0  0  0
    0.9181   -4.3294   43.4638 C   0  0  0  0  0  0  0  0  0  0  0  0
    6.1667   -3.9106   46.0813 C   0  0  0  0  0  0  0  0  0  0  0  0
    0.9627   -1.7613   42.3940 C   0  0  0  0  0  0  0  0  0  0  0  0
    3.8296   -6.4325   45.0544 F   0  0  0  0  0  0  0  0  0  0  0  0
   -0.2646   -3.7780   42.9121 C   0  0  0  0  0  0  0  0  0  0  0  0
    5.4599   -5.1112   46.0385 C   0  0  0  0  0  0  0  0  0  0  0  0
    7.3541   -3.7011   47.1652 C   0  0  0  0  0  0  0  0  0  0  0  0
    8.4146   -3.0196   46.7433 C   0  0  0  0  0  0  0  0  0  0  0  0
   -0.1899   -2.5032   42.3318 C   0  0  0  0  0  0  0  0  0  0  0  0
    1.1541   -0.3970   41.8264 C   0  0  0  0  0  0  0  0  0  0  0  0
    9.3823   -3.3931   46.2612 C   0  0  0  0  0  0  0  0  0  0  0  0
    8.4060   -1.5015   46.7824 C   0  0  0  0  0  0  0  0  0  0  0  0
    9.6782   -4.8066   46.1177 C   0  0  0  0  0  0  0  0  0  0  0  0
    9.5921   -1.1143   46.2163 N   0  0  0  0  0  0  0  0  0  0  0  0
    9.4786   -5.7140   46.9107 O   0  0  0  0  0  0  0  0  0  0  0  0
   10.1978   -2.3019   45.9499 N   0  0  0  0  0  0  0  0  0  0  0  0
   11.5769   -2.2636   45.9047 C   0  0  0  0  0  0  0  0  0  0  0  0
   10.4957   -5.0746   45.0856 O   0  0  0  0  0  0  0  0  0  0  0  0
  1  2  2  0
  1  3  1  0
  2  4  1  0
  3  5  1  0
  4  5  2  0
  5  6  1  0
  3  7  2  0
  4  8  1  0
  8  9  1  0
  8 10  2  0
 10 11  1  0
 10 12  1  0
  6 13  1  0
 11 13  1  0
 13 14  2  0
  9 15  2  0
  6 16  2  0
 12 17  1  0
 14 18  1  0
 12 19  2  0
 15 19  1  0
 15 20  1  0
 20 21  1  0
 16 22  1  0
 18 22  2  0
  7 23  1  0
 16 23  1  0
 21 24  2  0
 21 25  1  0
 24 26  1  0
 25 27  2  0
 26 28  2  0
 24 29  1  0
 27 29  1  0
 29 30  1  0
 26 31  1  0
M  END
$$$$
O14757_Pocket2Mol_idx-in-all-generaetd-72
     RDKit          3D

 29 34  0  0  0  0  0  0  0  0999 V2000
    5.3420    0.2589   42.8836 O   0  0  0  0  0  0  0  0  0  0  0  0
    5.1627   -0.7554   43.4753 C   0  0  0  0  0  0  0  0  0  0  0  0
    4.0509   -1.4657   43.4177 N   0  0  0  0  0  0  0  0  0  0  0  0
    5.9969   -1.2317   44.6840 C   0  0  0  0  0  0  0  0  0  0  0  0
    2.9618   -1.1021   42.5918 C   0  0  0  0  0  0  0  0  0  0  0  0
    7.3392   -0.8596   44.8412 C   0  0  0  0  0  0  0  0  0  0  0  0
    1.9754   -2.0820   42.2741 C   0  0  0  0  0  0  0  0  0  0  0  0
    5.5910   -2.4282   45.3439 C   0  0  0  0  0  0  0  0  0  0  0  0
    6.5874   -2.9636   46.1581 C   0  0  0  0  0  0  0  0  0  0  0  0
    4.2763   -3.0680   45.0493 N   0  0  0  0  0  0  0  0  0  0  0  0
    3.6188   -2.5886   44.2024 C   0  0  0  0  0  0  0  0  0  0  0  0
    8.1921   -1.4071   45.7505 C   0  0  0  0  0  0  0  0  0  0  0  0
    1.0154   -1.8839   41.2980 C   0  0  0  0  0  0  0  0  0  0  0  0
    2.5720   -3.3564   43.9063 C   0  0  0  0  0  0  0  0  0  0  0  0
    0.2502   -2.8976   41.0751 C   0  0  0  0  0  0  0  0  0  0  0  0
    0.2230   -3.9124   42.0516 C   0  0  0  0  0  0  0  0  0  0  0  0
    2.2879   -4.6260   44.7113 N   0  0  0  0  0  0  0  0  0  0  0  0
    1.7585   -3.1585   42.9749 N   0  0  0  0  0  0  0  0  0  0  0  0
    7.7776   -2.5440   46.4766 C   0  0  0  0  0  0  0  0  0  0  0  0
    0.8620   -4.0153   42.9214 C   0  0  0  0  0  0  0  0  0  0  0  0
    2.9942   -0.0014   41.9856 O   0  0  0  0  0  0  0  0  0  0  0  0
    8.6110   -3.0684   47.3244 O   0  0  0  0  0  0  0  0  0  0  0  0
    9.7976   -3.4246   46.8484 C   0  0  0  0  0  0  0  0  0  0  0  0
    1.0964   -4.9712   43.9641 C   0  0  0  0  0  0  0  0  0  0  0  0
   10.0722   -4.6814   46.7411 C   0  0  0  0  0  0  0  0  0  0  0  0
   10.8818   -2.6768   47.6438 C   0  0  0  0  0  0  0  0  0  0  0  0
   11.4386   -5.0078   46.3781 C   0  0  0  0  0  0  0  0  0  0  0  0
   12.2376   -2.8078   47.2401 C   0  0  0  0  0  0  0  0  0  0  0  0
   12.5160   -4.3069   47.0852 C   0  0  0  0  0  0  0  0  0  0  0  0
  1  2  2  0
  2  3  1  0
  2  4  1  0
  3  5  1  0
  4  6  2  0
  5  7  1  0
  4  8  1  0
  8  9  2  0
  8 10  1  0
  3 11  1  0
 10 11  2  0
  6 12  1  0
  7 13  2  0
 11 14  1  0
 13 15  1  0
 15 16  2  0
 14 17  2  0
  7 18  1  0
 14 18  1  0
  9 19  1  0
 12 19  2  0
 16 20  1  0
 18 20  1  0
  5 21  2  0
 19 22  1  0
 22 23  1  0
 17 24  1  0
 20 24  2  0
 23 25  1  0
 23 26  1  0
 25 27  1  0
 26 28  1  0
 27 29  1  0
 28 29  1  0
M  END
$$$$
O14757_Pocket2Mol_idx-in-all-generaetd-73
     RDKit          3D

 29 32  0  0  0  0  0  0  0  0999 V2000
    0.3497   -2.5592   41.5321 C   0  0  0  0  0  0  0  0  0  0  0  0
    0.7059   -1.3065   41.4152 C   0  0  0  0  0  0  0  0  0  0  0  0
    2.0121   -0.9206   42.0074 C   0  0  0  0  0  0  0  0  0  0  0  0
    2.8273   -1.8583   42.7096 C   0  0  0  0  0  0  0  0  0  0  0  0
   -0.9158   -2.9896   41.0259 O   0  0  0  0  0  0  0  0  0  0  0  0
    2.1785   -3.2182   42.8202 C   0  0  0  0  0  0  0  0  0  0  0  0
    2.9957   -4.0364   43.6549 N   0  0  0  0  0  0  0  0  0  0  0  0
    1.0381   -3.5102   42.3147 C   0  0  0  0  0  0  0  0  0  0  0  0
    4.0501   -1.4436   43.3296 C   0  0  0  0  0  0  0  0  0  0  0  0
    4.2345   -3.7127   44.1966 C   0  0  0  0  0  0  0  0  0  0  0  0
    4.9099   -4.6363   45.0387 N   0  0  0  0  0  0  0  0  0  0  0  0
    4.7563   -2.4299   44.0678 C   0  0  0  0  0  0  0  0  0  0  0  0
    6.0306   -2.0532   44.6670 C   0  0  0  0  0  0  0  0  0  0  0  0
    4.6111   -0.1656   43.0716 N   0  0  0  0  0  0  0  0  0  0  0  0
    6.7834   -2.7598   45.5925 N   0  0  0  0  0  0  0  0  0  0  0  0
    8.0062   -2.3962   46.0654 C   0  0  0  0  0  0  0  0  0  0  0  0
    8.3845   -1.1262   46.4117 C   0  0  0  0  0  0  0  0  0  0  0  0
    6.3026   -0.6817   44.5619 N   0  0  0  0  0  0  0  0  0  0  0  0
    9.7286   -0.9794   46.8759 C   0  0  0  0  0  0  0  0  0  0  0  0
    8.8627   -3.5030   46.2674 C   0  0  0  0  0  0  0  0  0  0  0  0
    5.6489    0.1157   43.6981 N   0  0  0  0  0  0  0  0  0  0  0  0
   -2.0747   -2.4379   41.5598 C   0  0  0  0  0  0  0  0  0  0  0  0
    8.3642   -4.8521   46.0206 F   0  0  0  0  0  0  0  0  0  0  0  0
   10.5513   -2.0709   47.1036 C   0  0  0  0  0  0  0  0  0  0  0  0
   10.1772   -3.4572   46.8521 C   0  0  0  0  0  0  0  0  0  0  0  0
   11.9622   -1.8414   47.5607 C   0  0  0  0  0  0  0  0  0  0  0  0
   12.8283   -1.4975   46.6982 C   0  0  0  0  0  0  0  0  0  0  0  0
   12.7872   -2.0330   45.3936 N   0  0  0  0  0  0  0  0  0  0  0  0
   13.7119   -0.5491   46.7879 O   0  0  0  0  0  0  0  0  0  0  0  0
  1  2  2  0
  2  3  1  0
  3  4  2  0
  1  5  1  0
  4  6  1  0
  6  7  1  0
  1  8  1  0
  6  8  2  0
  4  9  1  0
  7 10  2  0
 10 11  1  0
  9 12  2  0
 10 12  1  0
 12 13  1  0
  9 14  1  0
 13 15  1  0
 15 16  1  0
 16 17  2  0
 13 18  2  0
 17 19  1  0
 16 20  1  0
 14 21  2  0
 18 21  1  0
  5 22  1  0
 20 23  1  0
 19 24  2  0
 20 25  2  0
 24 25  1  0
 24 26  1  0
 26 27  1  0
 27 28  1  0
 27 29  2  0
M  END
$$$$
O14757_Pocket2Mol_idx-in-all-generaetd-74
     RDKit          3D

 29 33  0  0  0  0  0  0  0  0999 V2000
    5.3420    0.2589   42.8836 N   0  0  0  0  0  0  0  0  0  0  0  0
    5.6740   -0.8311   43.5645 C   0  0  0  0  0  0  0  0  0  0  0  0
    6.8416   -0.9240   44.3627 N   0  0  0  0  0  0  0  0  0  0  0  0
    4.1141    0.2821   42.2689 C   0  0  0  0  0  0  0  0  0  0  0  0
    3.2237   -0.7484   42.3921 N   0  0  0  0  0  0  0  0  0  0  0  0
    6.8097   -1.9585   45.3182 C   0  0  0  0  0  0  0  0  0  0  0  0
    3.5007   -1.8060   43.1511 C   0  0  0  0  0  0  0  0  0  0  0  0
    4.7020   -1.8573   43.8328 C   0  0  0  0  0  0  0  0  0  0  0  0
    5.4887   -2.6670   44.9856 C   0  0  0  0  0  0  0  0  0  0  0  0
    2.5208   -2.8458   43.2671 C   0  0  0  0  0  0  0  0  0  0  0  0
    2.6558   -3.8570   44.2541 C   0  0  0  0  0  0  0  0  0  0  0  0
    7.6468   -2.3589   46.2854 C   0  0  0  0  0  0  0  0  0  0  0  0
    3.8579   -4.1296   44.9532 N   0  0  0  0  0  0  0  0  0  0  0  0
    1.3096   -2.7520   42.6410 C   0  0  0  0  0  0  0  0  0  0  0  0
    4.9776   -3.8402   45.4939 C   0  0  0  0  0  0  0  0  0  0  0  0
    0.9912   -1.7393   41.6079 C   0  0  0  0  0  0  0  0  0  0  0  0
    1.5259   -4.6645   44.4644 C   0  0  0  0  0  0  0  0  0  0  0  0
    8.7139   -1.5535   46.4661 C   0  0  0  0  0  0  0  0  0  0  0  0
    0.4108   -4.5978   43.8261 C   0  0  0  0  0  0  0  0  0  0  0  0
    0.2723   -3.6471   42.8519 C   0  0  0  0  0  0  0  0  0  0  0  0
    8.9754   -0.4915   45.6953 O   0  0  0  0  0  0  0  0  0  0  0  0
    7.5178   -3.6030   46.9556 C   0  0  0  0  0  0  0  0  0  0  0  0
    9.6948   -1.9613   47.4472 C   0  0  0  0  0  0  0  0  0  0  0  0
   10.8613   -1.0312   47.6789 C   0  0  0  0  0  0  0  0  0  0  0  0
   11.8322   -1.1859   46.6590 C   0  0  0  0  0  0  0  0  0  0  0  0
    8.4152   -3.9165   47.9729 C   0  0  0  0  0  0  0  0  0  0  0  0
    9.5327   -3.0634   48.1740 C   0  0  0  0  0  0  0  0  0  0  0  0
   12.3416   -2.2835   46.3520 O   0  0  0  0  0  0  0  0  0  0  0  0
   12.4930   -0.1665   46.1818 O   0  0  0  0  0  0  0  0  0  0  0  0
  1  2  2  0
  2  3  1  0
  1  4  1  0
  4  5  2  0
  3  6  1  0
  5  7  1  0
  2  8  1  0
  7  8  2  0
  6  9  2  0
  8  9  1  0
  7 10  1  0
 10 11  2  0
  6 12  1  0
 11 13  1  0
 10 14  1  0
  9 15  1  0
 13 15  1  0
 14 16  1  0
 11 17  1  0
 12 18  2  0
 17 19  2  0
 14 20  2  0
 19 20  1  0
 18 21  1  0
 12 22  1  0
 18 23  1  0
 23 24  1  0
 24 25  1  0
 22 26  2  0
 23 27  2  0
 26 27  1  0
 25 28  2  0
 25 29  1  0
M  END
$$$$
O14757_Pocket2Mol_idx-in-all-generaetd-75
     RDKit          3D

 44 50  0  0  0  0  0  0  0  0999 V2000
    5.3420    0.2589   42.8836 O   0  0  0  0  0  0  0  0  0  0  0  0
    5.1627   -0.7554   43.4753 C   0  0  0  0  0  0  0  0  0  0  0  0
    4.0509   -1.4657   43.4177 N   0  0  0  0  0  0  0  0  0  0  0  0
    5.9969   -1.2317   44.6840 C   0  0  0  0  0  0  0  0  0  0  0  0
    2.9618   -1.1021   42.5918 C   0  0  1  0  0  0  0  0  0  0  0  0
    7.3392   -0.8596   44.8412 C   0  0  0  0  0  0  0  0  0  0  0  0
    1.9754   -2.0820   42.2741 C   0  0  0  0  0  0  0  0  0  0  0  0
    5.5910   -2.4282   45.3439 C   0  0  0  0  0  0  0  0  0  0  0  0
    6.5874   -2.9636   46.1581 C   0  0  0  0  0  0  0  0  0  0  0  0
    4.2763   -3.0680   45.0493 N   0  0  0  0  0  0  0  0  0  0  0  0
    3.6188   -2.5886   44.2024 C   0  0  0  0  0  0  0  0  0  0  0  0
    8.1921   -1.4071   45.7505 C   0  0  0  0  0  0  0  0  0  0  0  0
    1.0154   -1.8839   41.2980 C   0  0  0  0  0  0  0  0  0  0  0  0
    2.5720   -3.3564   43.9063 C   0  0  0  0  0  0  0  0  0  0  0  0
    0.2502   -2.8976   41.0751 C   0  0  0  0  0  0  0  0  0  0  0  0
    6.1761   -4.1775   47.0209 C   0  0  0  0  0  0  0  0  0  0  0  0
    1.7266   -3.1047   43.0115 C   0  0  2  0  0  0  0  0  0  0  0  0
    2.3696   -4.5367   44.7536 N   0  0  0  0  0  0  0  0  0  0  0  0
    1.2264   -5.2346   44.4693 C   0  0  0  0  0  0  0  0  0  0  0  0
    0.7187   -3.8955   42.5465 C   0  0  0  0  0  0  0  0  0  0  0  0
    9.4576   -0.8949   46.0327 N   0  0  0  0  0  0  0  0  0  0  0  0
    0.8625   -6.3901   45.2462 C   0  0  0  0  0  0  0  0  0  0  0  0
    7.6467   -2.5139   46.4892 C   0  0  0  0  0  0  0  0  0  0  0  0
   10.4908   -1.5336   45.8242 C   0  0  0  0  0  0  0  0  0  0  0  0
    0.3057   -4.9299   43.2909 C   0  0  0  0  0  0  0  0  0  0  0  0
   11.5916   -1.4291   46.7436 C   0  0  0  0  0  0  0  0  0  0  0  0
   10.5566   -2.3672   44.8649 O   0  0  0  0  0  0  0  0  0  0  0  0
   12.8421   -1.9355   46.2823 C   0  0  0  0  0  0  0  0  0  0  0  0
   13.4833   -2.8582   46.9841 C   0  0  0  0  0  0  0  0  0  0  0  0
   11.4002   -1.1447   48.0540 C   0  0  0  0  0  0  0  0  0  0  0  0
   10.2867   -0.4569   48.4999 O   0  0  0  0  0  0  0  0  0  0  0  0
   12.3327   -1.4798   48.9564 C   0  0  0  0  0  0  0  0  0  0  0  0
   14.7901   -3.3162   46.6439 C   0  0  0  0  0  0  0  0  0  0  0  0
   12.1651   -1.3050   50.3239 O   0  0  0  0  0  0  0  0  0  0  0  0
   15.6765   -2.5740   46.0979 C   0  0  0  0  0  0  0  0  0  0  0  0
   13.4417   -2.4710   48.5369 C   0  0  0  0  0  0  0  0  0  0  0  0
   15.5553   -1.2853   45.8338 C   0  0  0  0  0  0  0  0  0  0  0  0
   15.4119   -0.8806   44.5116 C   0  0  0  0  0  0  0  0  0  0  0  0
    2.4631    0.2112   42.8539 C   0  0  0  0  0  0  0  0  0  0  0  0
   14.8794    0.3049   44.1896 C   0  0  0  0  0  0  0  0  0  0  0  0
   14.4631    0.5434   42.6927 C   0  0  0  0  0  0  0  0  0  0  0  0
   14.3201    1.2140   45.0775 C   0  0  0  0  0  0  0  0  0  0  0  0
   14.7075    0.9621   46.4450 C   0  0  0  0  0  0  0  0  0  0  0  0
   15.2922   -0.2655   46.8230 C   0  0  0  0  0  0  0  0  0  0  0  0
  1  2  2  0
  2  3  1  0
  2  4  1  0
  3  5  1  0
  4  6  2  0
  5  7  1  0
  4  8  1  0
  8  9  2  0
  8 10  1  0
  3 11  1  0
 10 11  2  0
  6 12  1  0
  7 13  2  0
 11 14  1  0
 13 15  1  0
  9 16  1  0
 17  7  1  6
 14 17  1  0
 14 18  2  0
 18 19  1  0
 15 20  2  0
 17 20  1  0
 12 21  1  0
 19 22  1  0
  9 23  1  0
 12 23  2  0
 21 24  1  0
 19 25  2  0
 20 25  1  0
 24 26  1  0
 24 27  2  0
 26 28  2  0
 28 29  1  0
 26 30  1  0
 30 31  1  0
 30 32  2  0
 29 33  1  0
 32 34  1  0
 33 35  2  3
 29 36  2  0
 32 36  1  0
 35 37  1  0
 37 38  2  0
  5 39  1  1
 38 40  1  0
 40 41  1  0
 40 42  2  0
 42 43  1  0
 37 44  1  0
 43 44  2  0
M  END
$$$$
O14757_Pocket2Mol_idx-in-all-generaetd-76
     RDKit          3D

 29 33  0  0  0  0  0  0  0  0999 V2000
    1.5482   -0.3111   41.9233 C   0  0  0  0  0  0  0  0  0  0  0  0
    2.7284    0.2018   42.1525 N   0  0  0  0  0  0  0  0  0  0  0  0
    3.7893   -0.3016   42.7005 C   0  0  0  0  0  0  0  0  0  0  0  0
    3.3781   -1.7350   43.0000 C   0  0  0  0  0  0  0  0  0  0  0  0
    2.0339   -1.9619   42.6217 C   0  0  0  0  0  0  0  0  0  0  0  0
    4.1166   -2.4997   43.8458 C   0  0  0  0  0  0  0  0  0  0  0  0
    1.1731   -3.0051   42.5773 C   0  0  0  0  0  0  0  0  0  0  0  0
    0.4701   -3.2344   41.4901 C   0  0  0  0  0  0  0  0  0  0  0  0
    5.3799   -1.7814   44.2691 C   0  0  0  0  0  0  0  0  0  0  0  0
    5.0159   -0.0180   43.1201 N   0  0  0  0  0  0  0  0  0  0  0  0
    5.7693   -0.6937   43.8418 C   0  0  0  0  0  0  0  0  0  0  0  0
    0.8078   -3.6166   43.6782 C   0  0  0  0  0  0  0  0  0  0  0  0
    0.0663   -4.7011   43.7415 N   0  0  0  0  0  0  0  0  0  0  0  0
    6.2223   -2.6843   45.1565 C   0  0  0  0  0  0  0  0  0  0  0  0
    6.9599   -0.2351   44.2608 N   0  0  0  0  0  0  0  0  0  0  0  0
    5.9065   -3.9037   45.7499 N   0  0  0  0  0  0  0  0  0  0  0  0
   -0.5459   -5.1185   42.5870 C   0  0  0  0  0  0  0  0  0  0  0  0
    5.7480   -4.0340   46.9810 C   0  0  0  0  0  0  0  0  0  0  0  0
    7.4448   -1.8511   45.4198 C   0  0  0  0  0  0  0  0  0  0  0  0
    7.7572   -0.7827   45.0128 C   0  0  0  0  0  0  0  0  0  0  0  0
    8.4076   -2.7217   46.4541 C   0  0  0  0  0  0  0  0  0  0  0  0
    9.3167   -2.0988   47.1049 N   0  0  0  0  0  0  0  0  0  0  0  0
   -0.4719   -4.3893   41.5406 C   0  0  0  0  0  0  0  0  0  0  0  0
    8.3667   -4.0284   46.5743 N   0  0  0  0  0  0  0  0  0  0  0  0
    9.5309   -4.3147   47.3094 C   0  0  0  0  0  0  0  0  0  0  0  0
    5.3113   -3.3789   47.8005 O   0  0  0  0  0  0  0  0  0  0  0  0
    6.0935   -5.4208   47.4043 N   0  0  0  0  0  0  0  0  0  0  0  0
   10.0785   -3.0327   47.7419 C   0  0  0  0  0  0  0  0  0  0  0  0
   11.3033   -2.7383   48.5955 C   0  0  0  0  0  0  0  0  0  0  0  0
  1  2  1  0
  2  3  2  0
  3  4  1  0
  1  5  2  0
  4  5  1  0
  4  6  2  0
  5  7  1  0
  7  8  2  0
  6  9  1  0
  3 10  1  0
  9 11  2  0
 10 11  1  0
  7 12  1  0
 12 13  2  0
  9 14  1  0
 11 15  1  0
 14 16  1  0
 13 17  1  0
 16 18  1  0
 14 19  2  0
 15 20  2  0
 19 20  1  0
 19 21  1  0
 21 22  2  0
  8 23  1  0
 17 23  2  0
 21 24  1  0
 24 25  1  0
 18 26  2  0
 18 27  1  0
 22 28  1  0
 25 28  2  0
 28 29  1  0
M  END
$$$$
O14757_Pocket2Mol_idx-in-all-generaetd-77
     RDKit          3D

 33 36  0  0  0  0  0  0  0  0999 V2000
    3.7044    0.1389   42.5158 N   0  0  0  0  0  0  0  0  0  0  0  0
    3.0206   -1.0018   42.4929 C   0  0  0  0  0  0  0  0  0  0  0  0
    3.4791   -2.0817   43.2077 C   0  0  0  0  0  0  0  0  0  0  0  0
    4.8540    0.3862   43.0582 N   0  0  0  0  0  0  0  0  0  0  0  0
    5.1377   -0.9552   43.7144 C   0  0  0  0  0  0  0  0  0  0  0  0
    1.5846   -1.0753   41.7644 C   0  0  0  0  0  0  0  0  0  0  0  0
    4.6026   -2.0358   43.8129 C   0  0  0  0  0  0  0  0  0  0  0  0
    5.1584   -3.1511   44.6069 C   0  0  0  0  0  0  0  0  0  0  0  0
    6.6094   -0.7911   44.3696 N   0  0  0  0  0  0  0  0  0  0  0  0
    4.4744   -4.3270   44.8472 C   0  0  0  0  0  0  0  0  0  0  0  0
    6.9275   -1.8713   45.2437 C   0  0  0  0  0  0  0  0  0  0  0  0
    8.2702   -1.7750   45.8768 C   0  0  0  0  0  0  0  0  0  0  0  0
    0.9365   -0.0867   41.7346 O   0  0  0  0  0  0  0  0  0  0  0  0
    6.2322   -3.0484   45.3118 C   0  0  0  0  0  0  0  0  0  0  0  0
    6.7747   -4.0433   46.1202 N   0  0  0  0  0  0  0  0  0  0  0  0
    1.2161   -2.2739   41.2518 N   0  0  0  0  0  0  0  0  0  0  0  0
    9.0373   -0.5649   45.9132 O   0  0  0  0  0  0  0  0  0  0  0  0
    3.8907   -5.0906   43.9511 O   0  0  0  0  0  0  0  0  0  0  0  0
    4.3454   -4.8388   46.1621 N   0  0  0  0  0  0  0  0  0  0  0  0
    3.4531   -5.8952   46.4159 C   0  0  0  0  0  0  0  0  0  0  0  0
    8.6904   -2.8983   46.6073 N   0  0  0  0  0  0  0  0  0  0  0  0
    7.9257   -3.9393   46.7384 C   0  0  0  0  0  0  0  0  0  0  0  0
    8.4765   -4.8975   47.5307 O   0  0  0  0  0  0  0  0  0  0  0  0
   10.0100   -2.6771   47.3464 C   0  0  0  0  0  0  0  0  0  0  0  0
   10.0326   -1.8380   48.3764 C   0  0  0  0  0  0  0  0  0  0  0  0
   11.1123   -3.0851   46.6870 C   0  0  0  0  0  0  0  0  0  0  0  0
   11.1072   -3.8213   45.4597 C   0  0  0  0  0  0  0  0  0  0  0  0
   11.0296   -5.0092   45.4509 C   0  0  0  0  0  0  0  0  0  0  0  0
   12.3326   -2.5048   47.0028 C   0  0  0  0  0  0  0  0  0  0  0  0
   11.2651   -1.5297   48.9347 C   0  0  0  0  0  0  0  0  0  0  0  0
   11.1419   -5.9062   44.4986 C   0  0  0  0  0  0  0  0  0  0  0  0
   13.5603   -2.8807   46.4031 C   0  0  0  0  0  0  0  0  0  0  0  0
   12.4903   -1.9109   48.2603 C   0  0  0  0  0  0  0  0  0  0  0  0
  1  2  2  0
  2  3  1  0
  1  4  1  0
  4  5  2  0
  2  6  1  0
  3  7  2  0
  5  7  1  0
  7  8  1  0
  5  9  1  0
  8 10  1  0
  9 11  2  0
 11 12  1  0
  6 13  2  0
  8 14  2  0
 11 14  1  0
 14 15  1  0
  6 16  1  0
 12 17  2  0
 10 18  2  0
 10 19  1  0
 19 20  1  0
 12 21  1  0
 15 22  1  0
 21 22  1  0
 22 23  2  0
 21 24  1  0
 24 25  2  0
 24 26  1  0
 26 27  1  0
 27 28  2  3
 26 29  2  0
 25 30  1  0
 28 31  1  0
 29 32  1  0
 29 33  1  0
 30 33  2  0
M  END
$$$$
O14757_Pocket2Mol_idx-in-all-generaetd-78
     RDKit          3D

 26 30  0  0  0  0  0  0  0  0999 V2000
    5.3420    0.2589   42.8836 O   0  0  0  0  0  0  0  0  0  0  0  0
    5.1627   -0.7554   43.4753 C   0  0  0  0  0  0  0  0  0  0  0  0
    4.0509   -1.4657   43.4177 N   0  0  0  0  0  0  0  0  0  0  0  0
    5.9969   -1.2317   44.6840 C   0  0  0  0  0  0  0  0  0  0  0  0
    2.9618   -1.1021   42.5918 C   0  0  1  0  0  0  0  0  0  0  0  0
    7.3392   -0.8596   44.8412 C   0  0  0  0  0  0  0  0  0  0  0  0
    1.9754   -2.0820   42.2741 C   0  0  0  0  0  0  0  0  0  0  0  0
    5.5910   -2.4282   45.3439 C   0  0  0  0  0  0  0  0  0  0  0  0
    6.5874   -2.9636   46.1581 C   0  0  0  0  0  0  0  0  0  0  0  0
    4.2763   -3.0680   45.0493 N   0  0  0  0  0  0  0  0  0  0  0  0
    3.6188   -2.5886   44.2024 C   0  0  0  0  0  0  0  0  0  0  0  0
    8.1921   -1.4071   45.7505 C   0  0  0  0  0  0  0  0  0  0  0  0
    1.0154   -1.8839   41.2980 C   0  0  0  0  0  0  0  0  0  0  0  0
    2.5720   -3.3564   43.9063 C   0  0  0  0  0  0  0  0  0  0  0  0
    0.2502   -2.8976   41.0751 C   0  0  0  0  0  0  0  0  0  0  0  0
    6.1761   -4.1775   47.0209 C   0  0  0  0  0  0  0  0  0  0  0  0
    1.7266   -3.1047   43.0115 C   0  0  2  0  0  0  0  0  0  0  0  0
    2.3696   -4.5367   44.7536 N   0  0  0  0  0  0  0  0  0  0  0  0
    1.2264   -5.2346   44.4693 C   0  0  0  0  0  0  0  0  0  0  0  0
    0.7187   -3.8955   42.5465 C   0  0  0  0  0  0  0  0  0  0  0  0
    9.4576   -0.8949   46.0327 N   0  0  0  0  0  0  0  0  0  0  0  0
    2.4628    0.2076   42.7867 C   0  0  0  0  0  0  0  0  0  0  0  0
    0.9064   -6.4149   45.2248 C   0  0  0  0  0  0  0  0  0  0  0  0
    0.3107   -5.0600   43.3630 C   0  0  0  0  0  0  0  0  0  0  0  0
    7.8349   -2.4469   46.4709 C   0  0  0  0  0  0  0  0  0  0  0  0
    8.6647   -3.0531   47.3736 O   0  0  0  0  0  0  0  0  0  0  0  0
  1  2  2  0
  2  3  1  0
  2  4  1  0
  3  5  1  0
  4  6  2  0
  5  7  1  0
  4  8  1  0
  8  9  2  0
  8 10  1  0
  3 11  1  0
 10 11  2  0
  6 12  1  0
  7 13  2  0
 11 14  1  0
 13 15  1  0
  9 16  1  0
 17  7  1  6
 14 17  1  0
 14 18  2  0
 18 19  1  0
 15 20  2  0
 17 20  1  0
 12 21  1  0
  5 22  1  1
 19 23  1  0
 19 24  2  0
 20 24  1  0
  9 25  1  0
 12 25  2  0
 25 26  1  0
M  END
$$$$
O14757_Pocket2Mol_idx-in-all-generaetd-79
     RDKit          3D

 50 58  0  0  0  0  0  0  0  0999 V2000
    5.3420    0.2589   42.8836 O   0  0  0  0  0  0  0  0  0  0  0  0
    5.1627   -0.7554   43.4753 C   0  0  0  0  0  0  0  0  0  0  0  0
    4.0509   -1.4657   43.4177 N   0  0  0  0  0  0  0  0  0  0  0  0
    5.9969   -1.2317   44.6840 C   0  0  0  0  0  0  0  0  0  0  0  0
    2.9618   -1.1021   42.5918 C   0  0  1  0  0  0  0  0  0  0  0  0
    7.3392   -0.8596   44.8412 C   0  0  0  0  0  0  0  0  0  0  0  0
    1.9754   -2.0820   42.2741 C   0  0  0  0  0  0  0  0  0  0  0  0
    5.5910   -2.4282   45.3439 C   0  0  0  0  0  0  0  0  0  0  0  0
    6.5874   -2.9636   46.1581 C   0  0  0  0  0  0  0  0  0  0  0  0
    4.2763   -3.0680   45.0493 N   0  0  0  0  0  0  0  0  0  0  0  0
    3.6188   -2.5886   44.2024 C   0  0  0  0  0  0  0  0  0  0  0  0
    8.1921   -1.4071   45.7505 C   0  0  0  0  0  0  0  0  0  0  0  0
    1.0154   -1.8839   41.2980 C   0  0  0  0  0  0  0  0  0  0  0  0
    2.5720   -3.3564   43.9063 C   0  0  0  0  0  0  0  0  0  0  0  0
    0.2502   -2.8976   41.0751 C   0  0  0  0  0  0  0  0  0  0  0  0
    6.1761   -4.1775   47.0209 C   0  0  0  0  0  0  0  0  0  0  0  0
    1.7266   -3.1047   43.0115 C   0  0  2  0  0  0  0  0  0  0  0  0
    2.3696   -4.5367   44.7536 N   0  0  0  0  0  0  0  0  0  0  0  0
    1.2264   -5.2346   44.4693 C   0  0  0  0  0  0  0  0  0  0  0  0
    0.7187   -3.8955   42.5465 C   0  0  0  0  0  0  0  0  0  0  0  0
    9.4576   -0.8949   46.0327 N   0  0  0  0  0  0  0  0  0  0  0  0
    0.8625   -6.3901   45.2462 C   0  0  0  0  0  0  0  0  0  0  0  0
    7.6467   -2.5139   46.4892 C   0  0  0  0  0  0  0  0  0  0  0  0
   10.4908   -1.5336   45.8242 C   0  0  0  0  0  0  0  0  0  0  0  0
    0.3057   -4.9299   43.2909 C   0  0  0  0  0  0  0  0  0  0  0  0
   11.5916   -1.4291   46.7436 C   0  0  0  0  0  0  0  0  0  0  0  0
   10.5566   -2.3672   44.8649 O   0  0  0  0  0  0  0  0  0  0  0  0
    2.4730    0.2084   42.8389 O   0  0  0  0  0  0  0  0  0  0  0  0
   11.6027   -2.2081   47.7725 N   0  0  0  0  0  0  0  0  0  0  0  0
   12.6189   -0.5862   46.5415 C   0  0  0  0  0  0  0  0  0  0  0  0
   13.6413   -0.4484   47.4129 C   0  0  0  0  0  0  0  0  0  0  0  0
   10.4764   -3.1097   48.1134 C   0  0  0  0  0  0  0  0  0  0  0  0
    9.5762   -2.4717   49.0753 C   0  0  0  0  0  0  0  0  0  0  0  0
    9.7761   -1.2394   49.5167 C   0  0  0  0  0  0  0  0  0  0  0  0
    8.6397   -3.3252   49.7339 C   0  0  0  0  0  0  0  0  0  0  0  0
    8.9861   -0.7034   50.5819 C   0  0  0  0  0  0  0  0  0  0  0  0
   14.7137    0.5128   47.0925 C   0  0  0  0  0  0  0  0  0  0  0  0
    8.3536   -4.6815   49.2042 C   0  0  0  0  0  0  0  0  0  0  0  0
    7.9034   -2.7594   50.6763 C   0  0  0  0  0  0  0  0  0  0  0  0
    6.9327   -5.0150   49.0248 N   0  0  0  0  0  0  0  0  0  0  0  0
    8.1305   -1.4992   51.1482 C   0  0  0  0  0  0  0  0  0  0  0  0
    6.3852   -3.9495   48.3951 C   0  0  0  0  0  0  0  0  0  0  0  0
   13.6768   -1.2836   48.4696 C   0  0  0  0  0  0  0  0  0  0  0  0
   14.7714   -1.2324   49.3357 C   0  0  0  0  0  0  0  0  0  0  0  0
   14.6039    1.3613   46.0092 C   0  0  0  0  0  0  0  0  0  0  0  0
   12.6125   -2.2205   48.6661 C   0  0  0  0  0  0  0  0  0  0  0  0
   14.3009    2.5642   46.2520 O   0  0  0  0  0  0  0  0  0  0  0  0
   15.7253    0.3399   47.7656 C   0  0  0  0  0  0  0  0  0  0  0  0
   15.2507    1.1413   44.9740 O   0  0  0  0  0  0  0  0  0  0  0  0
   15.8052   -0.4239   48.9458 C   0  0  0  0  0  0  0  0  0  0  0  0
  1  2  2  0
  2  3  1  0
  2  4  1  0
  3  5  1  0
  4  6  2  0
  5  7  1  0
  4  8  1  0
  8  9  2  0
  8 10  1  0
  3 11  1  0
 10 11  2  0
  6 12  1  0
  7 13  2  0
 11 14  1  0
 13 15  1  0
  9 16  1  0
 17  7  1  6
 14 17  1  0
 14 18  2  0
 18 19  1  0
 15 20  2  0
 17 20  1  0
 12 21  1  0
 19 22  1  0
  9 23  1  0
 12 23  2  0
 21 24  1  0
 19 25  2  0
 20 25  1  0
 24 26  1  0
 24 27  2  0
  5 28  1  1
 26 29  1  0
 26 30  2  0
 30 31  1  0
 29 32  1  0
 32 33  1  0
 33 34  1  0
 33 35  2  0
 34 36  2  0
 31 37  2  0
 35 38  1  0
 35 39  1  0
 38 40  1  0
 36 41  1  0
 39 41  2  0
 16 42  1  0
 40 42  1  0
 31 43  1  0
 43 44  2  0
 37 45  1  0
 29 46  1  0
 43 46  1  0
 45 47  1  0
 37 48  1  0
 45 49  2  0
 44 50  1  0
 48 50  2  0
M  END
$$$$
O14757_Pocket2Mol_idx-in-all-generaetd-80
     RDKit          3D

 33 38  0  0  0  0  0  0  0  0999 V2000
    4.5156    0.0550   42.9895 N   0  0  0  0  0  0  0  0  0  0  0  0
    5.0618   -0.8645   43.5295 C   0  0  0  0  0  0  0  0  0  0  0  0
    4.4350   -2.0604   43.7783 C   0  0  0  0  0  0  0  0  0  0  0  0
    4.9987   -3.0994   44.5839 C   0  0  0  0  0  0  0  0  0  0  0  0
    3.2714   -1.8664   43.0632 C   0  0  0  0  0  0  0  0  0  0  0  0
    6.4064   -0.5942   44.3204 N   0  0  0  0  0  0  0  0  0  0  0  0
    4.3422   -4.3256   44.7203 C   0  0  0  0  0  0  0  0  0  0  0  0
    2.1845   -2.6668   42.8270 N   0  0  0  0  0  0  0  0  0  0  0  0
    3.3305   -0.5395   42.5465 N   0  0  0  0  0  0  0  0  0  0  0  0
    1.9502   -3.8972   43.4076 C   0  0  0  0  0  0  0  0  0  0  0  0
    2.7156   -4.1184   44.6954 N   0  0  0  0  0  0  0  0  0  0  0  0
    6.8581   -1.5862   45.1101 C   0  0  0  0  0  0  0  0  0  0  0  0
    6.1801   -2.8430   45.2383 C   0  0  0  0  0  0  0  0  0  0  0  0
    2.1454   -5.1901   45.5771 C   0  0  0  0  0  0  0  0  0  0  0  0
    8.0137   -1.3946   45.8526 C   0  0  0  0  0  0  0  0  0  0  0  0
    0.9733   -4.5725   43.2066 O   0  0  0  0  0  0  0  0  0  0  0  0
    2.2437    0.0035   41.8733 C   0  0  0  0  0  0  0  0  0  0  0  0
    1.3210   -2.2077   41.7009 C   0  0  0  0  0  0  0  0  0  0  0  0
    8.6047   -2.2876   46.6923 C   0  0  0  0  0  0  0  0  0  0  0  0
    7.9141   -3.5157   46.8869 C   0  0  0  0  0  0  0  0  0  0  0  0
    1.0501   -0.8658   41.6612 C   0  0  0  0  0  0  0  0  0  0  0  0
    6.7278   -3.7718   46.2525 C   0  0  0  0  0  0  0  0  0  0  0  0
    9.8280   -2.0492   47.3361 C   0  0  0  0  0  0  0  0  0  0  0  0
    9.8262   -1.5735   48.5432 C   0  0  0  0  0  0  0  0  0  0  0  0
   11.0745   -2.0905   46.6735 C   0  0  0  0  0  0  0  0  0  0  0  0
    8.5798   -1.4294   49.3788 F   0  0  0  0  0  0  0  0  0  0  0  0
   10.9754   -1.2454   49.3173 C   0  0  0  0  0  0  0  0  0  0  0  0
   11.1419   -2.5055   45.2136 C   0  0  0  0  0  0  0  0  0  0  0  0
   12.2456   -1.4009   48.7304 C   0  0  0  0  0  0  0  0  0  0  0  0
   12.2444   -1.7831   47.3889 C   0  0  0  0  0  0  0  0  0  0  0  0
   13.5131   -1.9219   46.7776 C   0  0  0  0  0  0  0  0  0  0  0  0
   14.6298   -1.5780   47.4274 O   0  0  0  0  0  0  0  0  0  0  0  0
   13.6585   -2.1303   45.4744 O   0  0  0  0  0  0  0  0  0  0  0  0
  1  2  2  0
  2  3  1  0
  3  4  1  0
  3  5  2  0
  2  6  1  0
  4  7  1  0
  5  8  1  0
  1  9  1  0
  5  9  1  0
  8 10  1  0
  7 11  1  0
 10 11  1  0
  6 12  2  0
  4 13  2  0
 12 13  1  0
 11 14  1  0
 12 15  1  0
 10 16  2  0
  9 17  1  0
  8 18  1  0
 15 19  2  0
 19 20  1  0
 17 21  1  0
 18 21  1  0
 13 22  1  0
 20 22  2  0
 19 23  1  0
 23 24  2  0
 23 25  1  0
 24 26  1  0
 24 27  1  0
 25 28  1  0
 27 29  2  0
 25 30  2  0
 29 30  1  0
 30 31  1  0
 31 32  1  0
 31 33  2  0
M  END
$$$$
O14757_Pocket2Mol_idx-in-all-generaetd-81
     RDKit          3D

 46 53  0  0  0  0  0  0  0  0999 V2000
    1.5482   -0.3111   41.9233 C   0  0  0  0  0  0  0  0  0  0  0  0
    2.7284    0.2018   42.1525 N   0  0  0  0  0  0  0  0  0  0  0  0
    3.7893   -0.3016   42.7005 C   0  0  0  0  0  0  0  0  0  0  0  0
    3.3781   -1.7350   43.0000 C   0  0  0  0  0  0  0  0  0  0  0  0
    2.0339   -1.9619   42.6217 C   0  0  0  0  0  0  0  0  0  0  0  0
    4.1166   -2.4997   43.8458 C   0  0  0  0  0  0  0  0  0  0  0  0
    1.1731   -3.0051   42.5773 C   0  0  0  0  0  0  0  0  0  0  0  0
    0.4701   -3.2344   41.4901 C   0  0  0  0  0  0  0  0  0  0  0  0
    5.3799   -1.7814   44.2691 C   0  0  0  0  0  0  0  0  0  0  0  0
    5.0159   -0.0180   43.1201 N   0  0  0  0  0  0  0  0  0  0  0  0
    5.7693   -0.6937   43.8418 C   0  0  0  0  0  0  0  0  0  0  0  0
    0.8078   -3.6166   43.6782 C   0  0  0  0  0  0  0  0  0  0  0  0
    0.0663   -4.7011   43.7415 N   0  0  0  0  0  0  0  0  0  0  0  0
    6.2223   -2.6843   45.1565 C   0  0  0  0  0  0  0  0  0  0  0  0
    1.4459   -3.3095   45.0236 O   0  0  0  0  0  0  0  0  0  0  0  0
   -0.5278   -5.1074   42.5506 C   0  0  0  0  0  0  0  0  0  0  0  0
   -1.3099   -6.2193   42.5332 N   0  0  0  0  0  0  0  0  0  0  0  0
   -0.3906   -4.3573   41.3904 C   0  0  0  0  0  0  0  0  0  0  0  0
    7.0535   -0.4845   44.4478 N   0  0  0  0  0  0  0  0  0  0  0  0
    0.6210   -3.8397   46.1835 C   0  0  0  0  0  0  0  0  0  0  0  0
    6.2906   -3.7888   45.8815 C   0  0  0  0  0  0  0  0  0  0  0  0
    7.3965   -1.5466   45.3147 C   0  0  0  0  0  0  0  0  0  0  0  0
    5.1449   -4.4973   46.0473 O   0  0  0  0  0  0  0  0  0  0  0  0
    7.4148   -4.1081   46.6372 C   0  0  0  0  0  0  0  0  0  0  0  0
    8.5011   -3.1747   46.6693 C   0  0  0  0  0  0  0  0  0  0  0  0
    8.4580   -1.9168   46.0438 C   0  0  0  0  0  0  0  0  0  0  0  0
    9.8193   -3.4927   47.5654 C   0  0  1  0  0  0  0  0  0  0  0  0
    4.3482   -4.5667   47.1383 C   0  0  0  0  0  0  0  0  0  0  0  0
   10.8925   -3.4519   46.9633 C   0  0  0  0  0  0  0  0  0  0  0  0
   11.7691   -2.4393   47.2298 N   0  0  0  0  0  0  0  0  0  0  0  0
   11.5679   -1.6048   48.2682 C   0  0  0  0  0  0  0  0  0  0  0  0
   13.2337   -2.7224   46.9899 C   0  0  0  0  0  0  0  0  0  0  0  0
   11.1468   -4.1806   45.9346 O   0  0  0  0  0  0  0  0  0  0  0  0
   14.0674   -3.2434   47.7193 C   0  0  0  0  0  0  0  0  0  0  0  0
   13.7337   -3.8357   48.9955 C   0  0  0  0  0  0  0  0  0  0  0  0
   10.6978   -1.8484   49.2819 O   0  0  0  0  0  0  0  0  0  0  0  0
   15.4145   -3.0897   47.4674 C   0  0  0  0  0  0  0  0  0  0  0  0
    9.6185   -2.3722   48.7838 C   0  0  0  0  0  0  0  0  0  0  0  0
   13.6236   -2.2426   45.6742 C   0  0  0  0  0  0  0  0  0  0  0  0
   16.4002   -3.6862   48.4243 C   0  0  0  0  0  0  0  0  0  0  0  0
   14.5527   -4.4499   49.9458 C   0  0  0  0  0  0  0  0  0  0  0  0
   15.9884   -4.3436   49.5894 C   0  0  0  0  0  0  0  0  0  0  0  0
   12.7017   -1.6366   44.7366 O   0  0  0  0  0  0  0  0  0  0  0  0
   14.9418   -2.4633   45.5272 C   0  0  0  0  0  0  0  0  0  0  0  0
   12.8179   -1.7945   43.5449 C   0  0  0  0  0  0  0  0  0  0  0  0
   15.9225   -2.8396   46.3092 C   0  0  0  0  0  0  0  0  0  0  0  0
  1  2  1  0
  2  3  2  0
  3  4  1  0
  1  5  2  0
  4  5  1  0
  4  6  2  0
  5  7  1  0
  7  8  2  0
  6  9  1  0
  3 10  1  0
  9 11  1  0
 10 11  1  0
  7 12  1  0
 12 13  2  0
  9 14  2  0
 12 15  1  0
 13 16  1  0
 16 17  1  0
  8 18  1  0
 16 18  2  0
 11 19  2  0
 15 20  1  0
 14 21  1  0
 14 22  1  0
 19 22  1  0
 21 23  1  0
 21 24  2  0
 24 25  1  0
 22 26  2  0
 25 26  2  0
 27 25  1  6
 23 28  1  0
 27 29  1  0
 29 30  1  0
 30 31  1  0
 30 32  1  0
 29 33  2  0
 32 34  1  0
 34 35  2  0
 31 36  1  0
 34 37  1  0
 27 38  1  0
 36 38  1  0
 32 39  2  0
 37 40  2  0
 35 41  1  0
 40 42  1  0
 41 42  2  0
 39 43  1  0
 39 44  1  0
 43 45  1  0
 37 46  1  0
 44 46  2  0
M  END
$$$$
O14757_Pocket2Mol_idx-in-all-generaetd-82
     RDKit          3D

 35 39  0  0  0  0  0  0  0  0999 V2000
    2.2688    0.3052   42.1942 N   0  0  0  0  0  0  0  0  0  0  0  0
    1.5681   -0.5985   42.0391 C   0  0  0  0  0  0  0  0  0  0  0  0
    0.2713   -0.6749   41.4483 C   0  0  0  0  0  0  0  0  0  0  0  0
    3.6365    0.2703   42.6880 C   0  0  0  0  0  0  0  0  0  0  0  0
    3.8321   -1.1348   42.9762 C   0  0  0  0  0  0  0  0  0  0  0  0
    2.8260   -2.0201   42.8203 C   0  0  0  0  0  0  0  0  0  0  0  0
    1.7444   -1.8415   42.3318 N   0  0  0  0  0  0  0  0  0  0  0  0
    3.2538   -3.3101   43.4270 N   0  0  0  0  0  0  0  0  0  0  0  0
    2.4413   -4.3420   43.6264 C   0  0  0  0  0  0  0  0  0  0  0  0
    4.5709   -3.0849   43.9583 C   0  0  0  0  0  0  0  0  0  0  0  0
    4.9539   -1.7198   43.6718 C   0  0  0  0  0  0  0  0  0  0  0  0
    1.7950   -4.3815   44.9098 C   0  0  0  0  0  0  0  0  0  0  0  0
    6.2203   -1.1385   44.0326 C   0  0  0  0  0  0  0  0  0  0  0  0
    2.4006   -4.9997   45.9013 O   0  0  0  0  0  0  0  0  0  0  0  0
    6.9025   -1.6501   45.0796 C   0  0  0  0  0  0  0  0  0  0  0  0
    5.4101   -3.6941   45.0229 C   0  0  0  0  0  0  0  0  0  0  0  0
    5.0219   -4.9002   45.5161 O   0  0  0  0  0  0  0  0  0  0  0  0
    6.6083   -3.0238   45.5442 C   0  0  0  0  0  0  0  0  0  0  0  0
    7.4531   -3.6409   46.5606 C   0  0  0  0  0  0  0  0  0  0  0  0
    8.0146   -0.9691   45.5874 C   0  0  0  0  0  0  0  0  0  0  0  0
    7.1412   -4.8399   47.0721 O   0  0  0  0  0  0  0  0  0  0  0  0
    8.5485   -2.8812   47.0742 C   0  0  0  0  0  0  0  0  0  0  0  0
    9.3616   -3.5571   48.1369 C   0  0  0  0  0  0  0  0  0  0  0  0
    8.8032   -1.5552   46.6208 C   0  0  0  0  0  0  0  0  0  0  0  0
    9.2256   -3.1439   49.3560 O   0  0  0  0  0  0  0  0  0  0  0  0
   10.2084   -4.4536   47.7782 O   0  0  0  0  0  0  0  0  0  0  0  0
   11.3089   -4.0551   47.0923 C   0  0  0  0  0  0  0  0  0  0  0  0
   12.4348   -3.9266   47.8990 C   0  0  0  0  0  0  0  0  0  0  0  0
   13.6088   -3.3770   47.3003 C   0  0  0  0  0  0  0  0  0  0  0  0
   11.3319   -4.2954   45.7907 C   0  0  0  0  0  0  0  0  0  0  0  0
   14.7562   -2.9496   48.0619 O   0  0  0  0  0  0  0  0  0  0  0  0
   14.8313   -2.0011   48.8208 C   0  0  0  0  0  0  0  0  0  0  0  0
   10.2326   -4.7840   45.0405 C   0  0  0  0  0  0  0  0  0  0  0  0
   13.7688   -3.2006   45.8692 C   0  0  0  0  0  0  0  0  0  0  0  0
   12.5858   -3.6798   45.0369 C   0  0  0  0  0  0  0  0  0  0  0  0
  1  2  2  0
  2  3  1  0
  1  4  1  0
  4  5  1  0
  5  6  2  0
  2  7  1  0
  6  7  1  0
  6  8  1  0
  8  9  1  0
  8 10  1  0
  5 11  1  0
 10 11  2  0
  9 12  1  0
 11 13  1  0
 12 14  1  0
 13 15  2  0
 10 16  1  0
 16 17  1  0
 15 18  1  0
 16 18  2  0
 18 19  1  0
 15 20  1  0
 19 21  1  0
 19 22  2  0
 22 23  1  0
 20 24  2  0
 22 24  1  0
 23 25  2  0
 23 26  1  0
 26 27  1  0
 27 28  2  0
 28 29  1  0
 27 30  1  0
 29 31  1  0
 31 32  1  0
 30 33  1  0
 29 34  2  0
 30 35  2  0
 34 35  1  0
M  END
$$$$
O14757_Pocket2Mol_idx-in-all-generaetd-83
     RDKit          3D

 44 51  0  0  0  0  0  0  0  0999 V2000
    5.3420    0.2589   42.8836 O   0  0  0  0  0  0  0  0  0  0  0  0
    5.1627   -0.7554   43.4753 C   0  0  0  0  0  0  0  0  0  0  0  0
    4.0509   -1.4657   43.4177 N   0  0  0  0  0  0  0  0  0  0  0  0
    5.9969   -1.2317   44.6840 C   0  0  0  0  0  0  0  0  0  0  0  0
    2.9618   -1.1021   42.5918 C   0  0  1  0  0  0  0  0  0  0  0  0
    7.3392   -0.8596   44.8412 C   0  0  0  0  0  0  0  0  0  0  0  0
    1.9754   -2.0820   42.2741 C   0  0  0  0  0  0  0  0  0  0  0  0
    5.5910   -2.4282   45.3439 C   0  0  0  0  0  0  0  0  0  0  0  0
    6.5874   -2.9636   46.1581 C   0  0  0  0  0  0  0  0  0  0  0  0
    4.2763   -3.0680   45.0493 N   0  0  0  0  0  0  0  0  0  0  0  0
    3.6188   -2.5886   44.2024 C   0  0  0  0  0  0  0  0  0  0  0  0
    8.1921   -1.4071   45.7505 C   0  0  0  0  0  0  0  0  0  0  0  0
    1.0154   -1.8839   41.2980 C   0  0  0  0  0  0  0  0  0  0  0  0
    2.5720   -3.3564   43.9063 C   0  0  0  0  0  0  0  0  0  0  0  0
    0.2502   -2.8976   41.0751 C   0  0  0  0  0  0  0  0  0  0  0  0
    6.1761   -4.1775   47.0209 C   0  0  0  0  0  0  0  0  0  0  0  0
    1.7266   -3.1047   43.0115 C   0  0  2  0  0  0  0  0  0  0  0  0
    2.3696   -4.5367   44.7536 N   0  0  0  0  0  0  0  0  0  0  0  0
    1.2264   -5.2346   44.4693 C   0  0  0  0  0  0  0  0  0  0  0  0
    0.7187   -3.8955   42.5465 C   0  0  0  0  0  0  0  0  0  0  0  0
    9.4576   -0.8949   46.0327 N   0  0  0  0  0  0  0  0  0  0  0  0
    0.8625   -6.3901   45.2462 C   0  0  0  0  0  0  0  0  0  0  0  0
    7.6467   -2.5139   46.4892 C   0  0  0  0  0  0  0  0  0  0  0  0
   10.4908   -1.5336   45.8242 C   0  0  0  0  0  0  0  0  0  0  0  0
    0.3057   -4.9299   43.2909 C   0  0  0  0  0  0  0  0  0  0  0  0
   11.5916   -1.4291   46.7436 C   0  0  0  0  0  0  0  0  0  0  0  0
   10.5566   -2.3672   44.8649 O   0  0  0  0  0  0  0  0  0  0  0  0
    2.4730    0.2084   42.8389 O   0  0  0  0  0  0  0  0  0  0  0  0
   11.6027   -2.2081   47.7725 N   0  0  0  0  0  0  0  0  0  0  0  0
   12.6189   -0.5862   46.5415 C   0  0  0  0  0  0  0  0  0  0  0  0
   13.6413   -0.4484   47.4129 C   0  0  0  0  0  0  0  0  0  0  0  0
   10.4764   -3.1097   48.1134 C   0  0  0  0  0  0  0  0  0  0  0  0
    9.5762   -2.4717   49.0753 C   0  0  0  0  0  0  0  0  0  0  0  0
    9.7761   -1.2394   49.5167 C   0  0  0  0  0  0  0  0  0  0  0  0
    8.6397   -3.3252   49.7339 C   0  0  0  0  0  0  0  0  0  0  0  0
    8.9861   -0.7034   50.5819 C   0  0  0  0  0  0  0  0  0  0  0  0
   12.7628   -2.0677   48.3467 C   0  0  0  0  0  0  0  0  0  0  0  0
    8.3925   -4.6975   49.1448 C   0  0  0  0  0  0  0  0  0  0  0  0
   13.7449   -1.3168   48.3092 C   0  0  0  0  0  0  0  0  0  0  0  0
    7.9223   -2.7559   50.6680 C   0  0  0  0  0  0  0  0  0  0  0  0
   13.0942   -3.3080   49.2136 O   0  0  0  0  0  0  0  0  0  0  0  0
    6.9585   -5.0275   49.0611 N   0  0  0  0  0  0  0  0  0  0  0  0
    8.1933   -1.4393   51.1516 C   0  0  0  0  0  0  0  0  0  0  0  0
    6.2997   -4.0083   48.4170 C   0  0  0  0  0  0  0  0  0  0  0  0
  1  2  2  0
  2  3  1  0
  2  4  1  0
  3  5  1  0
  4  6  2  0
  5  7  1  0
  4  8  1  0
  8  9  2  0
  8 10  1  0
  3 11  1  0
 10 11  2  0
  6 12  1  0
  7 13  2  0
 11 14  1  0
 13 15  1  0
  9 16  1  0
 17  7  1  6
 14 17  1  0
 14 18  2  0
 18 19  1  0
 15 20  2  0
 17 20  1  0
 12 21  1  0
 19 22  1  0
  9 23  1  0
 12 23  2  0
 21 24  1  0
 19 25  2  0
 20 25  1  0
 24 26  1  0
 24 27  2  0
  5 28  1  1
 26 29  1  0
 26 30  2  0
 30 31  1  0
 29 32  1  0
 32 33  1  0
 33 34  1  0
 33 35  2  0
 34 36  2  0
 29 37  1  0
 35 38  1  0
 31 39  2  0
 37 39  1  0
 35 40  1  0
 37 41  2  0
 38 42  1  0
 36 43  1  0
 40 43  2  0
 16 44  1  0
 42 44  1  0
M  END
$$$$
O14757_Pocket2Mol_idx-in-all-generaetd-84
     RDKit          3D

 32 38  0  0  0  0  0  0  0  0999 V2000
    4.8173    0.2791   42.6993 N   0  0  0  0  0  0  0  0  0  0  0  0
    5.3297   -0.7477   43.3688 C   0  0  0  0  0  0  0  0  0  0  0  0
    3.4732   -0.2235   42.4530 C   0  0  0  0  0  0  0  0  0  0  0  0
    4.4984   -1.7876   43.6214 C   0  0  0  0  0  0  0  0  0  0  0  0
    3.3438   -1.5190   42.9379 C   0  0  0  0  0  0  0  0  0  0  0  0
    2.1381   -2.3401   42.8254 C   0  0  0  0  0  0  0  0  0  0  0  0
    2.3894    0.3572   41.9843 N   0  0  0  0  0  0  0  0  0  0  0  0
    4.9180   -3.0430   44.3829 C   0  0  0  0  0  0  0  0  0  0  0  0
    5.9444   -2.9314   45.3934 C   0  0  0  0  0  0  0  0  0  0  0  0
    4.2808   -4.1329   44.3252 C   0  0  0  0  0  0  0  0  0  0  0  0
    3.1588   -4.4221   43.4852 O   0  0  0  0  0  0  0  0  0  0  0  0
    4.5704   -5.2518   45.1995 C   0  0  0  0  0  0  0  0  0  0  0  0
    1.9853   -3.6792   43.3495 C   0  0  0  0  0  0  0  0  0  0  0  0
    0.9181   -4.3294   43.4638 C   0  0  0  0  0  0  0  0  0  0  0  0
    6.7403   -1.6226   45.5272 C   0  0  0  0  0  0  0  0  0  0  0  0
    0.9752   -1.7845   42.3366 C   0  0  0  0  0  0  0  0  0  0  0  0
    6.2516   -3.7287   46.2722 C   0  0  0  0  0  0  0  0  0  0  0  0
    7.2567   -3.6098   47.2134 C   0  0  0  0  0  0  0  0  0  0  0  0
    5.3220   -4.9461   46.1208 C   0  0  0  0  0  0  0  0  0  0  0  0
    7.8604   -1.5907   46.3326 C   0  0  0  0  0  0  0  0  0  0  0  0
    0.9986   -0.4089   41.6951 C   0  0  0  0  0  0  0  0  0  0  0  0
   -0.2195   -2.3895   42.2855 C   0  0  0  0  0  0  0  0  0  0  0  0
   -0.2661   -3.6763   42.8028 C   0  0  0  0  0  0  0  0  0  0  0  0
    8.0637   -2.6796   47.2569 C   0  0  0  0  0  0  0  0  0  0  0  0
    9.1531   -2.5404   48.1681 C   0  0  0  0  0  0  0  0  0  0  0  0
   10.4001   -2.5703   47.7508 N   0  0  0  0  0  0  0  0  0  0  0  0
    9.0393   -2.9432   49.4354 O   0  0  0  0  0  0  0  0  0  0  0  0
   11.6039   -2.5309   48.5453 C   0  0  0  0  0  0  0  0  0  0  0  0
   10.6209   -1.8823   46.4116 C   0  0  0  0  0  0  0  0  0  0  0  0
   11.8864   -2.6532   45.8155 C   0  0  0  0  0  0  0  0  0  0  0  0
   12.5980   -3.4866   48.0690 C   0  0  0  0  0  0  0  0  0  0  0  0
   13.0060   -2.8558   46.7111 N   0  0  0  0  0  0  0  0  0  0  0  0
  1  2  2  0
  1  3  1  0
  2  4  1  0
  3  5  1  0
  4  5  2  0
  5  6  1  0
  3  7  2  0
  4  8  1  0
  8  9  1  0
  8 10  2  0
 10 11  1  0
 10 12  1  0
  6 13  1  0
 11 13  1  0
 13 14  2  0
  9 15  2  0
  6 16  2  0
  9 17  1  0
 17 18  2  0
 12 19  2  0
 17 19  1  0
 15 20  1  0
  7 21  1  0
 16 21  1  0
 16 22  1  0
 14 23  1  0
 22 23  2  0
 18 24  1  0
 20 24  2  0
 24 25  1  0
 25 26  1  0
 25 27  2  0
 26 28  1  0
 26 29  1  0
 29 30  1  0
 28 31  1  0
 30 32  1  0
 31 32  1  0
M  END
$$$$
O14757_Pocket2Mol_idx-in-all-generaetd-85
     RDKit          3D

 37 43  0  0  0  0  0  0  0  0999 V2000
    1.5482   -0.3111   41.9233 C   0  0  0  0  0  0  0  0  0  0  0  0
    2.7284    0.2018   42.1525 N   0  0  0  0  0  0  0  0  0  0  0  0
    3.7893   -0.3016   42.7005 C   0  0  0  0  0  0  0  0  0  0  0  0
    3.3781   -1.7350   43.0000 C   0  0  0  0  0  0  0  0  0  0  0  0
    2.0339   -1.9619   42.6217 C   0  0  0  0  0  0  0  0  0  0  0  0
    4.1166   -2.4997   43.8458 C   0  0  0  0  0  0  0  0  0  0  0  0
    1.1731   -3.0051   42.5773 C   0  0  0  0  0  0  0  0  0  0  0  0
    0.4701   -3.2344   41.4901 C   0  0  0  0  0  0  0  0  0  0  0  0
    5.3799   -1.7814   44.2691 C   0  0  0  0  0  0  0  0  0  0  0  0
    5.0159   -0.0180   43.1201 N   0  0  0  0  0  0  0  0  0  0  0  0
    5.7693   -0.6937   43.8418 C   0  0  0  0  0  0  0  0  0  0  0  0
    0.8078   -3.6166   43.6782 C   0  0  0  0  0  0  0  0  0  0  0  0
    0.0663   -4.7011   43.7415 N   0  0  0  0  0  0  0  0  0  0  0  0
    6.2223   -2.6843   45.1565 C   0  0  0  0  0  0  0  0  0  0  0  0
    6.9599   -0.2351   44.2608 N   0  0  0  0  0  0  0  0  0  0  0  0
    5.9065   -3.9037   45.7499 N   0  0  0  0  0  0  0  0  0  0  0  0
   -0.5459   -5.1185   42.5870 C   0  0  0  0  0  0  0  0  0  0  0  0
    5.7480   -4.0340   46.9810 C   0  0  0  0  0  0  0  0  0  0  0  0
    7.4448   -1.8511   45.4198 C   0  0  0  0  0  0  0  0  0  0  0  0
    7.7572   -0.7827   45.0128 C   0  0  0  0  0  0  0  0  0  0  0  0
    8.4076   -2.7217   46.4541 C   0  0  0  0  0  0  0  0  0  0  0  0
    9.3167   -2.0988   47.1049 N   0  0  0  0  0  0  0  0  0  0  0  0
   -0.4719   -4.3893   41.5406 C   0  0  0  0  0  0  0  0  0  0  0  0
    8.3667   -4.0284   46.5743 N   0  0  0  0  0  0  0  0  0  0  0  0
    9.5309   -4.3147   47.3094 C   0  0  0  0  0  0  0  0  0  0  0  0
    5.3113   -3.3789   47.8005 O   0  0  0  0  0  0  0  0  0  0  0  0
    9.9022   -5.6301   47.7684 C   0  0  0  0  0  0  0  0  0  0  0  0
    5.4470   -5.5868   47.2096 C   0  0  0  0  0  0  0  0  0  0  0  0
   11.2254   -5.8679   48.0402 C   0  0  0  0  0  0  0  0  0  0  0  0
    8.9736   -6.6532   47.8548 C   0  0  0  0  0  0  0  0  0  0  0  0
   10.0616   -3.0670   47.6360 C   0  0  0  0  0  0  0  0  0  0  0  0
    7.5566   -6.3564   47.5477 N   0  0  0  0  0  0  0  0  0  0  0  0
    6.4157   -6.1721   48.0913 C   0  0  0  0  0  0  0  0  0  0  0  0
    9.3673   -7.8745   48.3609 C   0  0  0  0  0  0  0  0  0  0  0  0
   10.6517   -8.1269   48.6945 C   0  0  0  0  0  0  0  0  0  0  0  0
   11.1203   -9.4480   49.1515 O   0  0  0  0  0  0  0  0  0  0  0  0
   11.6376   -7.1284   48.5016 C   0  0  0  0  0  0  0  0  0  0  0  0
  1  2  1  0
  2  3  2  0
  3  4  1  0
  1  5  2  0
  4  5  1  0
  4  6  2  0
  5  7  1  0
  7  8  2  0
  6  9  1  0
  3 10  1  0
  9 11  2  0
 10 11  1  0
  7 12  1  0
 12 13  2  0
  9 14  1  0
 11 15  1  0
 14 16  1  0
 13 17  1  0
 16 18  1  0
 14 19  2  0
 15 20  2  0
 19 20  1  0
 19 21  1  0
 21 22  2  0
  8 23  1  0
 17 23  2  0
 21 24  1  0
 24 25  1  0
 18 26  2  0
 25 27  1  0
 18 28  1  0
 27 29  2  0
 27 30  1  0
 22 31  1  0
 25 31  2  0
 30 32  1  0
 28 33  1  0
 32 33  1  0
 30 34  2  0
 34 35  1  0
 35 36  1  0
 29 37  1  0
 35 37  2  0
M  END
$$$$
O14757_Pocket2Mol_idx-in-all-generaetd-86
     RDKit          3D

 34 39  0  0  0  0  0  0  0  0999 V2000
    1.5482   -0.3111   41.9233 C   0  0  0  0  0  0  0  0  0  0  0  0
    2.7284    0.2018   42.1525 N   0  0  0  0  0  0  0  0  0  0  0  0
    3.7893   -0.3016   42.7005 C   0  0  0  0  0  0  0  0  0  0  0  0
    3.3781   -1.7350   43.0000 C   0  0  0  0  0  0  0  0  0  0  0  0
    2.0339   -1.9619   42.6217 C   0  0  0  0  0  0  0  0  0  0  0  0
    4.1166   -2.4997   43.8458 C   0  0  0  0  0  0  0  0  0  0  0  0
    1.1731   -3.0051   42.5773 C   0  0  0  0  0  0  0  0  0  0  0  0
    0.4701   -3.2344   41.4901 C   0  0  0  0  0  0  0  0  0  0  0  0
    5.3799   -1.7814   44.2691 C   0  0  0  0  0  0  0  0  0  0  0  0
    5.0159   -0.0180   43.1201 N   0  0  0  0  0  0  0  0  0  0  0  0
    5.7693   -0.6937   43.8418 C   0  0  0  0  0  0  0  0  0  0  0  0
    0.8078   -3.6166   43.6782 C   0  0  0  0  0  0  0  0  0  0  0  0
    0.0663   -4.7011   43.7415 N   0  0  0  0  0  0  0  0  0  0  0  0
    6.2223   -2.6843   45.1565 C   0  0  0  0  0  0  0  0  0  0  0  0
    1.4459   -3.3095   45.0236 O   0  0  0  0  0  0  0  0  0  0  0  0
   -0.5278   -5.1074   42.5506 C   0  0  0  0  0  0  0  0  0  0  0  0
   -1.3099   -6.2193   42.5332 N   0  0  0  0  0  0  0  0  0  0  0  0
   -0.3906   -4.3573   41.3904 C   0  0  0  0  0  0  0  0  0  0  0  0
    7.0535   -0.4845   44.4478 N   0  0  0  0  0  0  0  0  0  0  0  0
    0.6210   -3.8397   46.1835 C   0  0  0  0  0  0  0  0  0  0  0  0
    6.2906   -3.7888   45.8815 C   0  0  0  0  0  0  0  0  0  0  0  0
    7.3868   -4.0307   46.6450 C   0  0  0  0  0  0  0  0  0  0  0  0
    7.2911   -1.6471   45.3058 C   0  0  2  0  0  0  0  0  0  0  0  0
    8.4503   -3.1394   46.7342 C   0  0  0  0  0  0  0  0  0  0  0  0
    8.4698   -1.9481   46.2096 C   0  0  0  0  0  0  0  0  0  0  0  0
    9.5355   -3.4574   47.6466 O   0  0  0  0  0  0  0  0  0  0  0  0
   10.7239   -3.2394   47.1960 C   0  0  0  0  0  0  0  0  0  0  0  0
   11.3519   -4.3113   46.6932 C   0  0  0  0  0  0  0  0  0  0  0  0
   11.3844   -1.9750   47.3381 C   0  0  0  0  0  0  0  0  0  0  0  0
   12.6612   -4.2200   46.2465 C   0  0  0  0  0  0  0  0  0  0  0  0
   13.2773   -5.2873   45.6805 O   0  0  0  0  0  0  0  0  0  0  0  0
   12.6335   -1.8691   46.9445 C   0  0  0  0  0  0  0  0  0  0  0  0
   13.3061   -2.9663   46.3467 C   0  0  0  0  0  0  0  0  0  0  0  0
   12.5385   -6.4488   45.6100 C   0  0  0  0  0  0  0  0  0  0  0  0
  1  2  1  0
  2  3  2  0
  3  4  1  0
  1  5  2  0
  4  5  1  0
  4  6  2  0
  5  7  1  0
  7  8  2  0
  6  9  1  0
  3 10  1  0
  9 11  1  0
 10 11  1  0
  7 12  1  0
 12 13  2  0
  9 14  2  0
 12 15  1  0
 13 16  1  0
 16 17  1  0
  8 18  1  0
 16 18  2  0
 11 19  2  0
 15 20  1  0
 14 21  1  0
 21 22  2  0
 14 23  1  0
 19 23  1  0
 22 24  1  0
 23 25  1  6
 24 25  2  0
 24 26  1  0
 26 27  1  0
 27 28  2  0
 27 29  1  0
 28 30  1  0
 30 31  1  0
 29 32  2  0
 30 33  2  0
 32 33  1  0
 31 34  1  0
M  END
$$$$
O14757_Pocket2Mol_idx-in-all-generaetd-87
     RDKit          3D

 25 28  0  0  0  0  0  0  0  0999 V2000
    1.5482   -0.3111   41.9233 C   0  0  0  0  0  0  0  0  0  0  0  0
    2.1579   -1.4414   42.1844 C   0  0  0  0  0  0  0  0  0  0  0  0
    1.7235   -2.7265   42.1948 N   0  0  0  0  0  0  0  0  0  0  0  0
    2.4810    0.7142   42.0806 N   0  0  0  0  0  0  0  0  0  0  0  0
    3.6321    0.3151   42.5470 N   0  0  0  0  0  0  0  0  0  0  0  0
    3.5004   -1.0568   42.6736 N   0  0  0  0  0  0  0  0  0  0  0  0
    4.4647   -1.8504   43.2944 C   0  0  0  0  0  0  0  0  0  0  0  0
    4.1483   -3.0323   43.9097 C   0  0  0  0  0  0  0  0  0  0  0  0
    0.3624   -2.9079   41.7946 C   0  0  0  0  0  0  0  0  0  0  0  0
    5.0853   -3.7063   44.6606 C   0  0  0  0  0  0  0  0  0  0  0  0
   -0.1608   -4.1416   41.6561 N   0  0  0  0  0  0  0  0  0  0  0  0
    6.2745   -3.0375   45.0306 C   0  0  0  0  0  0  0  0  0  0  0  0
    5.6184   -1.1248   43.7034 C   0  0  0  0  0  0  0  0  0  0  0  0
   -0.4334   -1.6636   41.3911 N   0  0  0  0  0  0  0  0  0  0  0  0
    0.1992   -0.5057   41.6108 C   0  0  0  0  0  0  0  0  0  0  0  0
    7.2812   -3.6349   45.9093 N   0  0  0  0  0  0  0  0  0  0  0  0
    6.5411   -1.7779   44.5314 C   0  0  0  0  0  0  0  0  0  0  0  0
    8.3752   -3.1512   46.2691 C   0  0  0  0  0  0  0  0  0  0  0  0
    8.5612   -1.8045   46.5703 C   0  0  0  0  0  0  0  0  0  0  0  0
    9.3475   -4.0088   46.6589 C   0  0  0  0  0  0  0  0  0  0  0  0
    9.7304   -1.3015   47.1013 C   0  0  0  0  0  0  0  0  0  0  0  0
   10.7734   -2.4934   47.2485 C   0  0  0  0  0  0  0  0  0  0  0  0
   12.0610   -1.8709   47.7344 O   0  0  0  0  0  0  0  0  0  0  0  0
   10.6113   -3.5786   47.1458 C   0  0  0  0  0  0  0  0  0  0  0  0
   12.8702   -1.2773   46.8108 C   0  0  0  0  0  0  0  0  0  0  0  0
  1  2  2  0
  2  3  1  0
  1  4  1  0
  4  5  2  0
  2  6  1  0
  5  6  1  0
  6  7  1  0
  7  8  2  0
  3  9  2  0
  8 10  1  0
  9 11  1  0
 10 12  2  0
  7 13  1  0
  9 14  1  0
  1 15  1  0
 14 15  1  0
 12 16  1  0
 12 17  1  0
 13 17  2  0
 16 18  1  0
 18 19  2  0
 18 20  1  0
 19 21  1  0
 21 22  2  0
 22 23  1  0
 20 24  2  0
 22 24  1  0
 23 25  1  0
M  END
$$$$
O14757_Pocket2Mol_idx-in-all-generaetd-88
     RDKit          3D

 31 34  0  0  0  0  0  0  0  0999 V2000
    4.5142    0.3543   42.7132 N   0  0  0  0  0  0  0  0  0  0  0  0
    3.5107   -0.4860   42.6298 C   0  0  0  0  0  0  0  0  0  0  0  0
    3.5891   -1.7637   43.2512 N   0  0  0  0  0  0  0  0  0  0  0  0
    5.5470   -0.0112   43.3539 C   0  0  0  0  0  0  0  0  0  0  0  0
    2.1469   -0.1899   41.9512 C   0  0  0  0  0  0  0  0  0  0  0  0
    4.6725   -2.0734   43.8606 C   0  0  0  0  0  0  0  0  0  0  0  0
    5.7749   -1.1829   43.9325 C   0  0  0  0  0  0  0  0  0  0  0  0
    4.7150   -3.3068   44.6440 C   0  0  0  0  0  0  0  0  0  0  0  0
    6.9086   -1.5797   44.6919 C   0  0  0  0  0  0  0  0  0  0  0  0
    3.5691   -4.2517   44.6407 C   0  0  0  0  0  0  0  0  0  0  0  0
    2.3573   -4.0060   44.5430 C   0  0  0  0  0  0  0  0  0  0  0  0
    6.9170   -2.8018   45.4663 C   0  0  0  0  0  0  0  0  0  0  0  0
    5.8006   -3.6152   45.4297 C   0  0  0  0  0  0  0  0  0  0  0  0
    8.0903   -3.1108   46.2193 C   0  0  0  0  0  0  0  0  0  0  0  0
    4.0064   -5.4798   44.1304 O   0  0  0  0  0  0  0  0  0  0  0  0
    1.3499   -4.4927   43.7488 C   0  0  0  0  0  0  0  0  0  0  0  0
    8.9407   -2.1153   46.7855 N   0  0  0  0  0  0  0  0  0  0  0  0
    9.9131   -2.4307   47.6296 C   0  0  0  0  0  0  0  0  0  0  0  0
    9.9401   -2.1931   48.7722 O   0  0  0  0  0  0  0  0  0  0  0  0
    1.6925   -3.8787   45.7737 C   0  0  0  0  0  0  0  0  0  0  0  0
    0.0956   -4.4506   43.8726 C   0  0  0  0  0  0  0  0  0  0  0  0
   -0.4743   -4.1254   44.9651 C   0  0  0  0  0  0  0  0  0  0  0  0
   11.1474   -2.9718   46.9683 C   0  0  0  0  0  0  0  0  0  0  0  0
    0.1760   -3.8909   45.9333 C   0  0  0  0  0  0  0  0  0  0  0  0
   11.1208   -4.2039   46.7415 C   0  0  0  0  0  0  0  0  0  0  0  0
   10.0412   -5.1887   46.8168 O   0  0  0  0  0  0  0  0  0  0  0  0
   10.4183   -6.3723   46.3087 C   0  0  0  0  0  0  0  0  0  0  0  0
   12.2799   -2.1444   46.8302 C   0  0  0  0  0  0  0  0  0  0  0  0
   12.3720   -4.7295   46.0115 C   0  0  0  0  0  0  0  0  0  0  0  0
   13.5046   -4.0060   45.9809 C   0  0  0  0  0  0  0  0  0  0  0  0
   13.4461   -2.6480   46.3124 C   0  0  0  0  0  0  0  0  0  0  0  0
  1  2  2  0
  2  3  1  0
  1  4  1  0
  2  5  1  0
  3  6  2  0
  4  7  2  0
  6  7  1  0
  6  8  1  0
  7  9  1  0
  8 10  1  0
 10 11  1  0
  9 12  2  0
  8 13  2  0
 12 13  1  0
 12 14  1  0
 10 15  2  0
 11 16  2  0
 14 17  1  0
 17 18  1  0
 18 19  2  0
 11 20  1  0
 16 21  1  0
 21 22  2  0
 18 23  1  0
 20 24  2  0
 22 24  1  0
 23 25  2  0
 25 26  1  0
 26 27  1  0
 23 28  1  0
 25 29  1  0
 29 30  2  0
 28 31  2  0
 30 31  1  0
M  END
$$$$
O14757_Pocket2Mol_idx-in-all-generaetd-89
     RDKit          3D

 34 39  0  0  0  0  0  0  0  0999 V2000
    5.3420    0.2589   42.8836 O   0  0  0  0  0  0  0  0  0  0  0  0
    5.1627   -0.7554   43.4753 C   0  0  0  0  0  0  0  0  0  0  0  0
    4.0509   -1.4657   43.4177 N   0  0  0  0  0  0  0  0  0  0  0  0
    5.9969   -1.2317   44.6840 C   0  0  0  0  0  0  0  0  0  0  0  0
    2.9618   -1.1021   42.5918 C   0  0  0  0  0  0  0  0  0  0  0  0
    7.3392   -0.8596   44.8412 C   0  0  0  0  0  0  0  0  0  0  0  0
    1.9754   -2.0820   42.2741 C   0  0  0  0  0  0  0  0  0  0  0  0
    5.5910   -2.4282   45.3439 C   0  0  0  0  0  0  0  0  0  0  0  0
    6.5874   -2.9636   46.1581 C   0  0  0  0  0  0  0  0  0  0  0  0
    4.2763   -3.0680   45.0493 N   0  0  0  0  0  0  0  0  0  0  0  0
    3.6188   -2.5886   44.2024 C   0  0  0  0  0  0  0  0  0  0  0  0
    8.1921   -1.4071   45.7505 C   0  0  0  0  0  0  0  0  0  0  0  0
    1.0154   -1.8839   41.2980 C   0  0  0  0  0  0  0  0  0  0  0  0
    2.5720   -3.3564   43.9063 C   0  0  0  0  0  0  0  0  0  0  0  0
    0.2502   -2.8976   41.0751 C   0  0  0  0  0  0  0  0  0  0  0  0
    6.1761   -4.1775   47.0209 C   0  0  0  0  0  0  0  0  0  0  0  0
    1.7266   -3.1047   43.0115 C   0  0  2  0  0  0  0  0  0  0  0  0
    2.3696   -4.5367   44.7536 N   0  0  0  0  0  0  0  0  0  0  0  0
    1.2264   -5.2346   44.4693 C   0  0  0  0  0  0  0  0  0  0  0  0
    0.7187   -3.8955   42.5465 C   0  0  0  0  0  0  0  0  0  0  0  0
    9.4576   -0.8949   46.0327 N   0  0  0  0  0  0  0  0  0  0  0  0
    0.8625   -6.3901   45.2462 C   0  0  0  0  0  0  0  0  0  0  0  0
    7.6467   -2.5139   46.4892 C   0  0  0  0  0  0  0  0  0  0  0  0
   10.4908   -1.5336   45.8242 C   0  0  0  0  0  0  0  0  0  0  0  0
    0.3057   -4.9299   43.2909 C   0  0  0  0  0  0  0  0  0  0  0  0
   11.5916   -1.4291   46.7436 C   0  0  0  0  0  0  0  0  0  0  0  0
   10.5566   -2.3672   44.8649 O   0  0  0  0  0  0  0  0  0  0  0  0
   11.6051   -2.2111   47.7709 N   0  0  0  0  0  0  0  0  0  0  0  0
   12.6215   -0.5876   46.5424 C   0  0  0  0  0  0  0  0  0  0  0  0
   12.5420   -2.0938   48.7186 C   0  0  0  0  0  0  0  0  0  0  0  0
    3.0270    0.0702   42.0603 O   0  0  0  0  0  0  0  0  0  0  0  0
   12.4632   -3.0625   49.8834 C   0  0  0  0  0  0  0  0  0  0  0  0
   13.6696   -1.3674   48.5736 C   0  0  0  0  0  0  0  0  0  0  0  0
   13.7061   -0.5489   47.4074 C   0  0  0  0  0  0  0  0  0  0  0  0
  1  2  2  0
  2  3  1  0
  2  4  1  0
  3  5  1  0
  4  6  2  0
  5  7  1  0
  4  8  1  0
  8  9  2  0
  8 10  1  0
  3 11  1  0
 10 11  2  0
  6 12  1  0
  7 13  2  0
 11 14  1  0
 13 15  1  0
  9 16  1  0
 17  7  1  6
 14 17  1  0
 14 18  2  0
 18 19  1  0
 15 20  2  0
 17 20  1  0
 12 21  1  0
 19 22  1  0
  9 23  1  0
 12 23  2  0
 21 24  1  0
 19 25  2  0
 20 25  1  0
 24 26  1  0
 24 27  2  0
 26 28  2  0
 26 29  1  0
 28 30  1  0
  5 31  2  0
 30 32  1  0
 30 33  2  0
 29 34  2  0
 33 34  1  0
M  END
$$$$
O14757_Pocket2Mol_idx-in-all-generaetd-90
     RDKit          3D

 41 48  0  0  0  0  0  0  0  0999 V2000
    4.8173    0.2791   42.6993 N   0  0  0  0  0  0  0  0  0  0  0  0
    5.3297   -0.7477   43.3688 C   0  0  0  0  0  0  0  0  0  0  0  0
    3.4732   -0.2235   42.4530 C   0  0  0  0  0  0  0  0  0  0  0  0
    4.4984   -1.7876   43.6214 C   0  0  0  0  0  0  0  0  0  0  0  0
    3.3438   -1.5190   42.9379 C   0  0  0  0  0  0  0  0  0  0  0  0
    2.1381   -2.3401   42.8254 C   0  0  0  0  0  0  0  0  0  0  0  0
    2.3894    0.3572   41.9843 N   0  0  0  0  0  0  0  0  0  0  0  0
    4.9180   -3.0430   44.3829 C   0  0  0  0  0  0  0  0  0  0  0  0
    5.9444   -2.9314   45.3934 C   0  0  0  0  0  0  0  0  0  0  0  0
    4.2808   -4.1329   44.3252 C   0  0  0  0  0  0  0  0  0  0  0  0
    3.1588   -4.4221   43.4852 O   0  0  0  0  0  0  0  0  0  0  0  0
    4.5704   -5.2518   45.1995 C   0  0  0  0  0  0  0  0  0  0  0  0
    1.9853   -3.6792   43.3495 C   0  0  0  0  0  0  0  0  0  0  0  0
    0.9181   -4.3294   43.4638 C   0  0  0  0  0  0  0  0  0  0  0  0
    6.7403   -1.6226   45.5272 C   0  0  2  0  0  0  0  0  0  0  0  0
    0.9752   -1.7845   42.3366 C   0  0  0  0  0  0  0  0  0  0  0  0
    6.2516   -3.7287   46.2722 C   0  0  0  0  0  0  0  0  0  0  0  0
   -0.2404   -2.4179   42.2529 C   0  0  0  0  0  0  0  0  0  0  0  0
   -1.3835   -1.8904   41.6559 N   0  0  0  0  0  0  0  0  0  0  0  0
    3.8706   -6.4216   45.1394 O   0  0  0  0  0  0  0  0  0  0  0  0
    0.9456   -0.2789   41.7649 C   0  0  0  0  0  0  0  0  0  0  0  0
   -0.2678   -3.6969   42.7575 C   0  0  0  0  0  0  0  0  0  0  0  0
    6.3913   -0.7000   44.3807 N   0  0  0  0  0  0  0  0  0  0  0  0
    7.9391   -1.5867   46.0069 C   0  0  0  0  0  0  0  0  0  0  0  0
    8.7787   -0.4879   45.9761 O   0  0  0  0  0  0  0  0  0  0  0  0
    5.3853   -5.1216   46.3780 C   0  0  0  0  0  0  0  0  0  0  0  0
    8.4504   -2.7517   46.6262 N   0  0  0  0  0  0  0  0  0  0  0  0
    7.4807   -3.7374   47.0380 C   0  0  0  0  0  0  0  0  0  0  0  0
    9.7261   -2.6138   47.3732 C   0  0  0  0  0  0  0  0  0  0  0  0
    9.9606   -3.7577   48.0581 C   0  0  0  0  0  0  0  0  0  0  0  0
   11.0999   -4.4648   47.7368 O   0  0  0  0  0  0  0  0  0  0  0  0
   10.9199   -5.0316   46.4526 C   0  0  0  0  0  0  0  0  0  0  0  0
   10.2272   -6.0822   46.3751 C   0  0  0  0  0  0  0  0  0  0  0  0
   11.3454   -4.3181   45.2884 C   0  0  0  0  0  0  0  0  0  0  0  0
    9.6833   -6.6841   47.5703 O   0  0  0  0  0  0  0  0  0  0  0  0
   10.2626   -7.0665   45.3234 C   0  0  0  0  0  0  0  0  0  0  0  0
    9.1410   -7.9540   47.6979 C   0  0  0  0  0  0  0  0  0  0  0  0
   11.9885   -3.0879   45.2862 O   0  0  0  0  0  0  0  0  0  0  0  0
   11.4235   -5.1293   44.1397 C   0  0  0  0  0  0  0  0  0  0  0  0
    9.7449   -8.2561   45.3387 O   0  0  0  0  0  0  0  0  0  0  0  0
   10.8872   -6.4363   44.1957 C   0  0  0  0  0  0  0  0  0  0  0  0
  1  2  2  0
  1  3  1  0
  2  4  1  0
  3  5  1  0
  4  5  2  0
  5  6  1  0
  3  7  2  0
  4  8  1  0
  8  9  1  0
  8 10  2  0
 10 11  1  0
 10 12  1  0
  6 13  1  0
 11 13  1  0
 13 14  2  0
  9 15  1  0
  6 16  2  0
  9 17  2  0
 16 18  1  0
 18 19  1  0
 12 20  1  0
  7 21  1  0
 16 21  1  0
 14 22  1  0
 18 22  2  0
  2 23  1  0
 15 23  1  6
 15 24  1  0
 24 25  2  0
 12 26  2  0
 17 26  1  0
 24 27  1  0
 17 28  1  0
 27 28  1  0
 27 29  1  0
 29 30  1  0
 30 31  1  0
 31 32  1  0
 32 33  2  0
 32 34  1  0
 33 35  1  0
 33 36  1  0
 35 37  1  0
 34 38  1  0
 34 39  2  0
 36 40  1  0
 36 41  2  0
 39 41  1  0
M  END
$$$$
O14757_Pocket2Mol_idx-in-all-generaetd-91
     RDKit          3D

 40 47  0  0  0  0  0  0  0  0999 V2000
    1.5482   -0.3111   41.9233 C   0  0  0  0  0  0  0  0  0  0  0  0
    2.7284    0.2018   42.1525 N   0  0  0  0  0  0  0  0  0  0  0  0
    3.7893   -0.3016   42.7005 C   0  0  0  0  0  0  0  0  0  0  0  0
    3.3781   -1.7350   43.0000 C   0  0  0  0  0  0  0  0  0  0  0  0
    2.0339   -1.9619   42.6217 C   0  0  0  0  0  0  0  0  0  0  0  0
    5.0090    0.1219   42.9340 N   0  0  0  0  0  0  0  0  0  0  0  0
    4.2895   -2.4979   43.6707 C   0  0  0  0  0  0  0  0  0  0  0  0
    5.8391   -0.6675   43.6343 C   0  0  0  0  0  0  0  0  0  0  0  0
    6.9849   -0.2377   44.0028 N   0  0  0  0  0  0  0  0  0  0  0  0
    4.0426   -3.8794   44.0832 C   0  0  0  0  0  0  0  0  0  0  0  0
    7.6796   -0.8734   44.9326 C   0  0  0  0  0  0  0  0  0  0  0  0
    1.1064   -2.9576   42.4211 C   0  0  0  0  0  0  0  0  0  0  0  0
    5.5298   -1.9496   44.0315 C   0  0  0  0  0  0  0  0  0  0  0  0
    3.8954   -4.1817   45.4718 C   0  0  0  0  0  0  0  0  0  0  0  0
    0.6765   -3.5480   43.4006 C   0  0  1  0  0  0  0  0  0  0  0  0
    0.5804   -3.2191   41.1635 C   0  0  0  0  0  0  0  0  0  0  0  0
    2.8083   -4.8227   45.9203 N   0  0  0  0  0  0  0  0  0  0  0  0
   -0.1574   -4.5754   42.9329 N   0  0  0  0  0  0  0  0  0  0  0  0
    6.5271   -2.5531   44.9677 C   0  0  0  0  0  0  0  0  0  0  0  0
   -0.2272   -4.3703   41.5137 C   0  0  0  0  0  0  0  0  0  0  0  0
    7.5095   -2.0029   45.3993 C   0  0  0  0  0  0  0  0  0  0  0  0
    8.2550   -2.6982   46.3988 C   0  0  0  0  0  0  0  0  0  0  0  0
    8.8975   -0.3029   45.3267 O   0  0  0  0  0  0  0  0  0  0  0  0
    4.8299   -4.4637   46.4212 C   0  0  0  0  0  0  0  0  0  0  0  0
    4.2707   -4.9248   47.6295 N   0  0  0  0  0  0  0  0  0  0  0  0
    3.2045   -5.2092   47.1521 C   0  0  0  0  0  0  0  0  0  0  0  0
    1.4482   -4.6186   45.4134 C   0  0  1  0  0  0  0  0  0  0  0  0
    1.2398   -3.5043   44.6236 O   0  0  0  0  0  0  0  0  0  0  0  0
    6.3317   -3.9297   46.0870 C   0  0  2  0  0  0  0  0  0  0  0  0
    9.5296   -2.5449   46.9776 C   0  0  0  0  0  0  0  0  0  0  0  0
    9.7921   -1.7530   47.9018 O   0  0  0  0  0  0  0  0  0  0  0  0
    7.3972   -3.8130   46.7939 C   0  0  0  0  0  0  0  0  0  0  0  0
    1.2392   -5.7793   44.5610 C   0  0  0  0  0  0  0  0  0  0  0  0
   10.4982   -3.2564   46.4837 N   0  0  0  0  0  0  0  0  0  0  0  0
   10.3664   -4.3024   45.6489 C   0  0  0  0  0  0  0  0  0  0  0  0
   11.8563   -2.7253   46.7001 C   0  0  0  0  0  0  0  0  0  0  0  0
   12.5920   -2.4093   45.4967 C   0  0  0  0  0  0  0  0  0  0  0  0
   10.3017   -5.6302   46.4426 C   0  0  0  0  0  0  0  0  0  0  0  0
   11.9752   -1.7495   44.4951 O   0  0  0  0  0  0  0  0  0  0  0  0
   13.8829   -1.7899   45.6859 O   0  0  0  0  0  0  0  0  0  0  0  0
  1  2  1  0
  2  3  2  0
  3  4  1  0
  1  5  2  0
  4  5  1  0
  3  6  1  0
  4  7  2  0
  6  8  1  0
  8  9  1  0
  7 10  1  0
  9 11  1  0
  5 12  1  0
  7 13  1  0
  8 13  2  0
 10 14  1  0
 12 15  1  0
 12 16  2  0
 14 17  1  0
 15 18  1  0
 13 19  1  0
 16 20  1  0
 18 20  2  0
 11 21  1  0
 19 21  2  0
 21 22  1  0
 11 23  2  0
 14 24  2  0
 24 25  1  0
 17 26  1  0
 25 26  2  0
 17 27  1  0
 15 28  1  6
 27 28  1  0
 19 29  1  0
 24 29  1  0
 22 30  1  0
 30 31  2  0
 22 32  2  0
 29 32  1  1
 27 33  1  6
 30 34  1  0
 34 35  1  0
 34 36  1  0
 36 37  1  0
 35 38  1  0
 37 39  1  0
 37 40  1  0
M  END
$$$$
O14757_Pocket2Mol_idx-in-all-generaetd-92
     RDKit          3D

 34 39  0  0  0  0  0  0  0  0999 V2000
    1.5482   -0.3111   41.9233 C   0  0  0  0  0  0  0  0  0  0  0  0
    2.7284    0.2018   42.1525 N   0  0  0  0  0  0  0  0  0  0  0  0
    3.7893   -0.3016   42.7005 C   0  0  0  0  0  0  0  0  0  0  0  0
    3.3781   -1.7350   43.0000 C   0  0  0  0  0  0  0  0  0  0  0  0
    2.0339   -1.9619   42.6217 C   0  0  0  0  0  0  0  0  0  0  0  0
    4.1166   -2.4997   43.8458 C   0  0  0  0  0  0  0  0  0  0  0  0
    1.1731   -3.0051   42.5773 C   0  0  0  0  0  0  0  0  0  0  0  0
    0.4701   -3.2344   41.4901 C   0  0  0  0  0  0  0  0  0  0  0  0
    5.3799   -1.7814   44.2691 C   0  0  0  0  0  0  0  0  0  0  0  0
    5.0159   -0.0180   43.1201 N   0  0  0  0  0  0  0  0  0  0  0  0
    5.7693   -0.6937   43.8418 C   0  0  0  0  0  0  0  0  0  0  0  0
    0.8078   -3.6166   43.6782 C   0  0  0  0  0  0  0  0  0  0  0  0
    0.0663   -4.7011   43.7415 N   0  0  0  0  0  0  0  0  0  0  0  0
    6.2223   -2.6843   45.1565 C   0  0  0  0  0  0  0  0  0  0  0  0
    6.9599   -0.2351   44.2608 N   0  0  0  0  0  0  0  0  0  0  0  0
    5.9065   -3.9037   45.7499 N   0  0  0  0  0  0  0  0  0  0  0  0
   -0.5459   -5.1185   42.5870 C   0  0  0  0  0  0  0  0  0  0  0  0
    5.7480   -4.0340   46.9810 C   0  0  0  0  0  0  0  0  0  0  0  0
    7.4448   -1.8511   45.4198 C   0  0  0  0  0  0  0  0  0  0  0  0
    7.7572   -0.7827   45.0128 C   0  0  0  0  0  0  0  0  0  0  0  0
    8.4076   -2.7217   46.4541 C   0  0  0  0  0  0  0  0  0  0  0  0
    9.3167   -2.0988   47.1049 N   0  0  0  0  0  0  0  0  0  0  0  0
   -0.4719   -4.3893   41.5406 C   0  0  0  0  0  0  0  0  0  0  0  0
    5.0887   -3.4849   47.7878 O   0  0  0  0  0  0  0  0  0  0  0  0
    6.6862   -5.0913   47.4809 C   0  0  0  0  0  0  0  0  0  0  0  0
    8.0012   -4.4642   47.9733 C   0  0  0  0  0  0  0  0  0  0  0  0
    8.2449   -4.0894   46.5985 N   0  0  0  0  0  0  0  0  0  0  0  0
   10.3625   -2.5388   47.2937 O   0  0  0  0  0  0  0  0  0  0  0  0
   11.4422   -1.9947   46.4793 C   0  0  0  0  0  0  0  0  0  0  0  0
   11.9566   -3.0194   45.6744 C   0  0  0  0  0  0  0  0  0  0  0  0
   11.9370   -0.8307   46.4475 C   0  0  0  0  0  0  0  0  0  0  0  0
   13.0353   -0.7209   45.6327 C   0  0  0  0  0  0  0  0  0  0  0  0
   13.6405   -1.5911   44.9558 C   0  0  0  0  0  0  0  0  0  0  0  0
   13.0768   -2.8629   44.9639 C   0  0  0  0  0  0  0  0  0  0  0  0
  1  2  1  0
  2  3  2  0
  3  4  1  0
  1  5  2  0
  4  5  1  0
  4  6  2  0
  5  7  1  0
  7  8  2  0
  6  9  1  0
  3 10  1  0
  9 11  2  0
 10 11  1  0
  7 12  1  0
 12 13  2  0
  9 14  1  0
 11 15  1  0
 14 16  1  0
 13 17  1  0
 16 18  1  0
 14 19  2  0
 15 20  2  0
 19 20  1  0
 19 21  1  0
 21 22  2  3
  8 23  1  0
 17 23  2  0
 18 24  2  0
 18 25  1  0
 25 26  1  0
 21 27  1  0
 26 27  1  0
 22 28  1  0
 28 29  1  0
 29 30  2  0
 29 31  1  0
 31 32  2  0
 32 33  1  0
 30 34  1  0
 33 34  2  0
M  END
$$$$
O14757_Pocket2Mol_idx-in-all-generaetd-93
     RDKit          3D

 33 38  0  0  0  0  0  0  0  0999 V2000
    1.5482   -0.3111   41.9233 C   0  0  0  0  0  0  0  0  0  0  0  0
    2.7284    0.2018   42.1525 N   0  0  0  0  0  0  0  0  0  0  0  0
    3.7893   -0.3016   42.7005 C   0  0  0  0  0  0  0  0  0  0  0  0
    3.3781   -1.7350   43.0000 C   0  0  0  0  0  0  0  0  0  0  0  0
    2.0339   -1.9619   42.6217 C   0  0  0  0  0  0  0  0  0  0  0  0
    4.1166   -2.4997   43.8458 C   0  0  0  0  0  0  0  0  0  0  0  0
    1.1731   -3.0051   42.5773 C   0  0  0  0  0  0  0  0  0  0  0  0
    0.4701   -3.2344   41.4901 C   0  0  0  0  0  0  0  0  0  0  0  0
    5.3799   -1.7814   44.2691 C   0  0  0  0  0  0  0  0  0  0  0  0
    5.0159   -0.0180   43.1201 N   0  0  0  0  0  0  0  0  0  0  0  0
    5.7693   -0.6937   43.8418 C   0  0  0  0  0  0  0  0  0  0  0  0
    0.8078   -3.6166   43.6782 C   0  0  0  0  0  0  0  0  0  0  0  0
    0.0663   -4.7011   43.7415 N   0  0  0  0  0  0  0  0  0  0  0  0
    6.2223   -2.6843   45.1565 C   0  0  0  0  0  0  0  0  0  0  0  0
    1.4459   -3.3095   45.0236 O   0  0  0  0  0  0  0  0  0  0  0  0
   -0.5278   -5.1074   42.5506 C   0  0  0  0  0  0  0  0  0  0  0  0
   -1.3099   -6.2193   42.5332 N   0  0  0  0  0  0  0  0  0  0  0  0
   -0.3906   -4.3573   41.3904 C   0  0  0  0  0  0  0  0  0  0  0  0
    7.0535   -0.4845   44.4478 N   0  0  0  0  0  0  0  0  0  0  0  0
    0.6210   -3.8397   46.1835 C   0  0  0  0  0  0  0  0  0  0  0  0
    6.2906   -3.7888   45.8815 C   0  0  0  0  0  0  0  0  0  0  0  0
    7.3868   -4.0307   46.6450 C   0  0  0  0  0  0  0  0  0  0  0  0
    7.2911   -1.6471   45.3058 C   0  0  2  0  0  0  0  0  0  0  0  0
    8.4503   -3.1394   46.7342 C   0  0  0  0  0  0  0  0  0  0  0  0
    8.4698   -1.9481   46.2096 C   0  0  0  0  0  0  0  0  0  0  0  0
    9.5355   -3.4574   47.6466 O   0  0  0  0  0  0  0  0  0  0  0  0
   10.7239   -3.2394   47.1960 C   0  0  0  0  0  0  0  0  0  0  0  0
   11.3519   -4.3113   46.6932 C   0  0  0  0  0  0  0  0  0  0  0  0
   11.3844   -1.9750   47.3381 C   0  0  0  0  0  0  0  0  0  0  0  0
   10.6542   -0.8591   47.9037 F   0  0  0  0  0  0  0  0  0  0  0  0
   12.6737   -4.2136   46.2250 C   0  0  0  0  0  0  0  0  0  0  0  0
   13.3249   -2.9465   46.4122 C   0  0  0  0  0  0  0  0  0  0  0  0
   12.5838   -1.7528   46.8952 C   0  0  0  0  0  0  0  0  0  0  0  0
  1  2  1  0
  2  3  2  0
  3  4  1  0
  1  5  2  0
  4  5  1  0
  4  6  2  0
  5  7  1  0
  7  8  2  0
  6  9  1  0
  3 10  1  0
  9 11  1  0
 10 11  1  0
  7 12  1  0
 12 13  2  0
  9 14  2  0
 12 15  1  0
 13 16  1  0
 16 17  1  0
  8 18  1  0
 16 18  2  0
 11 19  2  0
 15 20  1  0
 14 21  1  0
 21 22  2  0
 14 23  1  0
 19 23  1  0
 22 24  1  0
 23 25  1  6
 24 25  2  0
 24 26  1  0
 26 27  1  0
 27 28  2  0
 27 29  1  0
 29 30  1  0
 28 31  1  0
 31 32  2  0
 29 33  2  0
 32 33  1  0
M  END
$$$$
O14757_Pocket2Mol_idx-in-all-generaetd-94
     RDKit          3D

 35 39  0  0  0  0  0  0  0  0999 V2000
    1.5482   -0.3111   41.9233 C   0  0  0  0  0  0  0  0  0  0  0  0
    2.7284    0.2018   42.1525 N   0  0  0  0  0  0  0  0  0  0  0  0
    3.7893   -0.3016   42.7005 C   0  0  0  0  0  0  0  0  0  0  0  0
    3.3781   -1.7350   43.0000 C   0  0  0  0  0  0  0  0  0  0  0  0
    2.0339   -1.9619   42.6217 C   0  0  0  0  0  0  0  0  0  0  0  0
    4.1166   -2.4997   43.8458 C   0  0  0  0  0  0  0  0  0  0  0  0
    1.1731   -3.0051   42.5773 C   0  0  0  0  0  0  0  0  0  0  0  0
    0.4701   -3.2344   41.4901 C   0  0  0  0  0  0  0  0  0  0  0  0
    5.3799   -1.7814   44.2691 C   0  0  0  0  0  0  0  0  0  0  0  0
    5.0159   -0.0180   43.1201 N   0  0  0  0  0  0  0  0  0  0  0  0
    5.7693   -0.6937   43.8418 C   0  0  0  0  0  0  0  0  0  0  0  0
    0.8078   -3.6166   43.6782 C   0  0  0  0  0  0  0  0  0  0  0  0
    0.0663   -4.7011   43.7415 N   0  0  0  0  0  0  0  0  0  0  0  0
    6.2223   -2.6843   45.1565 C   0  0  0  0  0  0  0  0  0  0  0  0
    1.4459   -3.3095   45.0236 O   0  0  0  0  0  0  0  0  0  0  0  0
   -0.5278   -5.1074   42.5506 C   0  0  0  0  0  0  0  0  0  0  0  0
   -1.3099   -6.2193   42.5332 N   0  0  0  0  0  0  0  0  0  0  0  0
   -0.3906   -4.3573   41.3904 C   0  0  0  0  0  0  0  0  0  0  0  0
    7.0535   -0.4845   44.4478 N   0  0  0  0  0  0  0  0  0  0  0  0
    0.6210   -3.8397   46.1835 C   0  0  0  0  0  0  0  0  0  0  0  0
    6.2906   -3.7888   45.8815 C   0  0  0  0  0  0  0  0  0  0  0  0
    7.3965   -1.5466   45.3147 C   0  0  0  0  0  0  0  0  0  0  0  0
    5.1449   -4.4973   46.0473 O   0  0  0  0  0  0  0  0  0  0  0  0
    7.4148   -4.1081   46.6372 C   0  0  0  0  0  0  0  0  0  0  0  0
    8.5011   -3.1747   46.6693 C   0  0  0  0  0  0  0  0  0  0  0  0
    8.4580   -1.9168   46.0438 C   0  0  0  0  0  0  0  0  0  0  0  0
    9.8193   -3.4927   47.5654 C   0  0  0  0  0  0  0  0  0  0  0  0
    4.3482   -4.5667   47.1383 C   0  0  0  0  0  0  0  0  0  0  0  0
   10.8925   -3.4519   46.9633 C   0  0  0  0  0  0  0  0  0  0  0  0
   11.7691   -2.4393   47.2298 N   0  0  0  0  0  0  0  0  0  0  0  0
   11.2139   -4.2187   45.9637 O   0  0  0  0  0  0  0  0  0  0  0  0
   11.4211   -1.3352   48.1062 C   0  0  0  0  0  0  0  0  0  0  0  0
   12.9700   -2.0259   46.3630 C   0  0  0  0  0  0  0  0  0  0  0  0
   12.7678   -1.2814   45.2520 C   0  0  0  0  0  0  0  0  0  0  0  0
   13.8385   -1.1332   44.3821 C   0  0  0  0  0  0  0  0  0  0  0  0
  1  2  1  0
  2  3  2  0
  3  4  1  0
  1  5  2  0
  4  5  1  0
  4  6  2  0
  5  7  1  0
  7  8  2  0
  6  9  1  0
  3 10  1  0
  9 11  1  0
 10 11  1  0
  7 12  1  0
 12 13  2  0
  9 14  2  0
 12 15  1  0
 13 16  1  0
 16 17  1  0
  8 18  1  0
 16 18  2  0
 11 19  2  0
 15 20  1  0
 14 21  1  0
 14 22  1  0
 19 22  1  0
 21 23  1  0
 21 24  2  0
 24 25  1  0
 22 26  2  0
 25 26  2  0
 25 27  1  0
 23 28  1  0
 27 29  1  0
 29 30  1  0
 29 31  2  0
 30 32  1  0
 30 33  1  0
 33 34  1  0
 34 35  1  0
M  END
$$$$
O14757_Pocket2Mol_idx-in-all-generaetd-95
     RDKit          3D

 23 25  0  0  0  0  0  0  0  0999 V2000
    5.3420    0.2589   42.8836 O   0  0  0  0  0  0  0  0  0  0  0  0
    5.1627   -0.7554   43.4753 C   0  0  0  0  0  0  0  0  0  0  0  0
    4.0509   -1.4657   43.4177 N   0  0  0  0  0  0  0  0  0  0  0  0
    5.9969   -1.2317   44.6840 C   0  0  0  0  0  0  0  0  0  0  0  0
    2.9618   -1.1021   42.5918 C   0  0  0  0  0  0  0  0  0  0  0  0
    2.0342   -2.0118   42.3240 C   0  0  0  0  0  0  0  0  0  0  0  0
    5.7960   -2.3731   45.4134 C   0  0  0  0  0  0  0  0  0  0  0  0
    6.7643   -2.8673   46.3300 C   0  0  0  0  0  0  0  0  0  0  0  0
    7.8839   -1.8161   46.2935 C   0  0  0  0  0  0  0  0  0  0  0  0
    7.4792   -0.7120   45.0123 S   0  0  0  0  0  0  0  0  0  0  0  0
    2.7700    0.1737   42.3209 N   0  0  0  0  0  0  0  0  0  0  0  0
    9.0153   -1.9289   47.1051 C   0  0  0  0  0  0  0  0  0  0  0  0
    0.9354   -1.7573   41.5151 C   0  0  0  0  0  0  0  0  0  0  0  0
    0.6272   -0.4586   41.2502 C   0  0  0  0  0  0  0  0  0  0  0  0
   -0.0223   -2.9188   41.0859 C   0  0  0  0  0  0  0  0  0  0  0  0
    1.5843    0.4258   41.7547 C   0  0  0  0  0  0  0  0  0  0  0  0
   10.0729   -1.8829   46.5161 N   0  0  0  0  0  0  0  0  0  0  0  0
    8.9399   -2.2901   48.4208 N   0  0  0  0  0  0  0  0  0  0  0  0
   11.0224   -2.0696   47.5152 C   0  0  0  0  0  0  0  0  0  0  0  0
   10.3498   -2.2489   48.6854 C   0  0  0  0  0  0  0  0  0  0  0  0
   12.4596   -2.0092   47.2254 C   0  0  0  0  0  0  0  0  0  0  0  0
   12.8162   -2.1507   45.9768 O   0  0  0  0  0  0  0  0  0  0  0  0
   14.1070   -2.1035   45.6280 C   0  0  0  0  0  0  0  0  0  0  0  0
  1  2  2  0
  2  3  1  0
  2  4  1  0
  3  5  1  0
  5  6  2  0
  4  7  2  0
  7  8  1  0
  8  9  2  0
  4 10  1  0
  9 10  1  0
  5 11  1  0
  9 12  1  0
  6 13  1  0
 13 14  2  0
 13 15  1  0
 11 16  2  0
 14 16  1  0
 12 17  2  0
 12 18  1  0
 17 19  1  0
 18 20  1  0
 19 20  2  0
 19 21  1  0
 21 22  1  0
 22 23  1  0
M  END
$$$$
O14757_Pocket2Mol_idx-in-all-generaetd-96
     RDKit          3D

 24 26  0  0  0  0  0  0  0  0999 V2000
    5.5575   -0.4055   43.2321 N   0  0  0  0  0  0  0  0  0  0  0  0
    4.3352   -0.4199   42.8749 C   0  0  0  0  0  0  0  0  0  0  0  0
    5.9990   -1.3122   44.1764 C   0  0  0  0  0  0  0  0  0  0  0  0
    3.4120   -1.4389   43.1188 C   0  0  0  0  0  0  0  0  0  0  0  0
    3.8361   -2.4046   43.9422 C   0  0  0  0  0  0  0  0  0  0  0  0
    5.1679   -2.3747   44.5447 C   0  0  0  0  0  0  0  0  0  0  0  0
    3.0502   -3.5480   44.2767 N   0  0  0  0  0  0  0  0  0  0  0  0
    2.0554   -1.5626   42.6416 C   0  0  0  0  0  0  0  0  0  0  0  0
    5.7066   -3.3299   45.4765 C   0  0  0  0  0  0  0  0  0  0  0  0
    3.7427    0.5760   42.0003 N   0  0  0  0  0  0  0  0  0  0  0  0
    4.9790   -3.9414   46.1775 O   0  0  0  0  0  0  0  0  0  0  0  0
    7.0173   -3.0376   45.8484 N   0  0  0  0  0  0  0  0  0  0  0  0
    1.3468   -2.6561   42.5594 C   0  0  0  0  0  0  0  0  0  0  0  0
    7.6775   -3.9284   46.8327 C   0  0  2  0  0  0  0  0  0  0  0  0
    8.0726   -3.1897   47.9620 C   0  0  0  0  0  0  0  0  0  0  0  0
    1.8255   -3.6264   43.5671 C   0  0  0  0  0  0  0  0  0  0  0  0
   -0.0714   -2.7999   42.0023 C   0  0  0  0  0  0  0  0  0  0  0  0
   -0.1875   -3.8701   41.2777 O   0  0  0  0  0  0  0  0  0  0  0  0
    9.0272   -4.3756   46.2100 C   0  0  0  0  0  0  0  0  0  0  0  0
    8.9276   -2.2000   47.8327 O   0  0  0  0  0  0  0  0  0  0  0  0
   10.0672   -3.4783   46.4402 C   0  0  0  0  0  0  0  0  0  0  0  0
   10.1583   -2.4777   47.3653 C   0  0  0  0  0  0  0  0  0  0  0  0
   -0.8652   -1.8908   42.1005 O   0  0  0  0  0  0  0  0  0  0  0  0
   11.3613   -3.9314   45.9774 O   0  0  0  0  0  0  0  0  0  0  0  0
  1  2  2  0
  1  3  1  0
  2  4  1  0
  4  5  2  0
  3  6  2  0
  5  6  1  0
  5  7  1  0
  4  8  1  0
  6  9  1  0
  2 10  1  0
  9 11  2  0
  9 12  1  0
  8 13  2  0
 14 12  1  6
 14 15  1  0
  7 16  2  0
 13 16  1  0
 13 17  1  0
 17 18  2  0
 14 19  1  0
 15 20  1  0
 19 21  1  0
 20 22  1  0
 21 22  1  0
 17 23  1  0
 21 24  2  0
M  END
$$$$
O14757_Pocket2Mol_idx-in-all-generaetd-97
     RDKit          3D

 32 35  0  0  0  0  0  0  0  0999 V2000
    4.5156    0.0550   42.9895 N   0  0  0  0  0  0  0  0  0  0  0  0
    5.0618   -0.8645   43.5295 C   0  0  0  0  0  0  0  0  0  0  0  0
    4.4350   -2.0604   43.7783 C   0  0  0  0  0  0  0  0  0  0  0  0
    4.9987   -3.0994   44.5839 C   0  0  0  0  0  0  0  0  0  0  0  0
    3.2714   -1.8664   43.0632 C   0  0  0  0  0  0  0  0  0  0  0  0
    6.4064   -0.5942   44.3204 N   0  0  0  0  0  0  0  0  0  0  0  0
    4.3422   -4.3256   44.7203 C   0  0  0  0  0  0  0  0  0  0  0  0
    2.1845   -2.6668   42.8270 N   0  0  0  0  0  0  0  0  0  0  0  0
    6.7872   -1.6740   45.1626 C   0  0  0  0  0  0  0  0  0  0  0  0
    3.3364   -0.5682   42.5216 C   0  0  0  0  0  0  0  0  0  0  0  0
    6.0794   -2.8367   45.2418 C   0  0  0  0  0  0  0  0  0  0  0  0
    2.2080   -0.0040   41.8105 N   0  0  0  0  0  0  0  0  0  0  0  0
    3.5122   -4.5717   45.8882 C   0  0  0  0  0  0  0  0  0  0  0  0
    8.0343   -1.3439   45.8176 C   0  0  0  0  0  0  0  0  0  0  0  0
    8.5676   -2.2678   46.6666 C   0  0  0  0  0  0  0  0  0  0  0  0
    1.2034   -0.9715   41.7505 C   0  0  0  0  0  0  0  0  0  0  0  0
    9.7543   -2.0263   47.4257 C   0  0  1  0  0  0  0  0  0  0  0  0
   10.9435   -2.3462   46.8726 C   0  0  0  0  0  0  0  0  0  0  0  0
    2.0759   -4.8825   45.5393 N   0  0  0  0  0  0  0  0  0  0  0  0
    1.2148   -2.2334   42.1576 C   0  0  0  0  0  0  0  0  0  0  0  0
    9.6982   -0.8148   48.0427 O   0  0  0  0  0  0  0  0  0  0  0  0
   11.0881   -3.3882   46.0717 O   0  0  0  0  0  0  0  0  0  0  0  0
    7.6623   -3.4449   46.9706 C   0  0  0  0  0  0  0  0  0  0  0  0
    6.5323   -3.6370   46.2770 C   0  0  0  0  0  0  0  0  0  0  0  0
    0.0607   -3.1280   41.9172 C   0  0  0  0  0  0  0  0  0  0  0  0
   12.3311   -3.5802   45.4279 C   0  0  0  0  0  0  0  0  0  0  0  0
   11.7186   -1.3261   46.7020 C   0  0  0  0  0  0  0  0  0  0  0  0
   12.1074   -0.6139   47.6871 O   0  0  0  0  0  0  0  0  0  0  0  0
   -0.3863   -3.3709   40.6959 O   0  0  0  0  0  0  0  0  0  0  0  0
    1.7867   -5.7975   44.8928 C   0  0  0  0  0  0  0  0  0  0  0  0
   -0.6318   -3.5264   42.8880 O   0  0  0  0  0  0  0  0  0  0  0  0
    1.1784   -4.5625   46.6680 C   0  0  0  0  0  0  0  0  0  0  0  0
  1  2  2  0
  2  3  1  0
  3  4  1  0
  3  5  2  0
  2  6  1  0
  4  7  1  0
  5  8  1  0
  6  9  2  0
  1 10  1  0
  5 10  1  0
  4 11  2  0
  9 11  1  0
 10 12  2  0
  7 13  1  0
  9 14  1  0
 14 15  2  0
 12 16  1  0
 15 17  1  0
 17 18  1  0
 13 19  1  0
  8 20  2  0
 16 20  1  0
 17 21  1  6
 18 22  1  0
 15 23  1  0
 11 24  1  0
 23 24  2  0
 20 25  1  0
 22 26  1  0
 18 27  2  3
 27 28  1  0
 25 29  2  0
 19 30  1  0
 25 31  1  0
 19 32  1  0
M  END
$$$$
O14757_Pocket2Mol_idx-in-all-generaetd-98
     RDKit          3D

 46 55  0  0  0  0  0  0  0  0999 V2000
    1.5482   -0.3111   41.9233 C   0  0  0  0  0  0  0  0  0  0  0  0
    2.7284    0.2018   42.1525 N   0  0  0  0  0  0  0  0  0  0  0  0
    3.7893   -0.3016   42.7005 C   0  0  0  0  0  0  0  0  0  0  0  0
    3.3781   -1.7350   43.0000 C   0  0  0  0  0  0  0  0  0  0  0  0
    2.0339   -1.9619   42.6217 C   0  0  0  0  0  0  0  0  0  0  0  0
    5.0090    0.1219   42.9340 N   0  0  0  0  0  0  0  0  0  0  0  0
    4.2895   -2.4979   43.6707 C   0  0  0  0  0  0  0  0  0  0  0  0
    5.8391   -0.6675   43.6343 C   0  0  0  0  0  0  0  0  0  0  0  0
    6.9849   -0.2377   44.0028 N   0  0  0  0  0  0  0  0  0  0  0  0
    4.0426   -3.8794   44.0832 C   0  0  0  0  0  0  0  0  0  0  0  0
    7.6796   -0.8734   44.9326 C   0  0  0  0  0  0  0  0  0  0  0  0
    1.1064   -2.9576   42.4211 C   0  0  0  0  0  0  0  0  0  0  0  0
    5.5298   -1.9496   44.0315 C   0  0  0  0  0  0  0  0  0  0  0  0
    3.8954   -4.1817   45.4718 C   0  0  0  0  0  0  0  0  0  0  0  0
    0.6765   -3.5480   43.4006 C   0  0  1  0  0  0  0  0  0  0  0  0
    0.5804   -3.2191   41.1635 C   0  0  0  0  0  0  0  0  0  0  0  0
    2.8083   -4.8227   45.9203 N   0  0  0  0  0  0  0  0  0  0  0  0
   -0.1574   -4.5754   42.9329 N   0  0  0  0  0  0  0  0  0  0  0  0
    6.5271   -2.5531   44.9677 C   0  0  0  0  0  0  0  0  0  0  0  0
   -0.2272   -4.3703   41.5137 C   0  0  0  0  0  0  0  0  0  0  0  0
    7.5095   -2.0029   45.3993 C   0  0  0  0  0  0  0  0  0  0  0  0
    8.2550   -2.6982   46.3988 C   0  0  0  0  0  0  0  0  0  0  0  0
    8.8975   -0.3029   45.3267 O   0  0  0  0  0  0  0  0  0  0  0  0
    4.8299   -4.4637   46.4212 C   0  0  0  0  0  0  0  0  0  0  0  0
    4.2707   -4.9248   47.6295 N   0  0  0  0  0  0  0  0  0  0  0  0
    3.2045   -5.2092   47.1521 C   0  0  0  0  0  0  0  0  0  0  0  0
    1.4482   -4.6186   45.4134 C   0  0  1  0  0  0  0  0  0  0  0  0
    1.2398   -3.5043   44.6236 O   0  0  0  0  0  0  0  0  0  0  0  0
    6.3317   -3.9297   46.0870 C   0  0  2  0  0  0  0  0  0  0  0  0
    9.5296   -2.5449   46.9776 C   0  0  0  0  0  0  0  0  0  0  0  0
    9.7921   -1.7530   47.9018 O   0  0  0  0  0  0  0  0  0  0  0  0
    7.3972   -3.8130   46.7939 C   0  0  0  0  0  0  0  0  0  0  0  0
    1.2392   -5.7793   44.5610 C   0  0  0  0  0  0  0  0  0  0  0  0
   10.4934   -3.0755   46.3117 O   0  0  0  0  0  0  0  0  0  0  0  0
   11.7815   -2.6102   46.5288 C   0  0  0  0  0  0  0  0  0  0  0  0
   12.3688   -2.2857   45.2615 C   0  0  0  0  0  0  0  0  0  0  0  0
   13.6571   -1.6435   45.3063 C   0  0  0  0  0  0  0  0  0  0  0  0
   14.2956   -1.1724   44.0010 C   0  0  0  0  0  0  0  0  0  0  0  0
   14.2846   -1.4302   46.4743 C   0  0  0  0  0  0  0  0  0  0  0  0
   15.5365   -0.7666   46.4357 C   0  0  0  0  0  0  0  0  0  0  0  0
   12.3890   -2.3591   47.6394 C   0  0  0  0  0  0  0  0  0  0  0  0
   13.6384   -1.7981   47.6489 C   0  0  0  0  0  0  0  0  0  0  0  0
   16.1495   -0.5199   47.6820 O   0  0  0  0  0  0  0  0  0  0  0  0
   16.1510   -0.4154   45.3009 C   0  0  0  0  0  0  0  0  0  0  0  0
   13.6764   -1.4695   42.7976 O   0  0  0  0  0  0  0  0  0  0  0  0
   15.5084   -0.6605   44.0680 C   0  0  0  0  0  0  0  0  0  0  0  0
  1  2  1  0
  2  3  2  0
  3  4  1  0
  1  5  2  0
  4  5  1  0
  3  6  1  0
  4  7  2  0
  6  8  1  0
  8  9  1  0
  7 10  1  0
  9 11  1  0
  5 12  1  0
  7 13  1  0
  8 13  2  0
 10 14  1  0
 12 15  1  0
 12 16  2  0
 14 17  1  0
 15 18  1  0
 13 19  1  0
 16 20  1  0
 18 20  2  0
 11 21  1  0
 19 21  2  0
 21 22  1  0
 11 23  2  0
 14 24  2  0
 24 25  1  0
 17 26  1  0
 25 26  2  0
 17 27  1  0
 15 28  1  6
 27 28  1  0
 19 29  1  0
 24 29  1  0
 22 30  1  0
 30 31  2  0
 22 32  2  0
 29 32  1  1
 27 33  1  6
 30 34  1  0
 34 35  1  0
 35 36  2  0
 36 37  1  0
 37 38  2  0
 37 39  1  0
 39 40  2  0
 35 41  1  0
 39 42  1  0
 41 42  2  0
 40 43  1  0
 40 44  1  0
 38 45  1  0
 38 46  1  0
 44 46  2  0
M  END
$$$$
O14757_Pocket2Mol_idx-in-all-generaetd-99
     RDKit          3D

 42 49  0  0  0  0  0  0  0  0999 V2000
    1.5482   -0.3111   41.9233 C   0  0  0  0  0  0  0  0  0  0  0  0
    2.7284    0.2018   42.1525 N   0  0  0  0  0  0  0  0  0  0  0  0
    3.7893   -0.3016   42.7005 C   0  0  0  0  0  0  0  0  0  0  0  0
    3.3781   -1.7350   43.0000 C   0  0  0  0  0  0  0  0  0  0  0  0
    2.0339   -1.9619   42.6217 C   0  0  0  0  0  0  0  0  0  0  0  0
    4.1166   -2.4997   43.8458 C   0  0  0  0  0  0  0  0  0  0  0  0
    1.1731   -3.0051   42.5773 C   0  0  0  0  0  0  0  0  0  0  0  0
    0.4701   -3.2344   41.4901 C   0  0  0  0  0  0  0  0  0  0  0  0
    5.3799   -1.7814   44.2691 C   0  0  0  0  0  0  0  0  0  0  0  0
    5.0159   -0.0180   43.1201 N   0  0  0  0  0  0  0  0  0  0  0  0
    5.7693   -0.6937   43.8418 C   0  0  0  0  0  0  0  0  0  0  0  0
    0.8078   -3.6166   43.6782 C   0  0  0  0  0  0  0  0  0  0  0  0
    0.0663   -4.7011   43.7415 N   0  0  0  0  0  0  0  0  0  0  0  0
    6.2223   -2.6843   45.1565 C   0  0  0  0  0  0  0  0  0  0  0  0
    6.9599   -0.2351   44.2608 N   0  0  0  0  0  0  0  0  0  0  0  0
    5.9065   -3.9037   45.7499 N   0  0  0  0  0  0  0  0  0  0  0  0
   -0.5459   -5.1185   42.5870 C   0  0  0  0  0  0  0  0  0  0  0  0
    5.7480   -4.0340   46.9810 C   0  0  0  0  0  0  0  0  0  0  0  0
    7.4448   -1.8511   45.4198 C   0  0  0  0  0  0  0  0  0  0  0  0
    7.7572   -0.7827   45.0128 C   0  0  0  0  0  0  0  0  0  0  0  0
    8.4076   -2.7217   46.4541 C   0  0  0  0  0  0  0  0  0  0  0  0
    9.3167   -2.0988   47.1049 N   0  0  0  0  0  0  0  0  0  0  0  0
   -0.4719   -4.3893   41.5406 C   0  0  0  0  0  0  0  0  0  0  0  0
    8.3667   -4.0284   46.5743 N   0  0  0  0  0  0  0  0  0  0  0  0
    9.5309   -4.3147   47.3094 C   0  0  0  0  0  0  0  0  0  0  0  0
    5.3113   -3.3789   47.8005 O   0  0  0  0  0  0  0  0  0  0  0  0
    9.9022   -5.6301   47.7684 C   0  0  0  0  0  0  0  0  0  0  0  0
    5.4470   -5.5868   47.2096 C   0  0  0  0  0  0  0  0  0  0  0  0
   11.2254   -5.8679   48.0402 C   0  0  0  0  0  0  0  0  0  0  0  0
    8.9736   -6.6532   47.8548 C   0  0  0  0  0  0  0  0  0  0  0  0
   10.0616   -3.0670   47.6360 C   0  0  0  0  0  0  0  0  0  0  0  0
    7.5566   -6.3564   47.5477 N   0  0  0  0  0  0  0  0  0  0  0  0
    6.4157   -6.1721   48.0913 C   0  0  0  0  0  0  0  0  0  0  0  0
   12.3275   -4.8510   47.9324 C   0  0  0  0  0  0  0  0  0  0  0  0
    9.3494   -7.8378   48.4266 C   0  0  0  0  0  0  0  0  0  0  0  0
   11.2226   -2.8389   48.5368 C   0  0  0  0  0  0  0  0  0  0  0  0
   12.2713   -3.7216   48.7557 N   0  0  0  0  0  0  0  0  0  0  0  0
   11.6615   -7.1012   48.4990 C   0  0  0  0  0  0  0  0  0  0  0  0
   11.2416   -1.6974   49.1109 O   0  0  0  0  0  0  0  0  0  0  0  0
    8.3700   -8.9183   48.5999 O   0  0  0  0  0  0  0  0  0  0  0  0
   13.0135   -7.4705   48.8088 C   0  0  0  0  0  0  0  0  0  0  0  0
   10.6901   -8.3000   48.7736 C   0  0  0  0  0  0  0  0  0  0  0  0
  1  2  1  0
  2  3  2  0
  3  4  1  0
  1  5  2  0
  4  5  1  0
  4  6  2  0
  5  7  1  0
  7  8  2  0
  6  9  1  0
  3 10  1  0
  9 11  2  0
 10 11  1  0
  7 12  1  0
 12 13  2  0
  9 14  1  0
 11 15  1  0
 14 16  1  0
 13 17  1  0
 16 18  1  0
 14 19  2  0
 15 20  2  0
 19 20  1  0
 19 21  1  0
 21 22  2  0
  8 23  1  0
 17 23  2  0
 21 24  1  0
 24 25  1  0
 18 26  2  0
 25 27  1  0
 18 28  1  0
 27 29  2  0
 27 30  1  0
 22 31  1  0
 25 31  2  0
 30 32  1  0
 28 33  1  0
 32 33  1  0
 29 34  1  0
 30 35  2  0
 31 36  1  0
 34 37  1  0
 36 37  1  0
 29 38  1  0
 36 39  2  0
 35 40  1  0
 38 41  1  0
 35 42  1  0
 38 42  2  0
M  END
$$$$
O14757_Pocket2Mol_idx-in-all-generaetd-100
     RDKit          3D

 29 33  0  0  0  0  0  0  0  0999 V2000
    2.2608    0.0351   42.1039 C   0  0  0  0  0  0  0  0  0  0  0  0
    2.7906   -1.0673   42.3987 N   0  0  0  0  0  0  0  0  0  0  0  0
    3.1210    0.9973   42.3040 N   0  0  0  0  0  0  0  0  0  0  0  0
    4.0827   -0.7954   42.9700 C   0  0  0  0  0  0  0  0  0  0  0  0
    4.9955   -1.7234   43.5259 N   0  0  0  0  0  0  0  0  0  0  0  0
    4.5382   -2.7016   44.3398 C   0  0  0  0  0  0  0  0  0  0  0  0
    5.3738   -2.9294   45.5228 C   0  0  2  0  0  0  0  0  0  0  0  0
    6.6133   -2.1566   45.5018 C   0  0  0  0  0  0  0  0  0  0  0  0
    4.2841    0.3926   42.8877 N   0  0  0  0  0  0  0  0  0  0  0  0
    5.4441   -4.2364   45.9837 C   0  0  0  0  0  0  0  0  0  0  0  0
    1.9678   -2.2711   42.4114 C   0  0  0  0  0  0  0  0  0  0  0  0
    7.1399   -1.4316   44.7431 O   0  0  0  0  0  0  0  0  0  0  0  0
    7.4936   -2.5586   46.5441 N   0  0  0  0  0  0  0  0  0  0  0  0
    5.8242   -4.4706   47.3868 C   0  0  0  0  0  0  0  0  0  0  0  0
    1.0261   -2.3754   41.4347 C   0  0  0  0  0  0  0  0  0  0  0  0
    0.1189   -3.5468   41.4614 C   0  0  0  0  0  0  0  0  0  0  0  0
    2.2389   -3.3785   43.2951 C   0  0  0  0  0  0  0  0  0  0  0  0
    8.8204   -2.0489   46.8075 C   0  0  0  0  0  0  0  0  0  0  0  0
    0.3484   -4.5483   42.3997 C   0  0  0  0  0  0  0  0  0  0  0  0
   -0.4651   -5.6361   42.4743 O   0  0  0  0  0  0  0  0  0  0  0  0
    3.2198   -3.1033   44.3843 N   0  0  0  0  0  0  0  0  0  0  0  0
    7.2641   -3.8381   47.4343 C   0  0  0  0  0  0  0  0  0  0  0  0
    1.3789   -4.4109   43.4827 C   0  0  0  0  0  0  0  0  0  0  0  0
    9.7712   -2.4491   45.9795 C   0  0  0  0  0  0  0  0  0  0  0  0
   10.9705   -1.7394   45.8403 C   0  0  0  0  0  0  0  0  0  0  0  0
    9.0236   -1.0067   47.6624 C   0  0  0  0  0  0  0  0  0  0  0  0
   10.3522   -0.4618   47.6745 C   0  0  0  0  0  0  0  0  0  0  0  0
   12.0791   -2.3507   44.9823 C   0  0  0  0  0  0  0  0  0  0  0  0
   11.3151   -0.9444   46.8530 C   0  0  0  0  0  0  0  0  0  0  0  0
  1  2  1  0
  1  3  2  0
  2  4  1  0
  4  5  1  0
  5  6  1  0
  7  6  1  6
  7  8  1  0
  3  9  1  0
  4  9  2  0
  7 10  1  0
  2 11  1  0
  8 12  2  0
  8 13  1  0
 10 14  1  0
 11 15  2  0
 15 16  1  0
 11 17  1  0
 13 18  1  0
 16 19  2  0
 19 20  1  0
  6 21  2  0
 17 21  1  0
 13 22  1  0
 14 22  1  0
 17 23  2  0
 19 23  1  0
 18 24  2  0
 24 25  1  0
 18 26  1  0
 26 27  2  0
 25 28  1  0
 25 29  2  0
 27 29  1  0
M  END
$$$$
O14757_Pocket2Mol_idx-in-all-generaetd-101
     RDKit          3D

 38 44  0  0  0  0  0  0  0  0999 V2000
    5.3420    0.2589   42.8836 O   0  0  0  0  0  0  0  0  0  0  0  0
    5.1627   -0.7554   43.4753 C   0  0  0  0  0  0  0  0  0  0  0  0
    4.0509   -1.4657   43.4177 N   0  0  0  0  0  0  0  0  0  0  0  0
    5.9969   -1.2317   44.6840 C   0  0  0  0  0  0  0  0  0  0  0  0
    2.9618   -1.1021   42.5918 C   0  0  0  0  0  0  0  0  0  0  0  0
    7.3392   -0.8596   44.8412 C   0  0  0  0  0  0  0  0  0  0  0  0
    1.9754   -2.0820   42.2741 C   0  0  0  0  0  0  0  0  0  0  0  0
    5.5910   -2.4282   45.3439 C   0  0  0  0  0  0  0  0  0  0  0  0
    6.5874   -2.9636   46.1581 C   0  0  0  0  0  0  0  0  0  0  0  0
    4.2763   -3.0680   45.0493 N   0  0  0  0  0  0  0  0  0  0  0  0
    3.6188   -2.5886   44.2024 C   0  0  0  0  0  0  0  0  0  0  0  0
    8.1921   -1.4071   45.7505 C   0  0  0  0  0  0  0  0  0  0  0  0
    1.0154   -1.8839   41.2980 C   0  0  0  0  0  0  0  0  0  0  0  0
    2.5720   -3.3564   43.9063 C   0  0  0  0  0  0  0  0  0  0  0  0
    0.2502   -2.8976   41.0751 C   0  0  0  0  0  0  0  0  0  0  0  0
    6.1761   -4.1775   47.0209 C   0  0  0  0  0  0  0  0  0  0  0  0
    1.7266   -3.1047   43.0115 C   0  0  2  0  0  0  0  0  0  0  0  0
    2.3696   -4.5367   44.7536 N   0  0  0  0  0  0  0  0  0  0  0  0
    1.2264   -5.2346   44.4693 C   0  0  0  0  0  0  0  0  0  0  0  0
    0.7187   -3.8955   42.5465 C   0  0  0  0  0  0  0  0  0  0  0  0
    9.4576   -0.8949   46.0327 N   0  0  0  0  0  0  0  0  0  0  0  0
    0.8625   -6.3901   45.2462 C   0  0  0  0  0  0  0  0  0  0  0  0
    7.6467   -2.5139   46.4892 C   0  0  0  0  0  0  0  0  0  0  0  0
   10.4908   -1.5336   45.8242 C   0  0  0  0  0  0  0  0  0  0  0  0
    0.3057   -4.9299   43.2909 C   0  0  0  0  0  0  0  0  0  0  0  0
   11.5916   -1.4291   46.7436 C   0  0  0  0  0  0  0  0  0  0  0  0
   10.5566   -2.3672   44.8649 O   0  0  0  0  0  0  0  0  0  0  0  0
   11.6051   -2.2111   47.7709 N   0  0  0  0  0  0  0  0  0  0  0  0
   12.6215   -0.5876   46.5424 C   0  0  0  0  0  0  0  0  0  0  0  0
   12.5420   -2.0938   48.7186 C   0  0  0  0  0  0  0  0  0  0  0  0
    3.0270    0.0702   42.0603 O   0  0  0  0  0  0  0  0  0  0  0  0
   12.6957    0.2513   45.2919 C   0  0  0  0  0  0  0  0  0  0  0  0
   13.6707   -0.5939   47.5160 C   0  0  0  0  0  0  0  0  0  0  0  0
   14.8467    0.2782   47.2613 C   0  0  0  0  0  0  0  0  0  0  0  0
   12.4911   -3.0963   49.9113 C   0  0  0  0  0  0  0  0  0  0  0  0
   14.7725    1.1004   46.1285 C   0  0  0  0  0  0  0  0  0  0  0  0
   13.6718   -1.3898   48.5759 N   0  0  0  0  0  0  0  0  0  0  0  0
   13.7536    1.0516   45.2577 C   0  0  0  0  0  0  0  0  0  0  0  0
  1  2  2  0
  2  3  1  0
  2  4  1  0
  3  5  1  0
  4  6  2  0
  5  7  1  0
  4  8  1  0
  8  9  2  0
  8 10  1  0
  3 11  1  0
 10 11  2  0
  6 12  1  0
  7 13  2  0
 11 14  1  0
 13 15  1  0
  9 16  1  0
 17  7  1  6
 14 17  1  0
 14 18  2  0
 18 19  1  0
 15 20  2  0
 17 20  1  0
 12 21  1  0
 19 22  1  0
  9 23  1  0
 12 23  2  0
 21 24  1  0
 19 25  2  0
 20 25  1  0
 24 26  1  0
 24 27  2  0
 26 28  2  0
 26 29  1  0
 28 30  1  0
  5 31  2  0
 29 32  2  0
 29 33  1  0
 33 34  2  0
 30 35  1  0
 34 36  1  0
 30 37  2  0
 33 37  1  0
 32 38  1  0
 36 38  2  0
M  END
$$$$
O14757_Pocket2Mol_idx-in-all-generaetd-102
     RDKit          3D

 42 49  0  0  0  0  0  0  0  0999 V2000
    1.5482   -0.3111   41.9233 C   0  0  0  0  0  0  0  0  0  0  0  0
    2.7284    0.2018   42.1525 N   0  0  0  0  0  0  0  0  0  0  0  0
    3.7893   -0.3016   42.7005 C   0  0  0  0  0  0  0  0  0  0  0  0
    3.3781   -1.7350   43.0000 C   0  0  0  0  0  0  0  0  0  0  0  0
    2.0339   -1.9619   42.6217 C   0  0  0  0  0  0  0  0  0  0  0  0
    4.1166   -2.4997   43.8458 C   0  0  0  0  0  0  0  0  0  0  0  0
    1.1731   -3.0051   42.5773 C   0  0  0  0  0  0  0  0  0  0  0  0
    0.4701   -3.2344   41.4901 C   0  0  0  0  0  0  0  0  0  0  0  0
    5.3799   -1.7814   44.2691 C   0  0  0  0  0  0  0  0  0  0  0  0
    5.0159   -0.0180   43.1201 N   0  0  0  0  0  0  0  0  0  0  0  0
    5.7693   -0.6937   43.8418 C   0  0  0  0  0  0  0  0  0  0  0  0
    0.8078   -3.6166   43.6782 C   0  0  0  0  0  0  0  0  0  0  0  0
    0.0663   -4.7011   43.7415 N   0  0  0  0  0  0  0  0  0  0  0  0
    6.2223   -2.6843   45.1565 C   0  0  0  0  0  0  0  0  0  0  0  0
    6.9599   -0.2351   44.2608 N   0  0  0  0  0  0  0  0  0  0  0  0
    5.9065   -3.9037   45.7499 N   0  0  0  0  0  0  0  0  0  0  0  0
   -0.5459   -5.1185   42.5870 C   0  0  0  0  0  0  0  0  0  0  0  0
    5.7480   -4.0340   46.9810 C   0  0  0  0  0  0  0  0  0  0  0  0
    7.4448   -1.8511   45.4198 C   0  0  0  0  0  0  0  0  0  0  0  0
    7.7572   -0.7827   45.0128 C   0  0  0  0  0  0  0  0  0  0  0  0
    8.4076   -2.7217   46.4541 C   0  0  0  0  0  0  0  0  0  0  0  0
    9.3167   -2.0988   47.1049 N   0  0  0  0  0  0  0  0  0  0  0  0
   -0.4719   -4.3893   41.5406 C   0  0  0  0  0  0  0  0  0  0  0  0
    8.3667   -4.0284   46.5743 N   0  0  0  0  0  0  0  0  0  0  0  0
    9.5309   -4.3147   47.3094 C   0  0  0  0  0  0  0  0  0  0  0  0
    5.3113   -3.3789   47.8005 O   0  0  0  0  0  0  0  0  0  0  0  0
    9.9022   -5.6301   47.7684 C   0  0  0  0  0  0  0  0  0  0  0  0
    5.4470   -5.5868   47.2096 C   0  0  0  0  0  0  0  0  0  0  0  0
   11.2254   -5.8679   48.0402 C   0  0  0  0  0  0  0  0  0  0  0  0
    8.9736   -6.6532   47.8548 C   0  0  0  0  0  0  0  0  0  0  0  0
   10.0616   -3.0670   47.6360 C   0  0  0  0  0  0  0  0  0  0  0  0
    7.5566   -6.3564   47.5477 N   0  0  0  0  0  0  0  0  0  0  0  0
    6.4157   -6.1721   48.0913 C   0  0  0  0  0  0  0  0  0  0  0  0
   12.3275   -4.8510   47.9324 C   0  0  2  0  0  0  0  0  0  0  0  0
    9.4585   -7.9662   48.0726 C   0  0  0  0  0  0  0  0  0  0  0  0
   11.5288   -2.7910   48.1740 C   0  0  0  0  0  0  0  0  0  0  0  0
   10.7288   -8.1991   48.4378 C   0  0  0  0  0  0  0  0  0  0  0  0
   11.2242   -9.5767   48.7434 O   0  0  0  0  0  0  0  0  0  0  0  0
   11.7737   -7.1968   48.3667 C   0  0  0  0  0  0  0  0  0  0  0  0
   13.5877   -5.4397   47.8442 O   0  0  0  0  0  0  0  0  0  0  0  0
   11.5490   -1.3265   48.3700 O   0  0  0  0  0  0  0  0  0  0  0  0
   12.3677   -3.6109   48.4436 N   0  0  0  0  0  0  0  0  0  0  0  0
  1  2  1  0
  2  3  2  0
  3  4  1  0
  1  5  2  0
  4  5  1  0
  4  6  2  0
  5  7  1  0
  7  8  2  0
  6  9  1  0
  3 10  1  0
  9 11  2  0
 10 11  1  0
  7 12  1  0
 12 13  2  0
  9 14  1  0
 11 15  1  0
 14 16  1  0
 13 17  1  0
 16 18  1  0
 14 19  2  0
 15 20  2  0
 19 20  1  0
 19 21  1  0
 21 22  2  0
  8 23  1  0
 17 23  2  0
 21 24  1  0
 24 25  1  0
 18 26  2  0
 25 27  1  0
 18 28  1  0
 27 29  2  0
 27 30  1  0
 22 31  1  0
 25 31  2  0
 30 32  1  0
 28 33  1  0
 32 33  1  0
 29 34  1  0
 30 35  2  0
 31 36  1  0
 35 37  1  0
 37 38  1  0
 29 39  1  0
 37 39  2  0
 34 40  1  1
 36 41  2  0
 34 42  1  0
 36 42  1  0
M  END
$$$$
O14757_Pocket2Mol_idx-in-all-generaetd-103
     RDKit          3D

 34 38  0  0  0  0  0  0  0  0999 V2000
    5.5575   -0.4055   43.2321 N   0  0  0  0  0  0  0  0  0  0  0  0
    4.5233    0.0727   42.5988 N   0  0  0  0  0  0  0  0  0  0  0  0
    5.1726   -1.5114   43.9314 C   0  0  0  0  0  0  0  0  0  0  0  0
    5.9080   -2.2268   44.9217 C   0  0  0  0  0  0  0  0  0  0  0  0
    5.3635   -3.3861   45.5121 C   0  0  0  0  0  0  0  0  0  0  0  0
    7.1791   -1.7734   45.4544 C   0  0  0  0  0  0  0  0  0  0  0  0
    3.4069   -0.5377   42.5980 C   0  0  0  0  0  0  0  0  0  0  0  0
    2.1839   -0.4257   41.9942 C   0  0  0  0  0  0  0  0  0  0  0  0
    3.7449   -1.7453   43.5024 C   0  0  0  0  0  0  0  0  0  0  0  0
    7.8525   -0.6503   45.0420 O   0  0  0  0  0  0  0  0  0  0  0  0
    7.8789   -2.5576   46.3941 C   0  0  0  0  0  0  0  0  0  0  0  0
    2.8045   -2.7414   43.6928 C   0  0  0  0  0  0  0  0  0  0  0  0
    9.2115   -2.0969   46.8642 C   0  0  0  0  0  0  0  0  0  0  0  0
    4.0793   -3.8977   45.1232 C   0  0  0  0  0  0  0  0  0  0  0  0
    9.4064   -1.6424   47.9232 O   0  0  0  0  0  0  0  0  0  0  0  0
    3.1160   -3.7348   44.5196 N   0  0  0  0  0  0  0  0  0  0  0  0
   10.2271   -2.0181   45.9902 O   0  0  0  0  0  0  0  0  0  0  0  0
    1.5846   -2.6820   43.0143 C   0  0  0  0  0  0  0  0  0  0  0  0
   11.4761   -2.1798   46.4472 C   0  0  0  0  0  0  0  0  0  0  0  0
    1.2997   -1.5506   42.1525 C   0  0  0  0  0  0  0  0  0  0  0  0
    0.5555   -3.6734   43.1531 C   0  0  0  0  0  0  0  0  0  0  0  0
   -0.1252   -4.0680   42.0341 O   0  0  0  0  0  0  0  0  0  0  0  0
    0.3090   -4.1637   44.1784 O   0  0  0  0  0  0  0  0  0  0  0  0
    5.8996   -4.0688   46.5513 C   0  0  0  0  0  0  0  0  0  0  0  0
    7.2191   -3.6737   47.0406 C   0  0  0  0  0  0  0  0  0  0  0  0
   12.4471   -1.3624   45.7994 C   0  0  0  0  0  0  0  0  0  0  0  0
   11.7898   -3.1534   47.3130 C   0  0  0  0  0  0  0  0  0  0  0  0
   13.7713   -1.5370   46.1538 C   0  0  0  0  0  0  0  0  0  0  0  0
   14.7796   -0.7058   45.5605 C   0  0  0  0  0  0  0  0  0  0  0  0
   13.2180   -3.3202   47.5456 C   0  0  0  0  0  0  0  0  0  0  0  0
   14.1075   -2.5669   47.0595 C   0  0  0  0  0  0  0  0  0  0  0  0
   14.8008   -0.6850   44.2252 C   0  0  0  0  0  0  0  0  0  0  0  0
   15.2847    0.4208   43.5339 C   0  0  0  0  0  0  0  0  0  0  0  0
   14.5201    0.8784   42.4537 C   0  0  0  0  0  0  0  0  0  0  0  0
  1  2  2  0
  1  3  1  0
  3  4  1  0
  4  5  2  0
  4  6  1  0
  2  7  1  0
  7  8  2  0
  3  9  2  0
  7  9  1  0
  6 10  1  0
  6 11  2  0
  9 12  1  0
 11 13  1  0
  5 14  1  0
 13 15  2  0
 12 16  1  0
 14 16  2  0
 13 17  1  0
 12 18  1  0
 17 19  1  0
  8 20  1  0
 18 20  2  0
 18 21  1  0
 21 22  1  0
 21 23  2  0
  5 24  1  0
 11 25  1  0
 24 25  2  0
 19 26  2  0
 19 27  1  0
 26 28  1  0
 28 29  1  0
 27 30  2  0
 28 31  2  0
 30 31  1  0
 29 32  1  0
 32 33  1  0
 33 34  1  0
M  END
$$$$
O14757_Pocket2Mol_idx-in-all-generaetd-104
     RDKit          3D

 44 52  0  0  0  0  0  0  0  0999 V2000
    1.5482   -0.3111   41.9233 C   0  0  0  0  0  0  0  0  0  0  0  0
    2.7284    0.2018   42.1525 N   0  0  0  0  0  0  0  0  0  0  0  0
    3.7893   -0.3016   42.7005 C   0  0  0  0  0  0  0  0  0  0  0  0
    3.3781   -1.7350   43.0000 C   0  0  0  0  0  0  0  0  0  0  0  0
    2.0339   -1.9619   42.6217 C   0  0  0  0  0  0  0  0  0  0  0  0
    5.0090    0.1219   42.9340 N   0  0  0  0  0  0  0  0  0  0  0  0
    4.2895   -2.4979   43.6707 C   0  0  0  0  0  0  0  0  0  0  0  0
    5.8391   -0.6675   43.6343 C   0  0  0  0  0  0  0  0  0  0  0  0
    6.9849   -0.2377   44.0028 N   0  0  0  0  0  0  0  0  0  0  0  0
    4.0426   -3.8794   44.0832 C   0  0  0  0  0  0  0  0  0  0  0  0
    7.6796   -0.8734   44.9326 C   0  0  0  0  0  0  0  0  0  0  0  0
    1.1064   -2.9576   42.4211 C   0  0  0  0  0  0  0  0  0  0  0  0
    5.5298   -1.9496   44.0315 C   0  0  0  0  0  0  0  0  0  0  0  0
    3.8954   -4.1817   45.4718 C   0  0  0  0  0  0  0  0  0  0  0  0
    0.6765   -3.5480   43.4006 C   0  0  1  0  0  0  0  0  0  0  0  0
    0.5804   -3.2191   41.1635 C   0  0  0  0  0  0  0  0  0  0  0  0
    2.8083   -4.8227   45.9203 N   0  0  0  0  0  0  0  0  0  0  0  0
   -0.1574   -4.5754   42.9329 N   0  0  0  0  0  0  0  0  0  0  0  0
    6.5271   -2.5531   44.9677 C   0  0  0  0  0  0  0  0  0  0  0  0
   -0.2272   -4.3703   41.5137 C   0  0  0  0  0  0  0  0  0  0  0  0
    7.5095   -2.0029   45.3993 C   0  0  0  0  0  0  0  0  0  0  0  0
    8.2550   -2.6982   46.3988 C   0  0  2  0  0  0  0  0  0  0  0  0
    8.8975   -0.3029   45.3267 O   0  0  0  0  0  0  0  0  0  0  0  0
    4.8299   -4.4637   46.4212 C   0  0  0  0  0  0  0  0  0  0  0  0
    4.2707   -4.9248   47.6295 N   0  0  0  0  0  0  0  0  0  0  0  0
    3.2045   -5.2092   47.1521 C   0  0  0  0  0  0  0  0  0  0  0  0
    1.4482   -4.6186   45.4134 C   0  0  2  0  0  0  0  0  0  0  0  0
    1.2398   -3.5043   44.6236 O   0  0  0  0  0  0  0  0  0  0  0  0
    6.3317   -3.9297   46.0870 C   0  0  2  0  0  0  0  0  0  0  0  0
    9.5296   -2.5449   46.9776 C   0  0  0  0  0  0  0  0  0  0  0  0
    9.7921   -1.7530   47.9018 O   0  0  0  0  0  0  0  0  0  0  0  0
    7.4454   -3.8344   46.8035 C   0  0  0  0  0  0  0  0  0  0  0  0
   10.5010   -3.0847   46.3190 O   0  0  0  0  0  0  0  0  0  0  0  0
    0.5569   -4.7693   46.5649 C   0  0  0  0  0  0  0  0  0  0  0  0
   11.7452   -2.8462   46.6234 C   0  0  0  0  0  0  0  0  0  0  0  0
   12.4344   -1.8951   45.7393 C   0  0  0  0  0  0  0  0  0  0  0  0
   12.4612   -3.5429   47.5581 C   0  0  0  0  0  0  0  0  0  0  0  0
   11.7737   -4.5216   48.4115 C   0  0  0  0  0  0  0  0  0  0  0  0
   11.7935   -5.7538   48.0263 C   0  0  0  0  0  0  0  0  0  0  0  0
   13.8063   -3.2053   47.6588 C   0  0  0  0  0  0  0  0  0  0  0  0
   13.7637   -1.6546   45.8843 C   0  0  0  0  0  0  0  0  0  0  0  0
   14.4667   -2.3219   46.9169 C   0  0  0  0  0  0  0  0  0  0  0  0
   11.4672   -6.0309   46.8381 O   0  0  0  0  0  0  0  0  0  0  0  0
   11.3762   -6.7431   48.8915 O   0  0  0  0  0  0  0  0  0  0  0  0
  1  2  1  0
  2  3  2  0
  3  4  1  0
  1  5  2  0
  4  5  1  0
  3  6  1  0
  4  7  2  0
  6  8  1  0
  8  9  1  0
  7 10  1  0
  9 11  1  0
  5 12  1  0
  7 13  1  0
  8 13  2  0
 10 14  1  0
 12 15  1  0
 12 16  2  0
 14 17  1  0
 15 18  1  0
 13 19  1  0
 16 20  1  0
 18 20  2  0
 11 21  1  0
 19 21  2  0
 21 22  1  0
 11 23  2  0
 14 24  2  0
 24 25  1  0
 17 26  1  0
 25 26  2  0
 17 27  1  0
 15 28  1  6
 27 28  1  0
 19 29  1  0
 24 29  1  0
 22 30  1  6
 30 31  2  0
 22 32  1  0
 29 32  1  1
 30 33  1  0
 27 34  1  1
 33 35  1  0
 35 36  2  0
 35 37  1  0
 37 38  1  0
 38 39  1  0
 37 40  2  0
 36 41  1  0
 40 42  1  0
 41 42  2  0
 39 43  1  0
 39 44  2  0
M  END
$$$$
O14757_Pocket2Mol_idx-in-all-generaetd-105
     RDKit          3D

 31 36  0  0  0  0  0  0  0  0999 V2000
    1.5482   -0.3111   41.9233 C   0  0  0  0  0  0  0  0  0  0  0  0
    2.7284    0.2018   42.1525 N   0  0  0  0  0  0  0  0  0  0  0  0
    3.7893   -0.3016   42.7005 C   0  0  0  0  0  0  0  0  0  0  0  0
    3.3781   -1.7350   43.0000 C   0  0  0  0  0  0  0  0  0  0  0  0
    2.0339   -1.9619   42.6217 C   0  0  0  0  0  0  0  0  0  0  0  0
    4.1166   -2.4997   43.8458 C   0  0  0  0  0  0  0  0  0  0  0  0
    1.1731   -3.0051   42.5773 C   0  0  0  0  0  0  0  0  0  0  0  0
    0.4701   -3.2344   41.4901 C   0  0  0  0  0  0  0  0  0  0  0  0
    5.3799   -1.7814   44.2691 C   0  0  0  0  0  0  0  0  0  0  0  0
    5.0159   -0.0180   43.1201 N   0  0  0  0  0  0  0  0  0  0  0  0
    5.7693   -0.6937   43.8418 C   0  0  0  0  0  0  0  0  0  0  0  0
    0.8078   -3.6166   43.6782 C   0  0  0  0  0  0  0  0  0  0  0  0
    0.0663   -4.7011   43.7415 N   0  0  0  0  0  0  0  0  0  0  0  0
    6.2223   -2.6843   45.1565 C   0  0  0  0  0  0  0  0  0  0  0  0
    1.4459   -3.3095   45.0236 O   0  0  0  0  0  0  0  0  0  0  0  0
   -0.5278   -5.1074   42.5506 C   0  0  0  0  0  0  0  0  0  0  0  0
   -1.3099   -6.2193   42.5332 N   0  0  0  0  0  0  0  0  0  0  0  0
   -0.3906   -4.3573   41.3904 C   0  0  0  0  0  0  0  0  0  0  0  0
    7.0535   -0.4845   44.4478 N   0  0  0  0  0  0  0  0  0  0  0  0
    0.6210   -3.8397   46.1835 C   0  0  0  0  0  0  0  0  0  0  0  0
    6.2906   -3.7888   45.8815 C   0  0  0  0  0  0  0  0  0  0  0  0
    7.3965   -1.5466   45.3147 C   0  0  2  0  0  0  0  0  0  0  0  0
    8.4891   -1.8052   46.0149 C   0  0  0  0  0  0  0  0  0  0  0  0
    7.4470   -4.0779   46.6400 C   0  0  0  0  0  0  0  0  0  0  0  0
    9.5197   -0.9904   46.2301 C   0  0  0  0  0  0  0  0  0  0  0  0
    8.5135   -3.0823   46.7300 C   0  0  0  0  0  0  0  0  0  0  0  0
    9.5614   -3.4410   47.4857 C   0  0  0  0  0  0  0  0  0  0  0  0
    9.6694   -4.6612   48.1663 O   0  0  0  0  0  0  0  0  0  0  0  0
   10.6275   -2.6495   47.6729 C   0  0  0  0  0  0  0  0  0  0  0  0
   10.6068   -5.3841   48.0686 C   0  0  0  0  0  0  0  0  0  0  0  0
   10.5822   -1.3683   46.9950 C   0  0  0  0  0  0  0  0  0  0  0  0
  1  2  1  0
  2  3  2  0
  3  4  1  0
  1  5  2  0
  4  5  1  0
  4  6  2  0
  5  7  1  0
  7  8  2  0
  6  9  1  0
  3 10  1  0
  9 11  1  0
 10 11  1  0
  7 12  1  0
 12 13  2  0
  9 14  2  0
 12 15  1  0
 13 16  1  0
 16 17  1  0
  8 18  1  0
 16 18  2  0
 11 19  2  0
 15 20  1  0
 14 21  1  0
 14 22  1  0
 22 19  1  6
 22 23  1  0
 21 24  2  0
 23 25  1  0
 23 26  2  0
 24 26  1  0
 26 27  1  0
 27 28  1  0
 27 29  2  0
 28 30  1  0
 25 31  2  0
 29 31  1  0
M  END
$$$$
O14757_Pocket2Mol_idx-in-all-generaetd-106
     RDKit          3D

 46 53  0  0  0  0  0  0  0  0999 V2000
    5.3420    0.2589   42.8836 O   0  0  0  0  0  0  0  0  0  0  0  0
    5.1627   -0.7554   43.4753 C   0  0  0  0  0  0  0  0  0  0  0  0
    4.0509   -1.4657   43.4177 N   0  0  0  0  0  0  0  0  0  0  0  0
    5.9969   -1.2317   44.6840 C   0  0  0  0  0  0  0  0  0  0  0  0
    2.9618   -1.1021   42.5918 C   0  0  1  0  0  0  0  0  0  0  0  0
    7.3392   -0.8596   44.8412 C   0  0  0  0  0  0  0  0  0  0  0  0
    1.9754   -2.0820   42.2741 C   0  0  0  0  0  0  0  0  0  0  0  0
    5.5910   -2.4282   45.3439 C   0  0  0  0  0  0  0  0  0  0  0  0
    6.5874   -2.9636   46.1581 C   0  0  0  0  0  0  0  0  0  0  0  0
    4.2763   -3.0680   45.0493 N   0  0  0  0  0  0  0  0  0  0  0  0
    3.6188   -2.5886   44.2024 C   0  0  0  0  0  0  0  0  0  0  0  0
    8.1921   -1.4071   45.7505 C   0  0  0  0  0  0  0  0  0  0  0  0
    1.0154   -1.8839   41.2980 C   0  0  0  0  0  0  0  0  0  0  0  0
    2.5720   -3.3564   43.9063 C   0  0  0  0  0  0  0  0  0  0  0  0
    0.2502   -2.8976   41.0751 C   0  0  0  0  0  0  0  0  0  0  0  0
    6.1761   -4.1775   47.0209 C   0  0  0  0  0  0  0  0  0  0  0  0
    1.7266   -3.1047   43.0115 C   0  0  2  0  0  0  0  0  0  0  0  0
    2.3696   -4.5367   44.7536 N   0  0  0  0  0  0  0  0  0  0  0  0
    1.2264   -5.2346   44.4693 C   0  0  0  0  0  0  0  0  0  0  0  0
    0.7187   -3.8955   42.5465 C   0  0  0  0  0  0  0  0  0  0  0  0
    9.4576   -0.8949   46.0327 N   0  0  0  0  0  0  0  0  0  0  0  0
    0.8625   -6.3901   45.2462 C   0  0  0  0  0  0  0  0  0  0  0  0
    7.6467   -2.5139   46.4892 C   0  0  0  0  0  0  0  0  0  0  0  0
   10.4908   -1.5336   45.8242 C   0  0  0  0  0  0  0  0  0  0  0  0
    0.3057   -4.9299   43.2909 C   0  0  0  0  0  0  0  0  0  0  0  0
   11.5916   -1.4291   46.7436 C   0  0  0  0  0  0  0  0  0  0  0  0
   10.5566   -2.3672   44.8649 O   0  0  0  0  0  0  0  0  0  0  0  0
   12.8421   -1.9355   46.2823 C   0  0  0  0  0  0  0  0  0  0  0  0
   13.4833   -2.8582   46.9841 C   0  0  0  0  0  0  0  0  0  0  0  0
   11.4002   -1.1447   48.0540 C   0  0  0  0  0  0  0  0  0  0  0  0
   10.2867   -0.4569   48.4999 O   0  0  0  0  0  0  0  0  0  0  0  0
   12.3327   -1.4798   48.9564 C   0  0  1  0  0  0  0  0  0  0  0  0
   14.7901   -3.3162   46.6439 C   0  0  0  0  0  0  0  0  0  0  0  0
   12.1651   -1.3050   50.3239 O   0  0  0  0  0  0  0  0  0  0  0  0
   15.6765   -2.5740   46.0979 C   0  0  0  0  0  0  0  0  0  0  0  0
    2.4608    0.2106   42.8512 C   0  0  0  0  0  0  0  0  0  0  0  0
   15.5213   -1.2590   45.7606 C   0  0  0  0  0  0  0  0  0  0  0  0
   14.5349   -0.8899   44.8574 C   0  0  0  0  0  0  0  0  0  0  0  0
   12.9775   -3.3460   48.2127 C   0  0  0  0  0  0  0  0  0  0  0  0
   14.7129   -0.1943   43.8652 C   0  0  0  0  0  0  0  0  0  0  0  0
   13.1163   -1.3789   45.0490 O   0  0  0  0  0  0  0  0  0  0  0  0
   16.0442    0.3600   43.7609 C   0  0  0  0  0  0  0  0  0  0  0  0
   12.9414   -2.5996   49.2994 C   0  0  0  0  0  0  0  0  0  0  0  0
   17.0430    0.1114   44.4800 C   0  0  0  0  0  0  0  0  0  0  0  0
   18.3440    0.6903   44.3638 O   0  0  0  0  0  0  0  0  0  0  0  0
   16.9266   -0.8654   45.4972 C   0  0  0  0  0  0  0  0  0  0  0  0
  1  2  2  0
  2  3  1  0
  2  4  1  0
  3  5  1  0
  4  6  2  0
  5  7  1  0
  4  8  1  0
  8  9  2  0
  8 10  1  0
  3 11  1  0
 10 11  2  0
  6 12  1  0
  7 13  2  0
 11 14  1  0
 13 15  1  0
  9 16  1  0
 17  7  1  6
 14 17  1  0
 14 18  2  0
 18 19  1  0
 15 20  2  0
 17 20  1  0
 12 21  1  0
 19 22  1  0
  9 23  1  0
 12 23  2  0
 21 24  1  0
 19 25  2  0
 20 25  1  0
 24 26  1  0
 24 27  2  0
 26 28  1  0
 28 29  2  0
 26 30  2  0
 30 31  1  0
 30 32  1  0
 29 33  1  0
 32 34  1  1
 33 35  2  0
  5 36  1  1
 35 37  1  0
 37 38  2  0
 29 39  1  0
 38 40  1  0
 28 41  1  0
 38 41  1  0
 40 42  2  0
 32 43  1  0
 39 43  1  0
 42 44  1  0
 44 45  1  0
 37 46  1  0
 44 46  2  0
M  END
$$$$
O14757_Pocket2Mol_idx-in-all-generaetd-107
     RDKit          3D

 18 19  0  0  0  0  0  0  0  0999 V2000
    5.3420    0.2589   42.8836 O   0  0  0  0  0  0  0  0  0  0  0  0
    5.1627   -0.7554   43.4753 C   0  0  0  0  0  0  0  0  0  0  0  0
    4.0509   -1.4657   43.4177 N   0  0  0  0  0  0  0  0  0  0  0  0
    5.9969   -1.2317   44.6840 C   0  0  0  0  0  0  0  0  0  0  0  0
    2.9618   -1.1021   42.5918 C   0  0  0  0  0  0  0  0  0  0  0  0
    7.3392   -0.8596   44.8412 C   0  0  0  0  0  0  0  0  0  0  0  0
    1.9754   -2.0820   42.2741 C   0  0  0  0  0  0  0  0  0  0  0  0
    8.1823   -1.3686   45.7890 C   0  0  0  0  0  0  0  0  0  0  0  0
    7.8026   -2.4199   46.5734 C   0  0  0  0  0  0  0  0  0  0  0  0
    1.7165   -3.2832   42.9224 C   0  0  0  0  0  0  0  0  0  0  0  0
    2.9102   -0.0082   42.1458 O   0  0  0  0  0  0  0  0  0  0  0  0
    1.1117   -1.8432   41.2921 C   0  0  0  0  0  0  0  0  0  0  0  0
    0.1563   -2.9667   41.2297 C   0  0  0  0  0  0  0  0  0  0  0  0
    0.5280   -3.8368   42.2703 C   0  0  0  0  0  0  0  0  0  0  0  0
    5.6300   -2.4523   45.4042 C   0  0  0  0  0  0  0  0  0  0  0  0
    8.6984   -2.9671   47.5275 O   0  0  0  0  0  0  0  0  0  0  0  0
    8.4402   -4.2404   47.8949 C   0  0  0  0  0  0  0  0  0  0  0  0
    6.5458   -2.9056   46.4176 C   0  0  0  0  0  0  0  0  0  0  0  0
  1  2  2  0
  2  3  1  0
  2  4  1  0
  3  5  1  0
  4  6  2  0
  5  7  1  0
  6  8  1  0
  8  9  2  0
  7 10  1  0
  5 11  2  0
  7 12  2  0
 12 13  1  0
 10 14  1  0
 13 14  2  0
  4 15  1  0
  9 16  1  0
 16 17  1  0
  9 18  1  0
 15 18  2  0
M  END
$$$$
O14757_Pocket2Mol_idx-in-all-generaetd-108
     RDKit          3D

 35 40  0  0  0  0  0  0  0  0999 V2000
    5.3420    0.2589   42.8836 O   0  0  0  0  0  0  0  0  0  0  0  0
    5.1627   -0.7554   43.4753 C   0  0  0  0  0  0  0  0  0  0  0  0
    4.0509   -1.4657   43.4177 N   0  0  0  0  0  0  0  0  0  0  0  0
    5.9969   -1.2317   44.6840 C   0  0  0  0  0  0  0  0  0  0  0  0
    2.9618   -1.1021   42.5918 C   0  0  1  0  0  0  0  0  0  0  0  0
    7.3392   -0.8596   44.8412 C   0  0  0  0  0  0  0  0  0  0  0  0
    1.9754   -2.0820   42.2741 C   0  0  0  0  0  0  0  0  0  0  0  0
    5.5910   -2.4282   45.3439 C   0  0  0  0  0  0  0  0  0  0  0  0
    6.5874   -2.9636   46.1581 C   0  0  0  0  0  0  0  0  0  0  0  0
    4.2763   -3.0680   45.0493 N   0  0  0  0  0  0  0  0  0  0  0  0
    3.6188   -2.5886   44.2024 C   0  0  0  0  0  0  0  0  0  0  0  0
    8.1921   -1.4071   45.7505 C   0  0  0  0  0  0  0  0  0  0  0  0
    1.0154   -1.8839   41.2980 C   0  0  0  0  0  0  0  0  0  0  0  0
    2.5720   -3.3564   43.9063 C   0  0  0  0  0  0  0  0  0  0  0  0
    0.2502   -2.8976   41.0751 C   0  0  0  0  0  0  0  0  0  0  0  0
    6.1761   -4.1775   47.0209 C   0  0  0  0  0  0  0  0  0  0  0  0
    1.7266   -3.1047   43.0115 C   0  0  2  0  0  0  0  0  0  0  0  0
    2.3696   -4.5367   44.7536 N   0  0  0  0  0  0  0  0  0  0  0  0
    1.2264   -5.2346   44.4693 C   0  0  0  0  0  0  0  0  0  0  0  0
    0.7187   -3.8955   42.5465 C   0  0  0  0  0  0  0  0  0  0  0  0
    9.4576   -0.8949   46.0327 N   0  0  0  0  0  0  0  0  0  0  0  0
    0.8625   -6.3901   45.2462 C   0  0  0  0  0  0  0  0  0  0  0  0
    7.6467   -2.5139   46.4892 C   0  0  0  0  0  0  0  0  0  0  0  0
   10.4908   -1.5336   45.8242 C   0  0  0  0  0  0  0  0  0  0  0  0
    0.3057   -4.9299   43.2909 C   0  0  0  0  0  0  0  0  0  0  0  0
   11.5916   -1.4291   46.7436 C   0  0  0  0  0  0  0  0  0  0  0  0
   10.5566   -2.3672   44.8649 O   0  0  0  0  0  0  0  0  0  0  0  0
   11.6051   -2.2111   47.7709 N   0  0  0  0  0  0  0  0  0  0  0  0
    2.4805    0.2099   42.8350 O   0  0  0  0  0  0  0  0  0  0  0  0
   12.6177   -0.5842   46.5430 C   0  0  0  0  0  0  0  0  0  0  0  0
   10.6022   -3.0999   48.2311 C   0  0  0  0  0  0  0  0  0  0  0  0
    9.8980   -2.5525   49.3676 C   0  0  0  0  0  0  0  0  0  0  0  0
   12.9535    0.3211   45.3914 C   0  0  0  0  0  0  0  0  0  0  0  0
   13.5950   -0.9029   47.5355 C   0  0  0  0  0  0  0  0  0  0  0  0
   12.8908   -1.8231   48.3827 N   0  0  0  0  0  0  0  0  0  0  0  0
  1  2  2  0
  2  3  1  0
  2  4  1  0
  3  5  1  0
  4  6  2  0
  5  7  1  0
  4  8  1  0
  8  9  2  0
  8 10  1  0
  3 11  1  0
 10 11  2  0
  6 12  1  0
  7 13  2  0
 11 14  1  0
 13 15  1  0
  9 16  1  0
 17  7  1  6
 14 17  1  0
 14 18  2  0
 18 19  1  0
 15 20  2  0
 17 20  1  0
 12 21  1  0
 19 22  1  0
  9 23  1  0
 12 23  2  0
 21 24  1  0
 19 25  2  0
 20 25  1  0
 24 26  1  0
 24 27  2  0
 26 28  1  0
  5 29  1  1
 26 30  2  0
 28 31  1  0
 31 32  1  0
 30 33  1  0
 30 34  1  0
 28 35  1  0
 34 35  2  0
M  END
$$$$
O14757_Pocket2Mol_idx-in-all-generaetd-109
     RDKit          3D

 35 40  0  0  0  0  0  0  0  0999 V2000
    1.5482   -0.3111   41.9233 C   0  0  0  0  0  0  0  0  0  0  0  0
    2.7284    0.2018   42.1525 N   0  0  0  0  0  0  0  0  0  0  0  0
    3.7893   -0.3016   42.7005 C   0  0  0  0  0  0  0  0  0  0  0  0
    3.3781   -1.7350   43.0000 C   0  0  0  0  0  0  0  0  0  0  0  0
    2.0339   -1.9619   42.6217 C   0  0  0  0  0  0  0  0  0  0  0  0
    4.1166   -2.4997   43.8458 C   0  0  0  0  0  0  0  0  0  0  0  0
    1.1731   -3.0051   42.5773 C   0  0  0  0  0  0  0  0  0  0  0  0
    0.4701   -3.2344   41.4901 C   0  0  0  0  0  0  0  0  0  0  0  0
    5.3799   -1.7814   44.2691 C   0  0  0  0  0  0  0  0  0  0  0  0
    5.0159   -0.0180   43.1201 N   0  0  0  0  0  0  0  0  0  0  0  0
    5.7693   -0.6937   43.8418 C   0  0  0  0  0  0  0  0  0  0  0  0
    0.8078   -3.6166   43.6782 C   0  0  0  0  0  0  0  0  0  0  0  0
    0.0663   -4.7011   43.7415 N   0  0  0  0  0  0  0  0  0  0  0  0
    6.2223   -2.6843   45.1565 C   0  0  0  0  0  0  0  0  0  0  0  0
    6.9599   -0.2351   44.2608 N   0  0  0  0  0  0  0  0  0  0  0  0
    5.9065   -3.9037   45.7499 N   0  0  0  0  0  0  0  0  0  0  0  0
   -0.5459   -5.1185   42.5870 C   0  0  0  0  0  0  0  0  0  0  0  0
    5.7480   -4.0340   46.9810 C   0  0  0  0  0  0  0  0  0  0  0  0
    7.4448   -1.8511   45.4198 C   0  0  0  0  0  0  0  0  0  0  0  0
    7.7572   -0.7827   45.0128 C   0  0  0  0  0  0  0  0  0  0  0  0
    8.4076   -2.7217   46.4541 C   0  0  0  0  0  0  0  0  0  0  0  0
    9.3167   -2.0988   47.1049 N   0  0  0  0  0  0  0  0  0  0  0  0
   -0.4719   -4.3893   41.5406 C   0  0  0  0  0  0  0  0  0  0  0  0
    8.3667   -4.0284   46.5743 N   0  0  0  0  0  0  0  0  0  0  0  0
    9.5309   -4.3147   47.3094 C   0  0  0  0  0  0  0  0  0  0  0  0
    5.3113   -3.3789   47.8005 O   0  0  0  0  0  0  0  0  0  0  0  0
    9.9022   -5.6301   47.7684 C   0  0  0  0  0  0  0  0  0  0  0  0
    5.4470   -5.5868   47.2096 C   0  0  0  0  0  0  0  0  0  0  0  0
   11.2254   -5.8679   48.0402 C   0  0  0  0  0  0  0  0  0  0  0  0
    8.9736   -6.6532   47.8548 C   0  0  0  0  0  0  0  0  0  0  0  0
   10.0616   -3.0670   47.6360 C   0  0  0  0  0  0  0  0  0  0  0  0
    9.2755   -7.8884   48.2076 C   0  0  0  0  0  0  0  0  0  0  0  0
   10.6377   -8.1917   48.5431 C   0  0  0  0  0  0  0  0  0  0  0  0
   11.0661   -9.4955   48.9349 F   0  0  0  0  0  0  0  0  0  0  0  0
   11.6381   -7.1679   48.4427 C   0  0  0  0  0  0  0  0  0  0  0  0
  1  2  1  0
  2  3  2  0
  3  4  1  0
  1  5  2  0
  4  5  1  0
  4  6  2  0
  5  7  1  0
  7  8  2  0
  6  9  1  0
  3 10  1  0
  9 11  2  0
 10 11  1  0
  7 12  1  0
 12 13  2  0
  9 14  1  0
 11 15  1  0
 14 16  1  0
 13 17  1  0
 16 18  1  0
 14 19  2  0
 15 20  2  0
 19 20  1  0
 19 21  1  0
 21 22  2  0
  8 23  1  0
 17 23  2  0
 21 24  1  0
 24 25  1  0
 18 26  2  0
 25 27  1  0
 18 28  1  0
 27 29  2  0
 27 30  1  0
 22 31  1  0
 25 31  2  0
 30 32  2  0
 32 33  1  0
 33 34  1  0
 29 35  1  0
 33 35  2  0
M  END
$$$$
O14757_Pocket2Mol_idx-in-all-generaetd-110
     RDKit          3D

 45 53  0  0  0  0  0  0  0  0999 V2000
    1.5482   -0.3111   41.9233 C   0  0  0  0  0  0  0  0  0  0  0  0
    2.7284    0.2018   42.1525 N   0  0  0  0  0  0  0  0  0  0  0  0
    3.7893   -0.3016   42.7005 C   0  0  0  0  0  0  0  0  0  0  0  0
    3.3781   -1.7350   43.0000 C   0  0  0  0  0  0  0  0  0  0  0  0
    2.0339   -1.9619   42.6217 C   0  0  0  0  0  0  0  0  0  0  0  0
    5.0090    0.1219   42.9340 N   0  0  0  0  0  0  0  0  0  0  0  0
    4.2895   -2.4979   43.6707 C   0  0  0  0  0  0  0  0  0  0  0  0
    5.8391   -0.6675   43.6343 C   0  0  0  0  0  0  0  0  0  0  0  0
    6.9849   -0.2377   44.0028 N   0  0  0  0  0  0  0  0  0  0  0  0
    4.0426   -3.8794   44.0832 C   0  0  0  0  0  0  0  0  0  0  0  0
    7.6796   -0.8734   44.9326 C   0  0  0  0  0  0  0  0  0  0  0  0
    1.1064   -2.9576   42.4211 C   0  0  0  0  0  0  0  0  0  0  0  0
    5.5298   -1.9496   44.0315 C   0  0  0  0  0  0  0  0  0  0  0  0
    3.8954   -4.1817   45.4718 C   0  0  0  0  0  0  0  0  0  0  0  0
    0.6765   -3.5480   43.4006 C   0  0  1  0  0  0  0  0  0  0  0  0
    0.5804   -3.2191   41.1635 C   0  0  0  0  0  0  0  0  0  0  0  0
    2.8083   -4.8227   45.9203 N   0  0  0  0  0  0  0  0  0  0  0  0
   -0.1574   -4.5754   42.9329 N   0  0  0  0  0  0  0  0  0  0  0  0
    6.5271   -2.5531   44.9677 C   0  0  0  0  0  0  0  0  0  0  0  0
   -0.2272   -4.3703   41.5137 C   0  0  0  0  0  0  0  0  0  0  0  0
    7.5095   -2.0029   45.3993 C   0  0  0  0  0  0  0  0  0  0  0  0
    8.2550   -2.6982   46.3988 C   0  0  0  0  0  0  0  0  0  0  0  0
    8.8975   -0.3029   45.3267 O   0  0  0  0  0  0  0  0  0  0  0  0
    4.8299   -4.4637   46.4212 C   0  0  0  0  0  0  0  0  0  0  0  0
    4.2707   -4.9248   47.6295 N   0  0  0  0  0  0  0  0  0  0  0  0
    3.2045   -5.2092   47.1521 C   0  0  0  0  0  0  0  0  0  0  0  0
    1.4482   -4.6186   45.4134 C   0  0  1  0  0  0  0  0  0  0  0  0
    1.2398   -3.5043   44.6236 O   0  0  0  0  0  0  0  0  0  0  0  0
    7.8521   -3.9584   46.8773 C   0  0  0  0  0  0  0  0  0  0  0  0
    8.4079   -4.7553   47.7407 C   0  0  0  0  0  0  0  0  0  0  0  0
    5.9516   -3.8110   45.9146 C   0  0  0  0  0  0  0  0  0  0  0  0
    6.6436   -4.3892   46.6649 C   0  0  0  0  0  0  0  0  0  0  0  0
    9.5111   -5.5246   47.2994 O   0  0  0  0  0  0  0  0  0  0  0  0
   10.6238   -5.0197   46.8534 C   0  0  0  0  0  0  0  0  0  0  0  0
   11.5866   -4.7361   47.6189 C   0  0  0  0  0  0  0  0  0  0  0  0
    1.2153   -5.7944   44.5753 C   0  0  0  0  0  0  0  0  0  0  0  0
   10.7023   -4.6532   45.4361 C   0  0  0  0  0  0  0  0  0  0  0  0
   12.8078   -4.2193   47.0828 C   0  0  0  0  0  0  0  0  0  0  0  0
   11.7380   -4.2754   44.9534 C   0  0  0  0  0  0  0  0  0  0  0  0
   12.8675   -3.9423   45.7806 C   0  0  0  0  0  0  0  0  0  0  0  0
   14.2157   -3.2809   45.2573 C   0  0  0  0  0  0  0  0  0  0  0  0
   15.3080   -3.7878   45.5474 O   0  0  0  0  0  0  0  0  0  0  0  0
   14.0227   -2.1540   44.6149 N   0  0  0  0  0  0  0  0  0  0  0  0
   12.8165   -1.4944   44.4209 C   0  0  0  0  0  0  0  0  0  0  0  0
   15.1657   -1.2743   44.5693 C   0  0  0  0  0  0  0  0  0  0  0  0
  1  2  1  0
  2  3  2  0
  3  4  1  0
  1  5  2  0
  4  5  1  0
  3  6  1  0
  4  7  2  0
  6  8  1  0
  8  9  1  0
  7 10  1  0
  9 11  1  0
  5 12  1  0
  7 13  1  0
  8 13  2  0
 10 14  1  0
 12 15  1  0
 12 16  2  0
 14 17  1  0
 15 18  1  0
 13 19  1  0
 16 20  1  0
 18 20  2  0
 11 21  1  0
 19 21  2  0
 21 22  1  0
 11 23  2  0
 14 24  2  0
 24 25  1  0
 17 26  1  0
 25 26  2  0
 17 27  1  0
 15 28  1  6
 27 28  1  0
 22 29  2  0
 29 30  1  0
 19 31  1  0
 24 31  1  0
 29 32  1  0
 31 32  2  0
 30 33  1  0
 33 34  1  0
 34 35  2  0
 27 36  1  6
 34 37  1  0
 35 38  1  0
 37 39  2  0
 38 40  2  0
 39 40  1  0
 40 41  1  0
 41 42  2  0
 41 43  1  0
 43 44  1  0
 43 45  1  0
M  END
$$$$
O14757_Pocket2Mol_idx-in-all-generaetd-111
     RDKit          3D

 32 35  0  0  0  0  0  0  0  0999 V2000
    4.5142    0.3543   42.7132 N   0  0  0  0  0  0  0  0  0  0  0  0
    3.5107   -0.4860   42.6298 C   0  0  0  0  0  0  0  0  0  0  0  0
    3.5891   -1.7637   43.2512 N   0  0  0  0  0  0  0  0  0  0  0  0
    5.5470   -0.0112   43.3539 C   0  0  0  0  0  0  0  0  0  0  0  0
    2.1469   -0.1899   41.9512 C   0  0  0  0  0  0  0  0  0  0  0  0
    4.6725   -2.0734   43.8606 C   0  0  0  0  0  0  0  0  0  0  0  0
    5.7749   -1.1829   43.9325 C   0  0  0  0  0  0  0  0  0  0  0  0
    4.7150   -3.3068   44.6440 C   0  0  0  0  0  0  0  0  0  0  0  0
    6.9086   -1.5797   44.6919 C   0  0  0  0  0  0  0  0  0  0  0  0
    3.5691   -4.2517   44.6407 C   0  0  0  0  0  0  0  0  0  0  0  0
    2.3573   -4.0060   44.5430 C   0  0  0  0  0  0  0  0  0  0  0  0
    6.9170   -2.8018   45.4663 C   0  0  0  0  0  0  0  0  0  0  0  0
    5.8006   -3.6152   45.4297 C   0  0  0  0  0  0  0  0  0  0  0  0
    8.0903   -3.1108   46.2193 C   0  0  0  0  0  0  0  0  0  0  0  0
    4.0064   -5.4798   44.1304 O   0  0  0  0  0  0  0  0  0  0  0  0
    1.3499   -4.4927   43.7488 C   0  0  0  0  0  0  0  0  0  0  0  0
    8.9407   -2.1153   46.7855 N   0  0  0  0  0  0  0  0  0  0  0  0
    9.9131   -2.4307   47.6296 C   0  0  0  0  0  0  0  0  0  0  0  0
    9.9401   -2.1931   48.7722 O   0  0  0  0  0  0  0  0  0  0  0  0
    1.6925   -3.8787   45.7737 C   0  0  0  0  0  0  0  0  0  0  0  0
    0.0956   -4.4506   43.8726 C   0  0  0  0  0  0  0  0  0  0  0  0
   -0.4743   -4.1254   44.9651 C   0  0  0  0  0  0  0  0  0  0  0  0
    0.3478   -3.8227   46.0202 C   0  0  0  0  0  0  0  0  0  0  0  0
   10.9717   -3.3044   47.0291 C   0  0  2  0  0  0  0  0  0  0  0  0
   10.8168   -4.5181   46.8298 C   0  0  0  0  0  0  0  0  0  0  0  0
   12.2889   -2.9891   47.7404 N   0  0  0  0  0  0  0  0  0  0  0  0
   13.0416   -1.8355   47.4586 C   0  0  0  0  0  0  0  0  0  0  0  0
   12.2336   -3.1930   49.1667 C   0  0  0  0  0  0  0  0  0  0  0  0
   11.0242   -5.1627   45.6000 C   0  0  0  0  0  0  0  0  0  0  0  0
    9.9008   -5.4016   47.5689 C   0  0  0  0  0  0  0  0  0  0  0  0
   10.6033   -6.5454   45.6198 N   0  0  0  0  0  0  0  0  0  0  0  0
    9.9528   -6.6279   46.8488 C   0  0  0  0  0  0  0  0  0  0  0  0
  1  2  2  0
  2  3  1  0
  1  4  1  0
  2  5  1  0
  3  6  2  0
  4  7  2  0
  6  7  1  0
  6  8  1  0
  7  9  1  0
  8 10  1  0
 10 11  1  0
  9 12  2  0
  8 13  2  0
 12 13  1  0
 12 14  1  0
 10 15  2  0
 11 16  2  0
 14 17  1  0
 17 18  1  0
 18 19  2  0
 11 20  1  0
 16 21  1  0
 21 22  2  0
 20 23  2  0
 22 23  1  0
 18 24  1  0
 24 25  1  0
 24 26  1  1
 26 27  1  0
 26 28  1  0
 25 29  2  0
 25 30  1  0
 29 31  1  0
 30 32  1  0
 31 32  2  0
M  END
$$$$
O14757_Pocket2Mol_idx-in-all-generaetd-112
     RDKit          3D

 37 42  0  0  0  0  0  0  0  0999 V2000
    5.3420    0.2589   42.8836 O   0  0  0  0  0  0  0  0  0  0  0  0
    5.1627   -0.7554   43.4753 C   0  0  0  0  0  0  0  0  0  0  0  0
    4.0509   -1.4657   43.4177 N   0  0  0  0  0  0  0  0  0  0  0  0
    5.9969   -1.2317   44.6840 C   0  0  0  0  0  0  0  0  0  0  0  0
    2.9618   -1.1021   42.5918 C   0  0  0  0  0  0  0  0  0  0  0  0
    7.3392   -0.8596   44.8412 C   0  0  0  0  0  0  0  0  0  0  0  0
    1.9754   -2.0820   42.2741 C   0  0  0  0  0  0  0  0  0  0  0  0
    5.5910   -2.4282   45.3439 C   0  0  0  0  0  0  0  0  0  0  0  0
    6.5874   -2.9636   46.1581 C   0  0  0  0  0  0  0  0  0  0  0  0
    4.2763   -3.0680   45.0493 N   0  0  0  0  0  0  0  0  0  0  0  0
    3.6188   -2.5886   44.2024 C   0  0  0  0  0  0  0  0  0  0  0  0
    8.1921   -1.4071   45.7505 C   0  0  0  0  0  0  0  0  0  0  0  0
    1.0154   -1.8839   41.2980 C   0  0  0  0  0  0  0  0  0  0  0  0
    2.5720   -3.3564   43.9063 C   0  0  0  0  0  0  0  0  0  0  0  0
    0.2502   -2.8976   41.0751 C   0  0  0  0  0  0  0  0  0  0  0  0
    6.1761   -4.1775   47.0209 C   0  0  0  0  0  0  0  0  0  0  0  0
    1.7266   -3.1047   43.0115 C   0  0  2  0  0  0  0  0  0  0  0  0
    2.3696   -4.5367   44.7536 N   0  0  0  0  0  0  0  0  0  0  0  0
    1.2264   -5.2346   44.4693 C   0  0  0  0  0  0  0  0  0  0  0  0
    0.7187   -3.8955   42.5465 C   0  0  0  0  0  0  0  0  0  0  0  0
    9.4576   -0.8949   46.0327 N   0  0  0  0  0  0  0  0  0  0  0  0
    0.8625   -6.3901   45.2462 C   0  0  0  0  0  0  0  0  0  0  0  0
    7.6467   -2.5139   46.4892 C   0  0  0  0  0  0  0  0  0  0  0  0
   10.4908   -1.5336   45.8242 C   0  0  0  0  0  0  0  0  0  0  0  0
    0.3057   -4.9299   43.2909 C   0  0  0  0  0  0  0  0  0  0  0  0
   11.5916   -1.4291   46.7436 C   0  0  0  0  0  0  0  0  0  0  0  0
   10.5566   -2.3672   44.8649 O   0  0  0  0  0  0  0  0  0  0  0  0
   12.8421   -1.9355   46.2823 C   0  0  0  0  0  0  0  0  0  0  0  0
   13.4833   -2.8582   46.9841 C   0  0  0  0  0  0  0  0  0  0  0  0
   11.4002   -1.1447   48.0540 C   0  0  0  0  0  0  0  0  0  0  0  0
   10.2867   -0.4569   48.4999 O   0  0  0  0  0  0  0  0  0  0  0  0
   12.3327   -1.4798   48.9564 C   0  0  0  0  0  0  0  0  0  0  0  0
   14.7901   -3.3162   46.6439 C   0  0  0  0  0  0  0  0  0  0  0  0
    3.0215    0.0746   42.0641 O   0  0  0  0  0  0  0  0  0  0  0  0
   13.4501   -2.2866   48.4630 C   0  0  0  0  0  0  0  0  0  0  0  0
   14.7552   -4.6563   46.7576 O   0  0  0  0  0  0  0  0  0  0  0  0
   15.7116   -2.8054   46.1137 O   0  0  0  0  0  0  0  0  0  0  0  0
  1  2  2  0
  2  3  1  0
  2  4  1  0
  3  5  1  0
  4  6  2  0
  5  7  1  0
  4  8  1  0
  8  9  2  0
  8 10  1  0
  3 11  1  0
 10 11  2  0
  6 12  1  0
  7 13  2  0
 11 14  1  0
 13 15  1  0
  9 16  1  0
 17  7  1  6
 14 17  1  0
 14 18  2  0
 18 19  1  0
 15 20  2  0
 17 20  1  0
 12 21  1  0
 19 22  1  0
  9 23  1  0
 12 23  2  0
 21 24  1  0
 19 25  2  0
 20 25  1  0
 24 26  1  0
 24 27  2  0
 26 28  2  0
 28 29  1  0
 26 30  1  0
 30 31  1  0
 30 32  2  0
 29 33  1  0
  5 34  2  0
 29 35  2  0
 32 35  1  0
 33 36  2  0
 33 37  1  0
M  END
$$$$
O14757_Pocket2Mol_idx-in-all-generaetd-113
     RDKit          3D

 50 58  0  0  0  0  0  0  0  0999 V2000
    5.3420    0.2589   42.8836 O   0  0  0  0  0  0  0  0  0  0  0  0
    5.1627   -0.7554   43.4753 C   0  0  0  0  0  0  0  0  0  0  0  0
    4.0509   -1.4657   43.4177 N   0  0  0  0  0  0  0  0  0  0  0  0
    5.9969   -1.2317   44.6840 C   0  0  0  0  0  0  0  0  0  0  0  0
    2.9618   -1.1021   42.5918 C   0  0  1  0  0  0  0  0  0  0  0  0
    7.3392   -0.8596   44.8412 C   0  0  0  0  0  0  0  0  0  0  0  0
    1.9754   -2.0820   42.2741 C   0  0  0  0  0  0  0  0  0  0  0  0
    5.5910   -2.4282   45.3439 C   0  0  0  0  0  0  0  0  0  0  0  0
    6.5874   -2.9636   46.1581 C   0  0  0  0  0  0  0  0  0  0  0  0
    4.2763   -3.0680   45.0493 N   0  0  0  0  0  0  0  0  0  0  0  0
    3.6188   -2.5886   44.2024 C   0  0  0  0  0  0  0  0  0  0  0  0
    8.1921   -1.4071   45.7505 C   0  0  0  0  0  0  0  0  0  0  0  0
    1.0154   -1.8839   41.2980 C   0  0  0  0  0  0  0  0  0  0  0  0
    2.5720   -3.3564   43.9063 C   0  0  0  0  0  0  0  0  0  0  0  0
    0.2502   -2.8976   41.0751 C   0  0  0  0  0  0  0  0  0  0  0  0
    6.1761   -4.1775   47.0209 C   0  0  0  0  0  0  0  0  0  0  0  0
    1.7266   -3.1047   43.0115 C   0  0  2  0  0  0  0  0  0  0  0  0
    2.3696   -4.5367   44.7536 N   0  0  0  0  0  0  0  0  0  0  0  0
    1.2264   -5.2346   44.4693 C   0  0  0  0  0  0  0  0  0  0  0  0
    0.7187   -3.8955   42.5465 C   0  0  0  0  0  0  0  0  0  0  0  0
    9.4576   -0.8949   46.0327 N   0  0  0  0  0  0  0  0  0  0  0  0
    0.8625   -6.3901   45.2462 C   0  0  0  0  0  0  0  0  0  0  0  0
    7.6467   -2.5139   46.4892 C   0  0  0  0  0  0  0  0  0  0  0  0
   10.4908   -1.5336   45.8242 C   0  0  0  0  0  0  0  0  0  0  0  0
    0.3057   -4.9299   43.2909 C   0  0  0  0  0  0  0  0  0  0  0  0
   11.5916   -1.4291   46.7436 C   0  0  0  0  0  0  0  0  0  0  0  0
   10.5566   -2.3672   44.8649 O   0  0  0  0  0  0  0  0  0  0  0  0
   12.8421   -1.9355   46.2823 C   0  0  0  0  0  0  0  0  0  0  0  0
   13.4833   -2.8582   46.9841 C   0  0  0  0  0  0  0  0  0  0  0  0
   11.4002   -1.1447   48.0540 C   0  0  0  0  0  0  0  0  0  0  0  0
   10.2867   -0.4569   48.4999 O   0  0  0  0  0  0  0  0  0  0  0  0
   12.3327   -1.4798   48.9564 C   0  0  1  0  0  0  0  0  0  0  0  0
   14.7901   -3.3162   46.6439 C   0  0  0  0  0  0  0  0  0  0  0  0
   12.1651   -1.3050   50.3239 O   0  0  0  0  0  0  0  0  0  0  0  0
   15.6765   -2.5740   46.0979 C   0  0  0  0  0  0  0  0  0  0  0  0
    2.4608    0.2106   42.8512 C   0  0  0  0  0  0  0  0  0  0  0  0
   15.5213   -1.2590   45.7606 C   0  0  0  0  0  0  0  0  0  0  0  0
   14.5349   -0.8899   44.8574 C   0  0  0  0  0  0  0  0  0  0  0  0
   12.9775   -3.3460   48.2127 C   0  0  0  0  0  0  0  0  0  0  0  0
   14.7129   -0.1943   43.8652 C   0  0  0  0  0  0  0  0  0  0  0  0
   13.1163   -1.3789   45.0490 O   0  0  0  0  0  0  0  0  0  0  0  0
   16.0442    0.3600   43.7609 C   0  0  0  0  0  0  0  0  0  0  0  0
   16.1715    1.3518   42.5787 C   0  0  0  0  0  0  0  0  0  0  0  0
   12.7697   -2.7291   49.2346 C   0  0  0  0  0  0  0  0  0  0  0  0
   17.0329    0.1475   44.4838 C   0  0  0  0  0  0  0  0  0  0  0  0
   18.3168    0.7589   44.4037 C   0  0  0  0  0  0  0  0  0  0  0  0
   16.9302   -0.9039   45.4495 C   0  0  0  0  0  0  0  0  0  0  0  0
   18.5113    1.6955   43.3466 C   0  0  0  0  0  0  0  0  0  0  0  0
   15.1303    1.6848   41.7241 C   0  0  0  0  0  0  0  0  0  0  0  0
   17.3558    1.9716   42.5038 C   0  0  0  0  0  0  0  0  0  0  0  0
  1  2  2  0
  2  3  1  0
  2  4  1  0
  3  5  1  0
  4  6  2  0
  5  7  1  0
  4  8  1  0
  8  9  2  0
  8 10  1  0
  3 11  1  0
 10 11  2  0
  6 12  1  0
  7 13  2  0
 11 14  1  0
 13 15  1  0
  9 16  1  0
 17  7  1  6
 14 17  1  0
 14 18  2  0
 18 19  1  0
 15 20  2  0
 17 20  1  0
 12 21  1  0
 19 22  1  0
  9 23  1  0
 12 23  2  0
 21 24  1  0
 19 25  2  0
 20 25  1  0
 24 26  1  0
 24 27  2  0
 26 28  1  0
 28 29  2  0
 26 30  2  0
 30 31  1  0
 30 32  1  0
 29 33  1  0
 32 34  1  1
 33 35  2  0
  5 36  1  1
 35 37  1  0
 37 38  2  0
 29 39  1  0
 38 40  1  0
 28 41  1  0
 38 41  1  0
 40 42  2  0
 42 43  1  0
 32 44  1  0
 39 44  1  0
 42 45  1  0
 45 46  1  0
 37 47  1  0
 45 47  2  0
 46 48  2  0
 43 49  1  0
 43 50  2  0
 48 50  1  0
M  END
$$$$
O14757_Pocket2Mol_idx-in-all-generaetd-114
     RDKit          3D

 34 38  0  0  0  0  0  0  0  0999 V2000
    5.3420    0.2589   42.8836 O   0  0  0  0  0  0  0  0  0  0  0  0
    5.1627   -0.7554   43.4753 C   0  0  0  0  0  0  0  0  0  0  0  0
    4.0509   -1.4657   43.4177 N   0  0  0  0  0  0  0  0  0  0  0  0
    5.9969   -1.2317   44.6840 C   0  0  0  0  0  0  0  0  0  0  0  0
    2.9618   -1.1021   42.5918 C   0  0  1  0  0  0  0  0  0  0  0  0
    7.3392   -0.8596   44.8412 C   0  0  0  0  0  0  0  0  0  0  0  0
    1.9754   -2.0820   42.2741 C   0  0  0  0  0  0  0  0  0  0  0  0
    5.5910   -2.4282   45.3439 C   0  0  0  0  0  0  0  0  0  0  0  0
    6.5874   -2.9636   46.1581 C   0  0  0  0  0  0  0  0  0  0  0  0
    4.2763   -3.0680   45.0493 N   0  0  0  0  0  0  0  0  0  0  0  0
    3.6188   -2.5886   44.2024 C   0  0  0  0  0  0  0  0  0  0  0  0
    8.1921   -1.4071   45.7505 C   0  0  0  0  0  0  0  0  0  0  0  0
    1.0154   -1.8839   41.2980 C   0  0  0  0  0  0  0  0  0  0  0  0
    2.5720   -3.3564   43.9063 C   0  0  0  0  0  0  0  0  0  0  0  0
    0.2502   -2.8976   41.0751 C   0  0  0  0  0  0  0  0  0  0  0  0
    6.1761   -4.1775   47.0209 C   0  0  0  0  0  0  0  0  0  0  0  0
    1.7266   -3.1047   43.0115 C   0  0  2  0  0  0  0  0  0  0  0  0
    2.3696   -4.5367   44.7536 N   0  0  0  0  0  0  0  0  0  0  0  0
    1.2264   -5.2346   44.4693 C   0  0  0  0  0  0  0  0  0  0  0  0
    0.7187   -3.8955   42.5465 C   0  0  0  0  0  0  0  0  0  0  0  0
    9.4576   -0.8949   46.0327 N   0  0  0  0  0  0  0  0  0  0  0  0
    0.8625   -6.3901   45.2462 C   0  0  0  0  0  0  0  0  0  0  0  0
    7.6467   -2.5139   46.4892 C   0  0  0  0  0  0  0  0  0  0  0  0
   10.4908   -1.5336   45.8242 C   0  0  0  0  0  0  0  0  0  0  0  0
    0.3057   -4.9299   43.2909 C   0  0  0  0  0  0  0  0  0  0  0  0
   11.5916   -1.4291   46.7436 C   0  0  0  0  0  0  0  0  0  0  0  0
   10.5566   -2.3672   44.8649 O   0  0  0  0  0  0  0  0  0  0  0  0
   11.6051   -2.2111   47.7709 N   0  0  0  0  0  0  0  0  0  0  0  0
    2.4805    0.2099   42.8350 O   0  0  0  0  0  0  0  0  0  0  0  0
   12.6177   -0.5842   46.5430 C   0  0  0  0  0  0  0  0  0  0  0  0
   12.8756    0.2998   45.3489 C   0  0  0  0  0  0  0  0  0  0  0  0
   13.6543   -0.1866   44.5008 C   0  0  0  0  0  0  0  0  0  0  0  0
   13.5654   -0.5806   47.5414 O   0  0  0  0  0  0  0  0  0  0  0  0
   11.3819   -3.4723   47.9765 C   0  0  0  0  0  0  0  0  0  0  0  0
  1  2  2  0
  2  3  1  0
  2  4  1  0
  3  5  1  0
  4  6  2  0
  5  7  1  0
  4  8  1  0
  8  9  2  0
  8 10  1  0
  3 11  1  0
 10 11  2  0
  6 12  1  0
  7 13  2  0
 11 14  1  0
 13 15  1  0
  9 16  1  0
 17  7  1  6
 14 17  1  0
 14 18  2  0
 18 19  1  0
 15 20  2  0
 17 20  1  0
 12 21  1  0
 19 22  1  0
  9 23  1  0
 12 23  2  0
 21 24  1  0
 19 25  2  0
 20 25  1  0
 24 26  1  0
 24 27  2  0
 26 28  1  0
  5 29  1  1
 26 30  2  3
 30 31  1  0
 31 32  1  0
 30 33  1  0
 28 34  1  0
M  END
$$$$
O14757_Pocket2Mol_idx-in-all-generaetd-115
     RDKit          3D

 44 50  0  0  0  0  0  0  0  0999 V2000
    5.3420    0.2589   42.8836 O   0  0  0  0  0  0  0  0  0  0  0  0
    5.1627   -0.7554   43.4753 C   0  0  0  0  0  0  0  0  0  0  0  0
    4.0509   -1.4657   43.4177 N   0  0  0  0  0  0  0  0  0  0  0  0
    5.9969   -1.2317   44.6840 C   0  0  0  0  0  0  0  0  0  0  0  0
    2.9618   -1.1021   42.5918 C   0  0  1  0  0  0  0  0  0  0  0  0
    7.3392   -0.8596   44.8412 C   0  0  0  0  0  0  0  0  0  0  0  0
    1.9754   -2.0820   42.2741 C   0  0  0  0  0  0  0  0  0  0  0  0
    5.5910   -2.4282   45.3439 C   0  0  0  0  0  0  0  0  0  0  0  0
    6.5874   -2.9636   46.1581 C   0  0  0  0  0  0  0  0  0  0  0  0
    4.2763   -3.0680   45.0493 N   0  0  0  0  0  0  0  0  0  0  0  0
    3.6188   -2.5886   44.2024 C   0  0  0  0  0  0  0  0  0  0  0  0
    8.1921   -1.4071   45.7505 C   0  0  0  0  0  0  0  0  0  0  0  0
    1.0154   -1.8839   41.2980 C   0  0  0  0  0  0  0  0  0  0  0  0
    2.5720   -3.3564   43.9063 C   0  0  0  0  0  0  0  0  0  0  0  0
    0.2502   -2.8976   41.0751 C   0  0  0  0  0  0  0  0  0  0  0  0
    6.1761   -4.1775   47.0209 C   0  0  0  0  0  0  0  0  0  0  0  0
    1.7266   -3.1047   43.0115 C   0  0  2  0  0  0  0  0  0  0  0  0
    2.3696   -4.5367   44.7536 N   0  0  0  0  0  0  0  0  0  0  0  0
    1.2264   -5.2346   44.4693 C   0  0  0  0  0  0  0  0  0  0  0  0
    0.7187   -3.8955   42.5465 C   0  0  0  0  0  0  0  0  0  0  0  0
    9.4576   -0.8949   46.0327 N   0  0  0  0  0  0  0  0  0  0  0  0
    0.8625   -6.3901   45.2462 C   0  0  0  0  0  0  0  0  0  0  0  0
    7.6467   -2.5139   46.4892 C   0  0  0  0  0  0  0  0  0  0  0  0
   10.4908   -1.5336   45.8242 C   0  0  0  0  0  0  0  0  0  0  0  0
    0.3057   -4.9299   43.2909 C   0  0  0  0  0  0  0  0  0  0  0  0
   11.5916   -1.4291   46.7436 C   0  0  0  0  0  0  0  0  0  0  0  0
   10.5566   -2.3672   44.8649 O   0  0  0  0  0  0  0  0  0  0  0  0
    2.4730    0.2084   42.8389 O   0  0  0  0  0  0  0  0  0  0  0  0
   11.6027   -2.2081   47.7725 N   0  0  0  0  0  0  0  0  0  0  0  0
   12.6189   -0.5862   46.5415 C   0  0  0  0  0  0  0  0  0  0  0  0
   13.6413   -0.4484   47.4129 C   0  0  0  0  0  0  0  0  0  0  0  0
   10.4764   -3.1097   48.1134 C   0  0  0  0  0  0  0  0  0  0  0  0
    9.5762   -2.4717   49.0753 C   0  0  0  0  0  0  0  0  0  0  0  0
    9.7761   -1.2394   49.5167 C   0  0  0  0  0  0  0  0  0  0  0  0
    8.6397   -3.3252   49.7339 C   0  0  0  0  0  0  0  0  0  0  0  0
    8.9861   -0.7034   50.5819 C   0  0  0  0  0  0  0  0  0  0  0  0
   14.7137    0.5128   47.0925 C   0  0  0  0  0  0  0  0  0  0  0  0
    8.1815   -1.5423   51.2387 C   0  0  0  0  0  0  0  0  0  0  0  0
    8.4156   -4.7176   49.2102 O   0  0  0  0  0  0  0  0  0  0  0  0
    7.9436   -2.8856   50.8102 C   0  0  0  0  0  0  0  0  0  0  0  0
   12.6675   -2.1100   48.6466 C   0  0  0  0  0  0  0  0  0  0  0  0
    8.1466   -5.6065   49.9515 C   0  0  0  0  0  0  0  0  0  0  0  0
   12.7267   -3.0066   49.7261 O   0  0  0  0  0  0  0  0  0  0  0  0
   13.7679   -1.2527   48.4548 C   0  0  0  0  0  0  0  0  0  0  0  0
  1  2  2  0
  2  3  1  0
  2  4  1  0
  3  5  1  0
  4  6  2  0
  5  7  1  0
  4  8  1  0
  8  9  2  0
  8 10  1  0
  3 11  1  0
 10 11  2  0
  6 12  1  0
  7 13  2  0
 11 14  1  0
 13 15  1  0
  9 16  1  0
 17  7  1  6
 14 17  1  0
 14 18  2  0
 18 19  1  0
 15 20  2  0
 17 20  1  0
 12 21  1  0
 19 22  1  0
  9 23  1  0
 12 23  2  0
 21 24  1  0
 19 25  2  0
 20 25  1  0
 24 26  1  0
 24 27  2  0
  5 28  1  1
 26 29  1  0
 26 30  2  0
 30 31  1  0
 29 32  1  0
 32 33  1  0
 33 34  2  0
 33 35  1  0
 34 36  1  0
 31 37  1  0
 36 38  2  0
 35 39  1  0
 35 40  2  0
 38 40  1  0
 29 41  1  0
 39 42  1  0
 41 43  2  0
 31 44  2  0
 41 44  1  0
M  END
$$$$
O14757_Pocket2Mol_idx-in-all-generaetd-116
     RDKit          3D

 31 36  0  0  0  0  0  0  0  0999 V2000
    5.3420    0.2589   42.8836 N   0  0  0  0  0  0  0  0  0  0  0  0
    5.6740   -0.8311   43.5645 C   0  0  0  0  0  0  0  0  0  0  0  0
    4.6589   -1.7043   43.6799 C   0  0  0  0  0  0  0  0  0  0  0  0
    3.6286   -1.0900   42.8577 C   0  0  0  0  0  0  0  0  0  0  0  0
    4.0610    0.1743   42.5227 N   0  0  0  0  0  0  0  0  0  0  0  0
    2.2711   -1.4200   42.4728 C   0  0  0  0  0  0  0  0  0  0  0  0
    4.3843   -2.8218   44.3745 C   0  0  0  0  0  0  0  0  0  0  0  0
    1.4505   -0.5265   41.9137 C   0  0  0  0  0  0  0  0  0  0  0  0
    1.9236   -2.8327   42.4366 C   0  0  0  0  0  0  0  0  0  0  0  0
    0.5317   -2.7729   41.9287 C   0  0  0  0  0  0  0  0  0  0  0  0
    6.8587   -1.2119   44.3293 C   0  0  0  0  0  0  0  0  0  0  0  0
    0.2175   -1.3031   41.4860 C   0  0  0  0  0  0  0  0  0  0  0  0
   -0.3459   -3.9057   41.6978 C   0  0  0  0  0  0  0  0  0  0  0  0
    7.8877   -0.5486   44.6088 N   0  0  0  0  0  0  0  0  0  0  0  0
    6.7301   -2.3898   45.2144 C   0  0  0  0  0  0  0  0  0  0  0  0
    5.5335   -3.2051   45.1511 C   0  0  0  0  0  0  0  0  0  0  0  0
    7.9111   -2.4568   45.9191 C   0  0  0  0  0  0  0  0  0  0  0  0
    8.6956   -1.2139   45.6145 C   0  0  0  0  0  0  0  0  0  0  0  0
    8.4387   -3.4065   46.9399 C   0  0  0  0  0  0  0  0  0  0  0  0
    9.6434   -3.2081   47.4488 C   0  0  0  0  0  0  0  0  0  0  0  0
   10.1454   -4.1698   48.4457 C   0  0  0  0  0  0  0  0  0  0  0  0
    9.9571   -1.0853   46.2999 C   0  0  0  0  0  0  0  0  0  0  0  0
   10.3696   -2.0115   47.1904 C   0  0  0  0  0  0  0  0  0  0  0  0
   10.5141   -5.3875   47.9390 N   0  0  0  0  0  0  0  0  0  0  0  0
   11.5759   -5.4913   47.1327 C   0  0  0  0  0  0  0  0  0  0  0  0
    9.7709   -6.5250   48.2414 C   0  0  0  0  0  0  0  0  0  0  0  0
   11.3326   -5.8221   45.7860 C   0  0  0  0  0  0  0  0  0  0  0  0
    8.9138   -6.6554   49.0519 O   0  0  0  0  0  0  0  0  0  0  0  0
   11.1837   -7.2876   45.6637 N   0  0  0  0  0  0  0  0  0  0  0  0
   10.2419   -7.9259   47.6145 C   0  0  0  0  0  0  0  0  0  0  0  0
   10.1565   -7.8577   46.1966 C   0  0  0  0  0  0  0  0  0  0  0  0
  1  2  2  0
  2  3  1  0
  3  4  2  0
  1  5  1  0
  4  5  1  0
  4  6  1  0
  3  7  1  0
  6  8  2  0
  6  9  1  0
  9 10  2  0
  2 11  1  0
  8 12  1  0
 10 12  1  0
 10 13  1  0
 11 14  1  0
 11 15  2  0
  7 16  2  0
 15 16  1  0
 15 17  1  0
 14 18  1  0
 17 18  2  0
 17 19  1  0
 19 20  2  0
 20 21  1  0
 18 22  1  0
 20 23  1  0
 22 23  2  0
 21 24  1  0
 24 25  1  0
 24 26  1  0
 25 27  1  0
 26 28  2  0
 27 29  1  0
 26 30  1  0
 29 31  1  0
 30 31  1  0
M  END
$$$$
O14757_Pocket2Mol_idx-in-all-generaetd-117
     RDKit          3D

 49 57  0  0  0  0  0  0  0  0999 V2000
    5.3420    0.2589   42.8836 O   0  0  0  0  0  0  0  0  0  0  0  0
    5.1627   -0.7554   43.4753 C   0  0  0  0  0  0  0  0  0  0  0  0
    4.0509   -1.4657   43.4177 N   0  0  0  0  0  0  0  0  0  0  0  0
    5.9969   -1.2317   44.6840 C   0  0  0  0  0  0  0  0  0  0  0  0
    2.9618   -1.1021   42.5918 C   0  0  1  0  0  0  0  0  0  0  0  0
    7.3392   -0.8596   44.8412 C   0  0  0  0  0  0  0  0  0  0  0  0
    1.9754   -2.0820   42.2741 C   0  0  0  0  0  0  0  0  0  0  0  0
    5.5910   -2.4282   45.3439 C   0  0  0  0  0  0  0  0  0  0  0  0
    6.5874   -2.9636   46.1581 C   0  0  0  0  0  0  0  0  0  0  0  0
    4.2763   -3.0680   45.0493 N   0  0  0  0  0  0  0  0  0  0  0  0
    3.6188   -2.5886   44.2024 C   0  0  0  0  0  0  0  0  0  0  0  0
    8.1921   -1.4071   45.7505 C   0  0  0  0  0  0  0  0  0  0  0  0
    1.0154   -1.8839   41.2980 C   0  0  0  0  0  0  0  0  0  0  0  0
    2.5720   -3.3564   43.9063 C   0  0  0  0  0  0  0  0  0  0  0  0
    0.2502   -2.8976   41.0751 C   0  0  0  0  0  0  0  0  0  0  0  0
    6.1761   -4.1775   47.0209 C   0  0  0  0  0  0  0  0  0  0  0  0
    1.7266   -3.1047   43.0115 C   0  0  2  0  0  0  0  0  0  0  0  0
    2.3696   -4.5367   44.7536 N   0  0  0  0  0  0  0  0  0  0  0  0
    1.2264   -5.2346   44.4693 C   0  0  0  0  0  0  0  0  0  0  0  0
    0.7187   -3.8955   42.5465 C   0  0  0  0  0  0  0  0  0  0  0  0
    9.4576   -0.8949   46.0327 N   0  0  0  0  0  0  0  0  0  0  0  0
    0.8625   -6.3901   45.2462 C   0  0  0  0  0  0  0  0  0  0  0  0
    7.6467   -2.5139   46.4892 C   0  0  0  0  0  0  0  0  0  0  0  0
   10.4908   -1.5336   45.8242 C   0  0  0  0  0  0  0  0  0  0  0  0
    0.3057   -4.9299   43.2909 C   0  0  0  0  0  0  0  0  0  0  0  0
   11.5916   -1.4291   46.7436 C   0  0  0  0  0  0  0  0  0  0  0  0
   10.5566   -2.3672   44.8649 O   0  0  0  0  0  0  0  0  0  0  0  0
   12.8421   -1.9355   46.2823 C   0  0  0  0  0  0  0  0  0  0  0  0
   13.4833   -2.8582   46.9841 C   0  0  0  0  0  0  0  0  0  0  0  0
   11.4002   -1.1447   48.0540 C   0  0  0  0  0  0  0  0  0  0  0  0
   10.2867   -0.4569   48.4999 O   0  0  0  0  0  0  0  0  0  0  0  0
   12.3327   -1.4798   48.9564 C   0  0  1  0  0  0  0  0  0  0  0  0
   14.7901   -3.3162   46.6439 C   0  0  0  0  0  0  0  0  0  0  0  0
   12.1651   -1.3050   50.3239 O   0  0  0  0  0  0  0  0  0  0  0  0
   15.6765   -2.5740   46.0979 C   0  0  0  0  0  0  0  0  0  0  0  0
    2.4608    0.2106   42.8512 C   0  0  0  0  0  0  0  0  0  0  0  0
   15.5213   -1.2590   45.7606 C   0  0  2  0  0  0  0  0  0  0  0  0
   14.5349   -0.8899   44.8574 C   0  0  0  0  0  0  0  0  0  0  0  0
   12.9775   -3.3460   48.2127 C   0  0  0  0  0  0  0  0  0  0  0  0
   14.7129   -0.1943   43.8652 C   0  0  0  0  0  0  0  0  0  0  0  0
   13.1163   -1.3789   45.0490 O   0  0  0  0  0  0  0  0  0  0  0  0
   12.7443   -2.7596   49.2688 C   0  0  0  0  0  0  0  0  0  0  0  0
   15.8145    0.5028   43.5830 C   0  0  2  0  0  0  0  0  0  0  0  0
   15.9344    1.4629   42.4540 C   0  0  0  0  0  0  0  0  0  0  0  0
   14.7741    2.0231   42.1466 C   0  0  0  0  0  0  0  0  0  0  0  0
   16.8299   -0.7561   45.1452 C   0  0  0  0  0  0  0  0  0  0  0  0
   16.9791    0.2195   44.2628 C   0  0  0  0  0  0  0  0  0  0  0  0
   13.5182    1.4692   42.3826 C   0  0  0  0  0  0  0  0  0  0  0  0
   13.5672    0.4684   43.3926 C   0  0  0  0  0  0  0  0  0  0  0  0
  1  2  2  0
  2  3  1  0
  2  4  1  0
  3  5  1  0
  4  6  2  0
  5  7  1  0
  4  8  1  0
  8  9  2  0
  8 10  1  0
  3 11  1  0
 10 11  2  0
  6 12  1  0
  7 13  2  0
 11 14  1  0
 13 15  1  0
  9 16  1  0
 17  7  1  6
 14 17  1  0
 14 18  2  0
 18 19  1  0
 15 20  2  0
 17 20  1  0
 12 21  1  0
 19 22  1  0
  9 23  1  0
 12 23  2  0
 21 24  1  0
 19 25  2  0
 20 25  1  0
 24 26  1  0
 24 27  2  0
 26 28  1  0
 28 29  2  0
 26 30  2  0
 30 31  1  0
 30 32  1  0
 29 33  1  0
 32 34  1  1
 33 35  2  0
  5 36  1  1
 35 37  1  0
 37 38  1  0
 29 39  1  0
 38 40  2  0
 28 41  1  0
 38 41  1  0
 32 42  1  0
 39 42  1  0
 40 43  1  0
 43 44  1  0
 44 45  2  0
 37 46  1  6
 43 47  1  6
 46 47  1  0
 45 48  1  0
 40 49  1  0
 48 49  2  0
M  END
$$$$
O14757_Pocket2Mol_idx-in-all-generaetd-118
     RDKit          3D

 44 52  0  0  0  0  0  0  0  0999 V2000
    1.5482   -0.3111   41.9233 C   0  0  0  0  0  0  0  0  0  0  0  0
    2.7284    0.2018   42.1525 N   0  0  0  0  0  0  0  0  0  0  0  0
    3.7893   -0.3016   42.7005 C   0  0  0  0  0  0  0  0  0  0  0  0
    3.3781   -1.7350   43.0000 C   0  0  0  0  0  0  0  0  0  0  0  0
    2.0339   -1.9619   42.6217 C   0  0  0  0  0  0  0  0  0  0  0  0
    5.0090    0.1219   42.9340 N   0  0  0  0  0  0  0  0  0  0  0  0
    4.2895   -2.4979   43.6707 C   0  0  0  0  0  0  0  0  0  0  0  0
    5.8391   -0.6675   43.6343 C   0  0  0  0  0  0  0  0  0  0  0  0
    6.9849   -0.2377   44.0028 N   0  0  0  0  0  0  0  0  0  0  0  0
    4.0426   -3.8794   44.0832 C   0  0  0  0  0  0  0  0  0  0  0  0
    7.6796   -0.8734   44.9326 C   0  0  0  0  0  0  0  0  0  0  0  0
    1.1064   -2.9576   42.4211 C   0  0  0  0  0  0  0  0  0  0  0  0
    5.5298   -1.9496   44.0315 C   0  0  0  0  0  0  0  0  0  0  0  0
    3.8954   -4.1817   45.4718 C   0  0  0  0  0  0  0  0  0  0  0  0
    0.6765   -3.5480   43.4006 C   0  0  1  0  0  0  0  0  0  0  0  0
    0.5804   -3.2191   41.1635 C   0  0  0  0  0  0  0  0  0  0  0  0
    2.8083   -4.8227   45.9203 N   0  0  0  0  0  0  0  0  0  0  0  0
   -0.1574   -4.5754   42.9329 N   0  0  0  0  0  0  0  0  0  0  0  0
    6.5271   -2.5531   44.9677 C   0  0  0  0  0  0  0  0  0  0  0  0
   -0.2272   -4.3703   41.5137 C   0  0  0  0  0  0  0  0  0  0  0  0
    7.5095   -2.0029   45.3993 C   0  0  0  0  0  0  0  0  0  0  0  0
    8.2550   -2.6982   46.3988 C   0  0  1  0  0  0  0  0  0  0  0  0
    8.8975   -0.3029   45.3267 O   0  0  0  0  0  0  0  0  0  0  0  0
    4.8299   -4.4637   46.4212 C   0  0  0  0  0  0  0  0  0  0  0  0
    4.2707   -4.9248   47.6295 N   0  0  0  0  0  0  0  0  0  0  0  0
    3.2045   -5.2092   47.1521 C   0  0  0  0  0  0  0  0  0  0  0  0
    1.4482   -4.6186   45.4134 C   0  0  0  0  0  0  0  0  0  0  0  0
    1.3256   -3.7660   44.6394 N   0  0  0  0  0  0  0  0  0  0  0  0
    9.2816   -2.1418   47.1273 N   0  0  0  0  0  0  0  0  0  0  0  0
   10.0629   -3.1324   47.8508 C   0  0  0  0  0  0  0  0  0  0  0  0
    6.3491   -3.8960   46.0844 C   0  0  2  0  0  0  0  0  0  0  0  0
    7.4349   -3.5889   46.9054 C   0  0  0  0  0  0  0  0  0  0  0  0
   10.3145   -2.7271   49.0818 O   0  0  0  0  0  0  0  0  0  0  0  0
    0.6213   -5.4445   45.7455 O   0  0  0  0  0  0  0  0  0  0  0  0
   11.0262   -3.8136   47.1050 C   0  0  0  0  0  0  0  0  0  0  0  0
   12.1704   -3.3854   46.7547 C   0  0  0  0  0  0  0  0  0  0  0  0
   13.1080   -4.1111   46.0053 C   0  0  0  0  0  0  0  0  0  0  0  0
   14.3489   -3.5966   45.7888 C   0  0  0  0  0  0  0  0  0  0  0  0
   12.7430   -5.2725   45.5056 C   0  0  0  0  0  0  0  0  0  0  0  0
   14.6935   -2.2816   45.3353 C   0  0  0  0  0  0  0  0  0  0  0  0
   10.5583   -5.1175   46.7236 C   0  0  0  0  0  0  0  0  0  0  0  0
   13.6556   -1.3528   45.3896 O   0  0  0  0  0  0  0  0  0  0  0  0
   11.4533   -5.7713   45.8257 C   0  0  0  0  0  0  0  0  0  0  0  0
   15.6480   -1.8882   44.7458 O   0  0  0  0  0  0  0  0  0  0  0  0
  1  2  1  0
  2  3  2  0
  3  4  1  0
  1  5  2  0
  4  5  1  0
  3  6  1  0
  4  7  2  0
  6  8  1  0
  8  9  1  0
  7 10  1  0
  9 11  1  0
  5 12  1  0
  7 13  1  0
  8 13  2  0
 10 14  1  0
 12 15  1  0
 12 16  2  0
 14 17  1  0
 15 18  1  0
 13 19  1  0
 16 20  1  0
 18 20  2  0
 11 21  1  0
 19 21  2  0
 21 22  1  0
 11 23  2  0
 14 24  2  0
 24 25  1  0
 17 26  1  0
 25 26  2  0
 17 27  1  0
 15 28  1  6
 27 28  1  0
 22 29  1  1
 29 30  1  0
 19 31  1  0
 24 31  1  0
 22 32  1  0
 31 32  1  1
 30 33  2  0
 27 34  2  0
 30 35  1  0
 35 36  2  0
 36 37  1  0
 37 38  1  0
 37 39  2  0
 38 40  1  0
 35 41  1  0
 40 42  2  0
 39 43  1  0
 41 43  2  0
 40 44  1  0
M  END
$$$$
O14757_Pocket2Mol_idx-in-all-generaetd-119
     RDKit          3D

 45 52  0  0  0  0  0  0  0  0999 V2000
    5.3420    0.2589   42.8836 O   0  0  0  0  0  0  0  0  0  0  0  0
    5.1627   -0.7554   43.4753 C   0  0  0  0  0  0  0  0  0  0  0  0
    4.0509   -1.4657   43.4177 N   0  0  0  0  0  0  0  0  0  0  0  0
    5.9969   -1.2317   44.6840 C   0  0  0  0  0  0  0  0  0  0  0  0
    2.9618   -1.1021   42.5918 C   0  0  1  0  0  0  0  0  0  0  0  0
    7.3392   -0.8596   44.8412 C   0  0  0  0  0  0  0  0  0  0  0  0
    1.9754   -2.0820   42.2741 C   0  0  0  0  0  0  0  0  0  0  0  0
    5.5910   -2.4282   45.3439 C   0  0  0  0  0  0  0  0  0  0  0  0
    6.5874   -2.9636   46.1581 C   0  0  0  0  0  0  0  0  0  0  0  0
    4.2763   -3.0680   45.0493 N   0  0  0  0  0  0  0  0  0  0  0  0
    3.6188   -2.5886   44.2024 C   0  0  0  0  0  0  0  0  0  0  0  0
    8.1921   -1.4071   45.7505 C   0  0  0  0  0  0  0  0  0  0  0  0
    1.0154   -1.8839   41.2980 C   0  0  0  0  0  0  0  0  0  0  0  0
    2.5720   -3.3564   43.9063 C   0  0  0  0  0  0  0  0  0  0  0  0
    0.2502   -2.8976   41.0751 C   0  0  0  0  0  0  0  0  0  0  0  0
    6.1761   -4.1775   47.0209 C   0  0  0  0  0  0  0  0  0  0  0  0
    1.7266   -3.1047   43.0115 C   0  0  2  0  0  0  0  0  0  0  0  0
    2.3696   -4.5367   44.7536 N   0  0  0  0  0  0  0  0  0  0  0  0
    1.2264   -5.2346   44.4693 C   0  0  0  0  0  0  0  0  0  0  0  0
    0.7187   -3.8955   42.5465 C   0  0  0  0  0  0  0  0  0  0  0  0
    9.4576   -0.8949   46.0327 N   0  0  0  0  0  0  0  0  0  0  0  0
    0.8625   -6.3901   45.2462 C   0  0  0  0  0  0  0  0  0  0  0  0
    7.6467   -2.5139   46.4892 C   0  0  0  0  0  0  0  0  0  0  0  0
   10.4908   -1.5336   45.8242 C   0  0  0  0  0  0  0  0  0  0  0  0
    0.3057   -4.9299   43.2909 C   0  0  0  0  0  0  0  0  0  0  0  0
   11.5916   -1.4291   46.7436 C   0  0  0  0  0  0  0  0  0  0  0  0
   10.5566   -2.3672   44.8649 O   0  0  0  0  0  0  0  0  0  0  0  0
    2.4730    0.2084   42.8389 O   0  0  0  0  0  0  0  0  0  0  0  0
   11.6027   -2.2081   47.7725 N   0  0  0  0  0  0  0  0  0  0  0  0
   12.6189   -0.5862   46.5415 C   0  0  0  0  0  0  0  0  0  0  0  0
   13.6413   -0.4484   47.4129 C   0  0  0  0  0  0  0  0  0  0  0  0
   10.4764   -3.1097   48.1134 C   0  0  0  0  0  0  0  0  0  0  0  0
    9.5762   -2.4717   49.0753 C   0  0  0  0  0  0  0  0  0  0  0  0
    9.7761   -1.2394   49.5167 C   0  0  0  0  0  0  0  0  0  0  0  0
    8.6397   -3.3252   49.7339 C   0  0  0  0  0  0  0  0  0  0  0  0
    8.9861   -0.7034   50.5819 C   0  0  0  0  0  0  0  0  0  0  0  0
   12.7628   -2.0677   48.3467 C   0  0  0  0  0  0  0  0  0  0  0  0
    8.3925   -4.6975   49.1448 C   0  0  0  0  0  0  0  0  0  0  0  0
   13.7449   -1.3168   48.3092 C   0  0  0  0  0  0  0  0  0  0  0  0
    7.9349   -2.8103   50.7519 C   0  0  0  0  0  0  0  0  0  0  0  0
   12.8976   -3.0732   49.4727 O   0  0  0  0  0  0  0  0  0  0  0  0
    6.9045   -3.6108   51.3757 F   0  0  0  0  0  0  0  0  0  0  0  0
    7.0747   -4.8865   48.6443 N   0  0  0  0  0  0  0  0  0  0  0  0
    8.1340   -1.5458   51.1954 C   0  0  0  0  0  0  0  0  0  0  0  0
    7.1601   -4.7146   47.4513 N   0  0  0  0  0  0  0  0  0  0  0  0
  1  2  2  0
  2  3  1  0
  2  4  1  0
  3  5  1  0
  4  6  2  0
  5  7  1  0
  4  8  1  0
  8  9  2  0
  8 10  1  0
  3 11  1  0
 10 11  2  0
  6 12  1  0
  7 13  2  0
 11 14  1  0
 13 15  1  0
  9 16  1  0
 17  7  1  6
 14 17  1  0
 14 18  2  0
 18 19  1  0
 15 20  2  0
 17 20  1  0
 12 21  1  0
 19 22  1  0
  9 23  1  0
 12 23  2  0
 21 24  1  0
 19 25  2  0
 20 25  1  0
 24 26  1  0
 24 27  2  0
  5 28  1  1
 26 29  1  0
 26 30  2  0
 30 31  1  0
 29 32  1  0
 32 33  1  0
 33 34  1  0
 33 35  2  0
 34 36  2  0
 29 37  1  0
 35 38  1  0
 31 39  2  0
 37 39  1  0
 35 40  1  0
 37 41  2  0
 40 42  1  0
 38 43  1  0
 36 44  1  0
 40 44  2  0
 16 45  1  0
 43 45  1  0
M  END
$$$$
O14757_Pocket2Mol_idx-in-all-generaetd-120
     RDKit          3D

 25 27  0  0  0  0  0  0  0  0999 V2000
    5.1775    0.2381   42.7925 N   0  0  0  0  0  0  0  0  0  0  0  0
    3.8485    0.3515   42.4285 N   0  0  0  0  0  0  0  0  0  0  0  0
    5.5201   -0.8216   43.5188 C   0  0  0  0  0  0  0  0  0  0  0  0
    4.5575   -1.7838   43.9113 C   0  0  0  0  0  0  0  0  0  0  0  0
    2.9777   -0.5504   42.6073 C   0  0  0  0  0  0  0  0  0  0  0  0
    4.8521   -2.9209   44.7316 C   0  0  0  0  0  0  0  0  0  0  0  0
    3.2351   -1.5675   43.1903 C   0  0  0  0  0  0  0  0  0  0  0  0
    1.6955   -0.2711   41.8967 C   0  0  0  0  0  0  0  0  0  0  0  0
    0.8864   -1.3663   42.0618 C   0  0  0  0  0  0  0  0  0  0  0  0
    2.3187   -2.7500   43.4543 C   0  0  0  0  0  0  0  0  0  0  0  0
    1.1071   -2.5907   42.7445 C   0  0  0  0  0  0  0  0  0  0  0  0
    6.0979   -2.8249   45.5633 C   0  0  0  0  0  0  0  0  0  0  0  0
    0.0423   -3.6939   42.8205 C   0  0  0  0  0  0  0  0  0  0  0  0
    0.2331   -4.5880   43.5917 O   0  0  0  0  0  0  0  0  0  0  0  0
    6.4257   -3.8638   46.3660 C   0  0  0  0  0  0  0  0  0  0  0  0
    6.9218   -1.6136   45.5979 C   0  0  0  0  0  0  0  0  0  0  0  0
    8.0623   -1.7273   46.3213 C   0  0  0  0  0  0  0  0  0  0  0  0
    5.4782   -4.9551   46.4171 O   0  0  0  0  0  0  0  0  0  0  0  0
   -0.4252   -3.9861   41.5744 O   0  0  0  0  0  0  0  0  0  0  0  0
    4.1344   -4.7140   46.8556 C   0  0  0  0  0  0  0  0  0  0  0  0
    7.5352   -3.8933   47.0992 C   0  0  0  0  0  0  0  0  0  0  0  0
    8.4596   -2.8409   47.0974 C   0  0  0  0  0  0  0  0  0  0  0  0
    9.6633   -2.8143   47.7882 O   0  0  0  0  0  0  0  0  0  0  0  0
    9.0776   -0.5500   46.4072 C   0  0  0  0  0  0  0  0  0  0  0  0
   10.6246   -3.4837   47.2387 C   0  0  0  0  0  0  0  0  0  0  0  0
  1  2  2  0
  1  3  1  0
  3  4  2  0
  2  5  1  0
  4  6  1  0
  4  7  1  0
  5  7  2  0
  5  8  1  0
  8  9  2  0
  7 10  1  0
  9 11  1  0
 10 11  2  0
  6 12  1  0
 11 13  1  0
 13 14  1  0
 12 15  2  0
 12 16  1  0
 16 17  2  0
 15 18  1  0
 13 19  2  0
 18 20  1  0
 15 21  1  0
 17 22  1  0
 21 22  2  0
 22 23  1  0
 17 24  1  0
 23 25  1  0
M  END
$$$$
O14757_Pocket2Mol_idx-in-all-generaetd-121
     RDKit          3D

 47 54  0  0  0  0  0  0  0  0999 V2000
    5.3420    0.2589   42.8836 O   0  0  0  0  0  0  0  0  0  0  0  0
    5.1627   -0.7554   43.4753 C   0  0  0  0  0  0  0  0  0  0  0  0
    4.0509   -1.4657   43.4177 N   0  0  0  0  0  0  0  0  0  0  0  0
    5.9969   -1.2317   44.6840 C   0  0  0  0  0  0  0  0  0  0  0  0
    2.9618   -1.1021   42.5918 C   0  0  1  0  0  0  0  0  0  0  0  0
    7.3392   -0.8596   44.8412 C   0  0  0  0  0  0  0  0  0  0  0  0
    1.9754   -2.0820   42.2741 C   0  0  0  0  0  0  0  0  0  0  0  0
    5.5910   -2.4282   45.3439 C   0  0  0  0  0  0  0  0  0  0  0  0
    6.5874   -2.9636   46.1581 C   0  0  0  0  0  0  0  0  0  0  0  0
    4.2763   -3.0680   45.0493 N   0  0  0  0  0  0  0  0  0  0  0  0
    3.6188   -2.5886   44.2024 C   0  0  0  0  0  0  0  0  0  0  0  0
    8.1921   -1.4071   45.7505 C   0  0  0  0  0  0  0  0  0  0  0  0
    1.0154   -1.8839   41.2980 C   0  0  0  0  0  0  0  0  0  0  0  0
    2.5720   -3.3564   43.9063 C   0  0  0  0  0  0  0  0  0  0  0  0
    0.2502   -2.8976   41.0751 C   0  0  0  0  0  0  0  0  0  0  0  0
    6.1761   -4.1775   47.0209 C   0  0  0  0  0  0  0  0  0  0  0  0
    1.7266   -3.1047   43.0115 C   0  0  2  0  0  0  0  0  0  0  0  0
    2.3696   -4.5367   44.7536 N   0  0  0  0  0  0  0  0  0  0  0  0
    1.2264   -5.2346   44.4693 C   0  0  0  0  0  0  0  0  0  0  0  0
    0.7187   -3.8955   42.5465 C   0  0  0  0  0  0  0  0  0  0  0  0
    9.4576   -0.8949   46.0327 N   0  0  0  0  0  0  0  0  0  0  0  0
    0.8625   -6.3901   45.2462 C   0  0  0  0  0  0  0  0  0  0  0  0
    7.6467   -2.5139   46.4892 C   0  0  0  0  0  0  0  0  0  0  0  0
   10.4908   -1.5336   45.8242 C   0  0  0  0  0  0  0  0  0  0  0  0
    0.3057   -4.9299   43.2909 C   0  0  0  0  0  0  0  0  0  0  0  0
   11.5916   -1.4291   46.7436 C   0  0  0  0  0  0  0  0  0  0  0  0
   10.5566   -2.3672   44.8649 O   0  0  0  0  0  0  0  0  0  0  0  0
    2.4730    0.2084   42.8389 O   0  0  0  0  0  0  0  0  0  0  0  0
   11.6027   -2.2081   47.7725 N   0  0  0  0  0  0  0  0  0  0  0  0
   12.6189   -0.5862   46.5415 C   0  0  0  0  0  0  0  0  0  0  0  0
   13.6413   -0.4484   47.4129 C   0  0  0  0  0  0  0  0  0  0  0  0
   10.4764   -3.1097   48.1134 C   0  0  0  0  0  0  0  0  0  0  0  0
    9.5762   -2.4717   49.0753 C   0  0  0  0  0  0  0  0  0  0  0  0
    9.7761   -1.2394   49.5167 C   0  0  0  0  0  0  0  0  0  0  0  0
    8.6397   -3.3252   49.7339 C   0  0  0  0  0  0  0  0  0  0  0  0
    8.9861   -0.7034   50.5819 C   0  0  0  0  0  0  0  0  0  0  0  0
   14.7137    0.5128   47.0925 C   0  0  0  0  0  0  0  0  0  0  0  0
    8.3536   -4.6815   49.2042 C   0  0  0  0  0  0  0  0  0  0  0  0
    7.9034   -2.7594   50.6763 C   0  0  0  0  0  0  0  0  0  0  0  0
    6.9327   -5.0150   49.0248 N   0  0  0  0  0  0  0  0  0  0  0  0
    8.1305   -1.4992   51.1482 C   0  0  0  0  0  0  0  0  0  0  0  0
   14.9704    0.6373   46.0302 O   0  0  0  0  0  0  0  0  0  0  0  0
   13.6361   -1.2781   48.4563 C   0  0  0  0  0  0  0  0  0  0  0  0
   15.1915    1.0970   48.0620 O   0  0  0  0  0  0  0  0  0  0  0  0
   14.7226   -1.2528   49.3732 O   0  0  0  0  0  0  0  0  0  0  0  0
   12.6346   -2.3243   48.7514 C   0  0  0  0  0  0  0  0  0  0  0  0
    6.3452   -3.9801   48.4091 C   0  0  0  0  0  0  0  0  0  0  0  0
  1  2  2  0
  2  3  1  0
  2  4  1  0
  3  5  1  0
  4  6  2  0
  5  7  1  0
  4  8  1  0
  8  9  2  0
  8 10  1  0
  3 11  1  0
 10 11  2  0
  6 12  1  0
  7 13  2  0
 11 14  1  0
 13 15  1  0
  9 16  1  0
 17  7  1  6
 14 17  1  0
 14 18  2  0
 18 19  1  0
 15 20  2  0
 17 20  1  0
 12 21  1  0
 19 22  1  0
  9 23  1  0
 12 23  2  0
 21 24  1  0
 19 25  2  0
 20 25  1  0
 24 26  1  0
 24 27  2  0
  5 28  1  1
 26 29  1  0
 26 30  2  0
 30 31  1  0
 29 32  1  0
 32 33  1  0
 33 34  1  0
 33 35  2  0
 34 36  2  0
 31 37  1  0
 35 38  1  0
 35 39  1  0
 38 40  1  0
 36 41  1  0
 39 41  2  0
 37 42  2  0
 31 43  2  0
 37 44  1  0
 43 45  1  0
 29 46  1  0
 43 46  1  0
 16 47  1  0
 40 47  1  0
M  END
$$$$
O14757_Pocket2Mol_idx-in-all-generaetd-122
     RDKit          3D

 26 30  0  0  0  0  0  0  0  0999 V2000
    4.5156    0.0550   42.9895 N   0  0  0  0  0  0  0  0  0  0  0  0
    3.2960    0.1633   42.4470 C   0  0  0  0  0  0  0  0  0  0  0  0
    2.7621   -1.2305   42.4476 C   0  0  0  0  0  0  0  0  0  0  0  0
    5.2005   -0.8099   43.5858 C   0  0  0  0  0  0  0  0  0  0  0  0
    4.4157   -2.0357   43.6745 C   0  0  0  0  0  0  0  0  0  0  0  0
    3.3964   -2.2069   43.1195 C   0  0  0  0  0  0  0  0  0  0  0  0
    2.6107   -3.4636   43.1542 N   0  0  0  0  0  0  0  0  0  0  0  0
    1.4467   -1.2849   41.8335 C   0  0  0  0  0  0  0  0  0  0  0  0
    5.1851   -3.1348   44.4538 N   0  0  0  0  0  0  0  0  0  0  0  0
    6.4172   -0.8203   44.3346 N   0  0  0  0  0  0  0  0  0  0  0  0
    0.8321   -2.5451   41.8394 C   0  0  0  0  0  0  0  0  0  0  0  0
    1.4134   -3.5528   42.5919 C   0  0  0  0  0  0  0  0  0  0  0  0
    6.3428   -2.7074   45.0536 C   0  0  0  0  0  0  0  0  0  0  0  0
    6.8277   -1.4386   44.9522 C   0  0  0  0  0  0  0  0  0  0  0  0
    8.1428   -1.2695   45.6287 C   0  0  0  0  0  0  0  0  0  0  0  0
    6.7295   -3.7948   46.0360 C   0  0  0  0  0  0  0  0  0  0  0  0
    8.0115   -3.5481   46.6450 C   0  0  0  0  0  0  0  0  0  0  0  0
    8.8073   -0.1733   45.6146 O   0  0  0  0  0  0  0  0  0  0  0  0
    8.6405   -2.2670   46.5404 C   0  0  0  0  0  0  0  0  0  0  0  0
    9.8709   -1.9854   47.0853 O   0  0  0  0  0  0  0  0  0  0  0  0
   10.8299   -2.9834   47.0851 C   0  0  0  0  0  0  0  0  0  0  0  0
   11.6846   -2.7679   46.0008 C   0  0  0  0  0  0  0  0  0  0  0  0
   11.0220   -3.9157   47.8544 C   0  0  0  0  0  0  0  0  0  0  0  0
   12.7976   -3.6166   45.8538 C   0  0  0  0  0  0  0  0  0  0  0  0
   12.1341   -4.8117   47.8130 C   0  0  0  0  0  0  0  0  0  0  0  0
   13.0048   -4.5947   46.7945 C   0  0  0  0  0  0  0  0  0  0  0  0
  1  2  2  0
  2  3  1  0
  1  4  1  0
  4  5  2  0
  3  6  2  0
  5  6  1  0
  6  7  1  0
  3  8  1  0
  5  9  1  0
  4 10  1  0
  8 11  2  0
  7 12  2  0
 11 12  1  0
  9 13  2  0
 10 14  2  0
 13 14  1  0
 14 15  1  0
 13 16  1  0
 16 17  2  0
 15 18  1  0
 15 19  2  0
 17 19  1  0
 19 20  1  0
 20 21  1  0
 21 22  2  0
 21 23  1  0
 22 24  1  0
 23 25  2  0
 24 26  2  0
 25 26  1  0
M  END
$$$$
O14757_Pocket2Mol_idx-in-all-generaetd-123
     RDKit          3D

 44 52  0  0  0  0  0  0  0  0999 V2000
    1.5482   -0.3111   41.9233 C   0  0  0  0  0  0  0  0  0  0  0  0
    2.7284    0.2018   42.1525 N   0  0  0  0  0  0  0  0  0  0  0  0
    3.7893   -0.3016   42.7005 C   0  0  0  0  0  0  0  0  0  0  0  0
    3.3781   -1.7350   43.0000 C   0  0  0  0  0  0  0  0  0  0  0  0
    2.0339   -1.9619   42.6217 C   0  0  0  0  0  0  0  0  0  0  0  0
    5.0090    0.1219   42.9340 N   0  0  0  0  0  0  0  0  0  0  0  0
    4.2895   -2.4979   43.6707 C   0  0  0  0  0  0  0  0  0  0  0  0
    5.8391   -0.6675   43.6343 C   0  0  0  0  0  0  0  0  0  0  0  0
    6.9849   -0.2377   44.0028 N   0  0  0  0  0  0  0  0  0  0  0  0
    4.0426   -3.8794   44.0832 C   0  0  0  0  0  0  0  0  0  0  0  0
    7.6796   -0.8734   44.9326 C   0  0  0  0  0  0  0  0  0  0  0  0
    1.1064   -2.9576   42.4211 C   0  0  0  0  0  0  0  0  0  0  0  0
    5.5298   -1.9496   44.0315 C   0  0  0  0  0  0  0  0  0  0  0  0
    3.8954   -4.1817   45.4718 C   0  0  0  0  0  0  0  0  0  0  0  0
    0.6765   -3.5480   43.4006 C   0  0  1  0  0  0  0  0  0  0  0  0
    0.5804   -3.2191   41.1635 C   0  0  0  0  0  0  0  0  0  0  0  0
    2.8083   -4.8227   45.9203 N   0  0  0  0  0  0  0  0  0  0  0  0
   -0.1574   -4.5754   42.9329 N   0  0  0  0  0  0  0  0  0  0  0  0
    6.5271   -2.5531   44.9677 C   0  0  0  0  0  0  0  0  0  0  0  0
   -0.2272   -4.3703   41.5137 C   0  0  0  0  0  0  0  0  0  0  0  0
    7.5095   -2.0029   45.3993 C   0  0  0  0  0  0  0  0  0  0  0  0
    8.2550   -2.6982   46.3988 C   0  0  0  0  0  0  0  0  0  0  0  0
    8.8975   -0.3029   45.3267 O   0  0  0  0  0  0  0  0  0  0  0  0
    4.8299   -4.4637   46.4212 C   0  0  0  0  0  0  0  0  0  0  0  0
    4.2707   -4.9248   47.6295 N   0  0  0  0  0  0  0  0  0  0  0  0
    3.2045   -5.2092   47.1521 C   0  0  0  0  0  0  0  0  0  0  0  0
    1.4482   -4.6186   45.4134 C   0  0  1  0  0  0  0  0  0  0  0  0
    1.2398   -3.5043   44.6236 O   0  0  0  0  0  0  0  0  0  0  0  0
    6.3317   -3.9297   46.0870 C   0  0  2  0  0  0  0  0  0  0  0  0
    9.5296   -2.5449   46.9776 C   0  0  0  0  0  0  0  0  0  0  0  0
    9.7921   -1.7530   47.9018 O   0  0  0  0  0  0  0  0  0  0  0  0
    7.3972   -3.8130   46.7939 C   0  0  0  0  0  0  0  0  0  0  0  0
    1.2392   -5.7793   44.5610 C   0  0  0  0  0  0  0  0  0  0  0  0
   10.4982   -3.2564   46.4837 N   0  0  0  0  0  0  0  0  0  0  0  0
   10.3664   -4.3024   45.6489 C   0  0  0  0  0  0  0  0  0  0  0  0
   11.8563   -2.7253   46.7001 C   0  0  0  0  0  0  0  0  0  0  0  0
   12.5920   -2.4093   45.4967 C   0  0  0  0  0  0  0  0  0  0  0  0
   10.3017   -5.6302   46.4426 C   0  0  0  0  0  0  0  0  0  0  0  0
   13.9027   -1.9790   45.6656 C   0  0  0  0  0  0  0  0  0  0  0  0
   12.3588   -2.5019   47.9049 C   0  0  0  0  0  0  0  0  0  0  0  0
   14.3482   -1.8556   47.0808 C   0  0  0  0  0  0  0  0  0  0  0  0
   13.6531   -2.0860   48.0662 C   0  0  0  0  0  0  0  0  0  0  0  0
   15.7084   -1.3775   47.1148 O   0  0  0  0  0  0  0  0  0  0  0  0
   16.3445   -0.9854   46.1505 C   0  0  0  0  0  0  0  0  0  0  0  0
  1  2  1  0
  2  3  2  0
  3  4  1  0
  1  5  2  0
  4  5  1  0
  3  6  1  0
  4  7  2  0
  6  8  1  0
  8  9  1  0
  7 10  1  0
  9 11  1  0
  5 12  1  0
  7 13  1  0
  8 13  2  0
 10 14  1  0
 12 15  1  0
 12 16  2  0
 14 17  1  0
 15 18  1  0
 13 19  1  0
 16 20  1  0
 18 20  2  0
 11 21  1  0
 19 21  2  0
 21 22  1  0
 11 23  2  0
 14 24  2  0
 24 25  1  0
 17 26  1  0
 25 26  2  0
 17 27  1  0
 15 28  1  6
 27 28  1  0
 19 29  1  0
 24 29  1  0
 22 30  1  0
 30 31  2  0
 22 32  2  0
 29 32  1  1
 27 33  1  6
 30 34  1  0
 34 35  1  0
 34 36  1  0
 36 37  2  0
 35 38  1  0
 37 39  1  0
 36 40  1  0
 39 41  2  0
 40 42  2  0
 41 42  1  0
 41 43  1  0
 43 44  1  0
M  END
$$$$
O14757_Pocket2Mol_idx-in-all-generaetd-124
     RDKit          3D

 35 39  0  0  0  0  0  0  0  0999 V2000
    4.5156    0.0550   42.9895 N   0  0  0  0  0  0  0  0  0  0  0  0
    5.0618   -0.8645   43.5295 C   0  0  0  0  0  0  0  0  0  0  0  0
    4.4350   -2.0604   43.7783 C   0  0  0  0  0  0  0  0  0  0  0  0
    4.9987   -3.0994   44.5839 C   0  0  0  0  0  0  0  0  0  0  0  0
    3.2714   -1.8664   43.0632 C   0  0  0  0  0  0  0  0  0  0  0  0
    6.4064   -0.5942   44.3204 N   0  0  0  0  0  0  0  0  0  0  0  0
    4.3422   -4.3256   44.7203 C   0  0  0  0  0  0  0  0  0  0  0  0
    2.1845   -2.6668   42.8270 N   0  0  0  0  0  0  0  0  0  0  0  0
    6.7872   -1.6740   45.1626 C   0  0  0  0  0  0  0  0  0  0  0  0
    3.3364   -0.5682   42.5216 C   0  0  0  0  0  0  0  0  0  0  0  0
    6.0794   -2.8367   45.2418 C   0  0  0  0  0  0  0  0  0  0  0  0
    2.2080   -0.0040   41.8105 N   0  0  0  0  0  0  0  0  0  0  0  0
    3.5122   -4.5717   45.8882 C   0  0  0  0  0  0  0  0  0  0  0  0
    8.0343   -1.3439   45.8176 C   0  0  0  0  0  0  0  0  0  0  0  0
    8.5676   -2.2678   46.6666 C   0  0  0  0  0  0  0  0  0  0  0  0
    1.2034   -0.9715   41.7505 C   0  0  0  0  0  0  0  0  0  0  0  0
    9.7543   -2.0263   47.4257 C   0  0  1  0  0  0  0  0  0  0  0  0
   10.9435   -2.3462   46.8726 C   0  0  0  0  0  0  0  0  0  0  0  0
    2.0759   -4.8825   45.5393 N   0  0  0  0  0  0  0  0  0  0  0  0
    1.2148   -2.2334   42.1576 C   0  0  0  0  0  0  0  0  0  0  0  0
    9.6982   -0.8148   48.0427 O   0  0  0  0  0  0  0  0  0  0  0  0
   11.0881   -3.3882   46.0717 O   0  0  0  0  0  0  0  0  0  0  0  0
    7.6623   -3.4449   46.9706 C   0  0  0  0  0  0  0  0  0  0  0  0
    6.5323   -3.6370   46.2770 C   0  0  0  0  0  0  0  0  0  0  0  0
    0.0607   -3.1280   41.9172 C   0  0  0  0  0  0  0  0  0  0  0  0
   12.3311   -3.5802   45.4279 C   0  0  0  0  0  0  0  0  0  0  0  0
   11.7186   -1.3261   46.7020 C   0  0  0  0  0  0  0  0  0  0  0  0
   12.1074   -0.6139   47.6871 O   0  0  0  0  0  0  0  0  0  0  0  0
   -0.3863   -3.3709   40.6959 O   0  0  0  0  0  0  0  0  0  0  0  0
    1.0768   -4.0688   45.7368 C   0  0  0  0  0  0  0  0  0  0  0  0
    0.2411   -3.9036   44.8688 N   0  0  0  0  0  0  0  0  0  0  0  0
   -0.6544   -3.6460   42.8525 N   0  0  0  0  0  0  0  0  0  0  0  0
    0.2536   -4.3583   43.6456 C   0  0  2  0  0  0  0  0  0  0  0  0
   -0.1497   -5.7827   43.8017 O   0  0  0  0  0  0  0  0  0  0  0  0
    0.6403   -3.7364   47.0994 C   0  0  0  0  0  0  0  0  0  0  0  0
  1  2  2  0
  2  3  1  0
  3  4  1  0
  3  5  2  0
  2  6  1  0
  4  7  1  0
  5  8  1  0
  6  9  2  0
  1 10  1  0
  5 10  1  0
  4 11  2  0
  9 11  1  0
 10 12  2  0
  7 13  1  0
  9 14  1  0
 14 15  2  0
 12 16  1  0
 15 17  1  0
 17 18  1  0
 13 19  1  0
  8 20  2  0
 16 20  1  0
 17 21  1  6
 18 22  1  0
 15 23  1  0
 11 24  1  0
 23 24  2  0
 20 25  1  0
 22 26  1  0
 18 27  2  3
 27 28  1  0
 25 29  2  0
 19 30  1  0
 30 31  2  3
 25 32  1  0
 31 33  1  0
 32 33  1  0
 33 34  1  1
 30 35  1  0
M  END
$$$$
O14757_Pocket2Mol_idx-in-all-generaetd-125
     RDKit          3D

 42 48  0  0  0  0  0  0  0  0999 V2000
    1.5482   -0.3111   41.9233 C   0  0  0  0  0  0  0  0  0  0  0  0
    2.7284    0.2018   42.1525 N   0  0  0  0  0  0  0  0  0  0  0  0
    3.7893   -0.3016   42.7005 C   0  0  0  0  0  0  0  0  0  0  0  0
    3.3781   -1.7350   43.0000 C   0  0  0  0  0  0  0  0  0  0  0  0
    2.0339   -1.9619   42.6217 C   0  0  0  0  0  0  0  0  0  0  0  0
    4.1166   -2.4997   43.8458 C   0  0  0  0  0  0  0  0  0  0  0  0
    1.1731   -3.0051   42.5773 C   0  0  0  0  0  0  0  0  0  0  0  0
    0.4701   -3.2344   41.4901 C   0  0  0  0  0  0  0  0  0  0  0  0
    5.3799   -1.7814   44.2691 C   0  0  0  0  0  0  0  0  0  0  0  0
    5.0159   -0.0180   43.1201 N   0  0  0  0  0  0  0  0  0  0  0  0
    5.7693   -0.6937   43.8418 C   0  0  0  0  0  0  0  0  0  0  0  0
    0.8078   -3.6166   43.6782 C   0  0  0  0  0  0  0  0  0  0  0  0
    0.0663   -4.7011   43.7415 N   0  0  0  0  0  0  0  0  0  0  0  0
    6.2223   -2.6843   45.1565 C   0  0  0  0  0  0  0  0  0  0  0  0
    6.9599   -0.2351   44.2608 N   0  0  0  0  0  0  0  0  0  0  0  0
    5.9065   -3.9037   45.7499 N   0  0  0  0  0  0  0  0  0  0  0  0
   -0.5459   -5.1185   42.5870 C   0  0  0  0  0  0  0  0  0  0  0  0
    5.7480   -4.0340   46.9810 C   0  0  0  0  0  0  0  0  0  0  0  0
    7.4448   -1.8511   45.4198 C   0  0  0  0  0  0  0  0  0  0  0  0
    7.7572   -0.7827   45.0128 C   0  0  0  0  0  0  0  0  0  0  0  0
    8.4076   -2.7217   46.4541 C   0  0  0  0  0  0  0  0  0  0  0  0
    9.3167   -2.0988   47.1049 N   0  0  0  0  0  0  0  0  0  0  0  0
   -0.4719   -4.3893   41.5406 C   0  0  0  0  0  0  0  0  0  0  0  0
    8.3667   -4.0284   46.5743 N   0  0  0  0  0  0  0  0  0  0  0  0
   10.1532   -2.5726   47.9567 C   0  0  0  0  0  0  0  0  0  0  0  0
   11.0726   -1.7892   48.6998 C   0  0  0  0  0  0  0  0  0  0  0  0
   10.4886   -0.9372   49.4584 C   0  0  0  0  0  0  0  0  0  0  0  0
    8.9772   -4.5617   47.6013 C   0  0  0  0  0  0  0  0  0  0  0  0
    9.9765   -3.9922   48.2636 C   0  0  0  0  0  0  0  0  0  0  0  0
   11.3393   -0.1462   50.3539 C   0  0  0  0  0  0  0  0  0  0  0  0
   12.4892   -1.8956   48.4941 C   0  0  0  0  0  0  0  0  0  0  0  0
   12.8930   -0.3809   50.0834 C   0  0  0  0  0  0  0  0  0  0  0  0
   12.9994   -2.9244   47.4139 C   0  0  0  0  0  0  0  0  0  0  0  0
   13.2804   -1.1960   49.2234 C   0  0  0  0  0  0  0  0  0  0  0  0
   13.2158   -2.3419   46.2078 C   0  0  0  0  0  0  0  0  0  0  0  0
   12.1688   -2.0557   45.4064 C   0  0  0  0  0  0  0  0  0  0  0  0
   12.3247   -1.4555   44.0967 C   0  0  0  0  0  0  0  0  0  0  0  0
   14.4741   -1.8909   45.6911 C   0  0  0  0  0  0  0  0  0  0  0  0
   13.5617   -1.1171   43.7088 C   0  0  0  0  0  0  0  0  0  0  0  0
   13.7141   -0.5004   42.4850 F   0  0  0  0  0  0  0  0  0  0  0  0
   15.6235   -2.1809   46.5513 F   0  0  0  0  0  0  0  0  0  0  0  0
   14.6638   -1.3144   44.5180 C   0  0  0  0  0  0  0  0  0  0  0  0
  1  2  1  0
  2  3  2  0
  3  4  1  0
  1  5  2  0
  4  5  1  0
  4  6  2  0
  5  7  1  0
  7  8  2  0
  6  9  1  0
  3 10  1  0
  9 11  2  0
 10 11  1  0
  7 12  1  0
 12 13  2  0
  9 14  1  0
 11 15  1  0
 14 16  1  0
 13 17  1  0
 16 18  1  0
 14 19  2  0
 15 20  2  0
 19 20  1  0
 19 21  1  0
 21 22  2  0
  8 23  1  0
 17 23  2  0
 21 24  1  0
 22 25  1  0
 25 26  1  0
 26 27  2  0
 24 28  2  0
 25 29  2  0
 28 29  1  0
 27 30  1  0
 26 31  1  0
 30 32  2  0
 31 33  1  0
 31 34  2  0
 32 34  1  0
 33 35  1  0
 35 36  2  0
 36 37  1  0
 35 38  1  0
 37 39  2  0
 39 40  1  0
 38 41  1  0
 38 42  2  0
 39 42  1  0
M  END
$$$$
O14757_Pocket2Mol_idx-in-all-generaetd-126
     RDKit          3D

 35 39  0  0  0  0  0  0  0  0999 V2000
    4.5156    0.0550   42.9895 N   0  0  0  0  0  0  0  0  0  0  0  0
    5.0618   -0.8645   43.5295 C   0  0  0  0  0  0  0  0  0  0  0  0
    4.4350   -2.0604   43.7783 C   0  0  0  0  0  0  0  0  0  0  0  0
    4.9987   -3.0994   44.5839 C   0  0  0  0  0  0  0  0  0  0  0  0
    3.2714   -1.8664   43.0632 C   0  0  0  0  0  0  0  0  0  0  0  0
    6.4064   -0.5942   44.3204 N   0  0  0  0  0  0  0  0  0  0  0  0
    4.3422   -4.3256   44.7203 C   0  0  0  0  0  0  0  0  0  0  0  0
    2.1845   -2.6668   42.8270 N   0  0  0  0  0  0  0  0  0  0  0  0
    6.7872   -1.6740   45.1626 C   0  0  0  0  0  0  0  0  0  0  0  0
    3.3364   -0.5682   42.5216 C   0  0  0  0  0  0  0  0  0  0  0  0
    6.0794   -2.8367   45.2418 C   0  0  0  0  0  0  0  0  0  0  0  0
    2.2080   -0.0040   41.8105 N   0  0  0  0  0  0  0  0  0  0  0  0
    3.5122   -4.5717   45.8882 C   0  0  0  0  0  0  0  0  0  0  0  0
    8.0343   -1.3439   45.8176 C   0  0  0  0  0  0  0  0  0  0  0  0
    8.5676   -2.2678   46.6666 C   0  0  0  0  0  0  0  0  0  0  0  0
    1.2034   -0.9715   41.7505 C   0  0  0  0  0  0  0  0  0  0  0  0
    9.7543   -2.0263   47.4257 C   0  0  1  0  0  0  0  0  0  0  0  0
   10.9435   -2.3462   46.8726 C   0  0  0  0  0  0  0  0  0  0  0  0
    2.0759   -4.8825   45.5393 N   0  0  0  0  0  0  0  0  0  0  0  0
    1.2148   -2.2334   42.1576 C   0  0  0  0  0  0  0  0  0  0  0  0
    9.6982   -0.8148   48.0427 O   0  0  0  0  0  0  0  0  0  0  0  0
   11.0881   -3.3882   46.0717 O   0  0  0  0  0  0  0  0  0  0  0  0
    7.6623   -3.4449   46.9706 C   0  0  0  0  0  0  0  0  0  0  0  0
    6.5323   -3.6370   46.2770 C   0  0  0  0  0  0  0  0  0  0  0  0
    0.0607   -3.1280   41.9172 C   0  0  0  0  0  0  0  0  0  0  0  0
   12.3311   -3.5802   45.4279 C   0  0  0  0  0  0  0  0  0  0  0  0
   11.7186   -1.3261   46.7020 C   0  0  0  0  0  0  0  0  0  0  0  0
   12.1074   -0.6139   47.6871 O   0  0  0  0  0  0  0  0  0  0  0  0
   -0.3863   -3.3709   40.6959 O   0  0  0  0  0  0  0  0  0  0  0  0
    1.0768   -4.0688   45.7368 C   0  0  0  0  0  0  0  0  0  0  0  0
    0.2411   -3.9036   44.8688 N   0  0  0  0  0  0  0  0  0  0  0  0
   -0.6544   -3.6460   42.8525 N   0  0  0  0  0  0  0  0  0  0  0  0
    0.2536   -4.3583   43.6456 C   0  0  0  0  0  0  0  0  0  0  0  0
    0.7582   -5.4578   43.4462 O   0  0  0  0  0  0  0  0  0  0  0  0
    0.7414   -3.6468   47.0320 C   0  0  0  0  0  0  0  0  0  0  0  0
  1  2  2  0
  2  3  1  0
  3  4  1  0
  3  5  2  0
  2  6  1  0
  4  7  1  0
  5  8  1  0
  6  9  2  0
  1 10  1  0
  5 10  1  0
  4 11  2  0
  9 11  1  0
 10 12  2  0
  7 13  1  0
  9 14  1  0
 14 15  2  0
 12 16  1  0
 15 17  1  0
 17 18  1  0
 13 19  1  0
  8 20  2  0
 16 20  1  0
 17 21  1  6
 18 22  1  0
 15 23  1  0
 11 24  1  0
 23 24  2  0
 20 25  1  0
 22 26  1  0
 18 27  2  3
 27 28  1  0
 25 29  2  0
 19 30  1  0
 30 31  2  3
 25 32  1  0
 31 33  1  0
 32 33  1  0
 33 34  2  0
 30 35  1  0
M  END
$$$$
O14757_Pocket2Mol_idx-in-all-generaetd-127
     RDKit          3D

 34 39  0  0  0  0  0  0  0  0999 V2000
    5.3420    0.2589   42.8836 O   0  0  0  0  0  0  0  0  0  0  0  0
    5.1627   -0.7554   43.4753 C   0  0  0  0  0  0  0  0  0  0  0  0
    4.0509   -1.4657   43.4177 N   0  0  0  0  0  0  0  0  0  0  0  0
    5.9969   -1.2317   44.6840 C   0  0  0  0  0  0  0  0  0  0  0  0
    2.9618   -1.1021   42.5918 C   0  0  1  0  0  0  0  0  0  0  0  0
    7.3392   -0.8596   44.8412 C   0  0  0  0  0  0  0  0  0  0  0  0
    1.9754   -2.0820   42.2741 C   0  0  0  0  0  0  0  0  0  0  0  0
    5.5910   -2.4282   45.3439 C   0  0  0  0  0  0  0  0  0  0  0  0
    6.5874   -2.9636   46.1581 C   0  0  0  0  0  0  0  0  0  0  0  0
    4.2763   -3.0680   45.0493 N   0  0  0  0  0  0  0  0  0  0  0  0
    3.6188   -2.5886   44.2024 C   0  0  0  0  0  0  0  0  0  0  0  0
    8.1921   -1.4071   45.7505 C   0  0  0  0  0  0  0  0  0  0  0  0
    1.0154   -1.8839   41.2980 C   0  0  0  0  0  0  0  0  0  0  0  0
    2.5720   -3.3564   43.9063 C   0  0  0  0  0  0  0  0  0  0  0  0
    0.2502   -2.8976   41.0751 C   0  0  0  0  0  0  0  0  0  0  0  0
    6.1761   -4.1775   47.0209 C   0  0  0  0  0  0  0  0  0  0  0  0
    1.7266   -3.1047   43.0115 C   0  0  2  0  0  0  0  0  0  0  0  0
    2.3696   -4.5367   44.7536 N   0  0  0  0  0  0  0  0  0  0  0  0
    1.2264   -5.2346   44.4693 C   0  0  0  0  0  0  0  0  0  0  0  0
    0.7187   -3.8955   42.5465 C   0  0  0  0  0  0  0  0  0  0  0  0
    9.4576   -0.8949   46.0327 N   0  0  0  0  0  0  0  0  0  0  0  0
    0.8625   -6.3901   45.2462 C   0  0  0  0  0  0  0  0  0  0  0  0
    7.6467   -2.5139   46.4892 C   0  0  0  0  0  0  0  0  0  0  0  0
   10.4908   -1.5336   45.8242 C   0  0  0  0  0  0  0  0  0  0  0  0
    0.3057   -4.9299   43.2909 C   0  0  0  0  0  0  0  0  0  0  0  0
   11.5916   -1.4291   46.7436 C   0  0  0  0  0  0  0  0  0  0  0  0
   10.5566   -2.3672   44.8649 O   0  0  0  0  0  0  0  0  0  0  0  0
   12.8421   -1.9355   46.2823 C   0  0  0  0  0  0  0  0  0  0  0  0
   13.4833   -2.8582   46.9841 C   0  0  0  0  0  0  0  0  0  0  0  0
   11.4002   -1.1447   48.0540 C   0  0  0  0  0  0  0  0  0  0  0  0
   10.2867   -0.4569   48.4999 O   0  0  0  0  0  0  0  0  0  0  0  0
   12.3327   -1.4798   48.9564 C   0  0  0  0  0  0  0  0  0  0  0  0
   13.4481   -2.3350   48.4962 C   0  0  0  0  0  0  0  0  0  0  0  0
    2.4583    0.2113   42.8557 O   0  0  0  0  0  0  0  0  0  0  0  0
  1  2  2  0
  2  3  1  0
  2  4  1  0
  3  5  1  0
  4  6  2  0
  5  7  1  0
  4  8  1  0
  8  9  2  0
  8 10  1  0
  3 11  1  0
 10 11  2  0
  6 12  1  0
  7 13  2  0
 11 14  1  0
 13 15  1  0
  9 16  1  0
 17  7  1  6
 14 17  1  0
 14 18  2  0
 18 19  1  0
 15 20  2  0
 17 20  1  0
 12 21  1  0
 19 22  1  0
  9 23  1  0
 12 23  2  0
 21 24  1  0
 19 25  2  0
 20 25  1  0
 24 26  1  0
 24 27  2  0
 26 28  2  0
 28 29  1  0
 26 30  1  0
 30 31  1  0
 30 32  2  0
 29 33  2  0
 32 33  1  0
  5 34  1  1
M  END
$$$$
O14757_Pocket2Mol_idx-in-all-generaetd-128
     RDKit          3D

 39 46  0  0  0  0  0  0  0  0999 V2000
    4.8173    0.2791   42.6993 N   0  0  0  0  0  0  0  0  0  0  0  0
    5.3297   -0.7477   43.3688 C   0  0  0  0  0  0  0  0  0  0  0  0
    3.4732   -0.2235   42.4530 C   0  0  0  0  0  0  0  0  0  0  0  0
    4.4984   -1.7876   43.6214 C   0  0  0  0  0  0  0  0  0  0  0  0
    3.3438   -1.5190   42.9379 C   0  0  0  0  0  0  0  0  0  0  0  0
    2.1381   -2.3401   42.8254 C   0  0  0  0  0  0  0  0  0  0  0  0
    2.3894    0.3572   41.9843 N   0  0  0  0  0  0  0  0  0  0  0  0
    4.9180   -3.0430   44.3829 C   0  0  0  0  0  0  0  0  0  0  0  0
    5.9444   -2.9314   45.3934 C   0  0  0  0  0  0  0  0  0  0  0  0
    4.2808   -4.1329   44.3252 C   0  0  0  0  0  0  0  0  0  0  0  0
    3.1588   -4.4221   43.4852 O   0  0  0  0  0  0  0  0  0  0  0  0
    4.5704   -5.2518   45.1995 C   0  0  0  0  0  0  0  0  0  0  0  0
    1.9853   -3.6792   43.3495 C   0  0  0  0  0  0  0  0  0  0  0  0
    0.9181   -4.3294   43.4638 C   0  0  0  0  0  0  0  0  0  0  0  0
    6.7403   -1.6226   45.5272 C   0  0  2  0  0  0  0  0  0  0  0  0
    0.9752   -1.7845   42.3366 C   0  0  0  0  0  0  0  0  0  0  0  0
    6.2516   -3.7287   46.2722 C   0  0  0  0  0  0  0  0  0  0  0  0
   -0.2404   -2.4179   42.2529 C   0  0  0  0  0  0  0  0  0  0  0  0
   -1.3835   -1.8904   41.6559 N   0  0  0  0  0  0  0  0  0  0  0  0
    3.8706   -6.4216   45.1394 O   0  0  0  0  0  0  0  0  0  0  0  0
    0.9456   -0.2789   41.7649 C   0  0  0  0  0  0  0  0  0  0  0  0
   -0.2678   -3.6969   42.7575 C   0  0  0  0  0  0  0  0  0  0  0  0
    6.3913   -0.7000   44.3807 N   0  0  0  0  0  0  0  0  0  0  0  0
    7.9391   -1.5867   46.0069 C   0  0  0  0  0  0  0  0  0  0  0  0
    7.1969   -3.5621   47.3287 C   0  0  0  0  0  0  0  0  0  0  0  0
    5.4958   -5.0534   46.2483 C   0  0  0  0  0  0  0  0  0  0  0  0
    7.4872   -4.5338   48.2539 O   0  0  0  0  0  0  0  0  0  0  0  0
    8.1281   -2.5304   47.0986 C   0  0  1  0  0  0  0  0  0  0  0  0
    8.7872   -0.5908   45.9403 O   0  0  0  0  0  0  0  0  0  0  0  0
    9.4892   -2.5717   47.7347 C   0  0  0  0  0  0  0  0  0  0  0  0
   10.5268   -2.9441   46.9599 C   0  0  0  0  0  0  0  0  0  0  0  0
   11.4734   -2.0640   46.5154 C   0  0  0  0  0  0  0  0  0  0  0  0
   12.3043   -2.3141   45.4520 C   0  0  0  0  0  0  0  0  0  0  0  0
   10.4488   -4.0060   46.1216 C   0  0  0  0  0  0  0  0  0  0  0  0
   13.4187   -1.3183   45.2086 C   0  0  0  0  0  0  0  0  0  0  0  0
   11.3491   -4.4534   45.2405 C   0  0  0  0  0  0  0  0  0  0  0  0
   12.3300   -3.5466   44.9722 C   0  0  0  0  0  0  0  0  0  0  0  0
   13.8636   -0.6088   46.0591 O   0  0  0  0  0  0  0  0  0  0  0  0
   13.5755   -1.0354   43.9751 O   0  0  0  0  0  0  0  0  0  0  0  0
  1  2  2  0
  1  3  1  0
  2  4  1  0
  3  5  1  0
  4  5  2  0
  5  6  1  0
  3  7  2  0
  4  8  1  0
  8  9  1  0
  8 10  2  0
 10 11  1  0
 10 12  1  0
  6 13  1  0
 11 13  1  0
 13 14  2  0
  9 15  1  0
  6 16  2  0
  9 17  2  0
 16 18  1  0
 18 19  1  0
 12 20  1  0
  7 21  1  0
 16 21  1  0
 14 22  1  0
 18 22  2  0
  2 23  1  0
 15 23  1  6
 15 24  1  0
 17 25  1  0
 12 26  2  0
 17 26  1  0
 25 27  2  0
 24 28  1  0
 25 28  1  0
 24 29  2  0
 28 30  1  6
 30 31  1  0
 31 32  2  0
 32 33  1  0
 31 34  1  0
 33 35  1  0
 34 36  2  0
 33 37  2  0
 36 37  1  0
 35 38  2  0
 35 39  1  0
M  END
$$$$
O14757_Pocket2Mol_idx-in-all-generaetd-129
     RDKit          3D

 40 47  0  0  0  0  0  0  0  0999 V2000
    1.5482   -0.3111   41.9233 C   0  0  0  0  0  0  0  0  0  0  0  0
    2.7284    0.2018   42.1525 N   0  0  0  0  0  0  0  0  0  0  0  0
    3.7893   -0.3016   42.7005 C   0  0  0  0  0  0  0  0  0  0  0  0
    3.3781   -1.7350   43.0000 C   0  0  0  0  0  0  0  0  0  0  0  0
    2.0339   -1.9619   42.6217 C   0  0  0  0  0  0  0  0  0  0  0  0
    4.1166   -2.4997   43.8458 C   0  0  0  0  0  0  0  0  0  0  0  0
    1.1731   -3.0051   42.5773 C   0  0  0  0  0  0  0  0  0  0  0  0
    0.4701   -3.2344   41.4901 C   0  0  0  0  0  0  0  0  0  0  0  0
    5.3799   -1.7814   44.2691 C   0  0  0  0  0  0  0  0  0  0  0  0
    5.0159   -0.0180   43.1201 N   0  0  0  0  0  0  0  0  0  0  0  0
    5.7693   -0.6937   43.8418 C   0  0  0  0  0  0  0  0  0  0  0  0
    0.8078   -3.6166   43.6782 C   0  0  0  0  0  0  0  0  0  0  0  0
    0.0663   -4.7011   43.7415 N   0  0  0  0  0  0  0  0  0  0  0  0
    6.2223   -2.6843   45.1565 C   0  0  0  0  0  0  0  0  0  0  0  0
    6.9599   -0.2351   44.2608 N   0  0  0  0  0  0  0  0  0  0  0  0
    5.9065   -3.9037   45.7499 N   0  0  0  0  0  0  0  0  0  0  0  0
   -0.5459   -5.1185   42.5870 C   0  0  0  0  0  0  0  0  0  0  0  0
    5.7480   -4.0340   46.9810 C   0  0  0  0  0  0  0  0  0  0  0  0
    7.4448   -1.8511   45.4198 C   0  0  0  0  0  0  0  0  0  0  0  0
    7.7572   -0.7827   45.0128 C   0  0  0  0  0  0  0  0  0  0  0  0
    8.4076   -2.7217   46.4541 C   0  0  0  0  0  0  0  0  0  0  0  0
    9.3167   -2.0988   47.1049 N   0  0  0  0  0  0  0  0  0  0  0  0
   -0.4719   -4.3893   41.5406 C   0  0  0  0  0  0  0  0  0  0  0  0
    8.3667   -4.0284   46.5743 N   0  0  0  0  0  0  0  0  0  0  0  0
    9.5309   -4.3147   47.3094 C   0  0  0  0  0  0  0  0  0  0  0  0
    5.3113   -3.3789   47.8005 O   0  0  0  0  0  0  0  0  0  0  0  0
    9.9022   -5.6301   47.7684 C   0  0  0  0  0  0  0  0  0  0  0  0
    5.4470   -5.5868   47.2096 C   0  0  0  0  0  0  0  0  0  0  0  0
   11.2254   -5.8679   48.0402 C   0  0  0  0  0  0  0  0  0  0  0  0
    8.9736   -6.6532   47.8548 C   0  0  0  0  0  0  0  0  0  0  0  0
   10.0616   -3.0670   47.6360 C   0  0  0  0  0  0  0  0  0  0  0  0
    7.5566   -6.3564   47.5477 N   0  0  0  0  0  0  0  0  0  0  0  0
    6.4157   -6.1721   48.0913 C   0  0  0  0  0  0  0  0  0  0  0  0
   12.3275   -4.8510   47.9324 C   0  0  0  0  0  0  0  0  0  0  0  0
    9.3494   -7.8378   48.4266 C   0  0  0  0  0  0  0  0  0  0  0  0
   11.2226   -2.8389   48.5368 C   0  0  0  0  0  0  0  0  0  0  0  0
   12.0874   -3.8095   48.8377 N   0  0  0  0  0  0  0  0  0  0  0  0
   11.5658   -7.0862   48.3351 C   0  0  0  0  0  0  0  0  0  0  0  0
   11.1271   -1.6403   49.2140 O   0  0  0  0  0  0  0  0  0  0  0  0
   10.6485   -8.0324   48.6832 C   0  0  0  0  0  0  0  0  0  0  0  0
  1  2  1  0
  2  3  2  0
  3  4  1  0
  1  5  2  0
  4  5  1  0
  4  6  2  0
  5  7  1  0
  7  8  2  0
  6  9  1  0
  3 10  1  0
  9 11  2  0
 10 11  1  0
  7 12  1  0
 12 13  2  0
  9 14  1  0
 11 15  1  0
 14 16  1  0
 13 17  1  0
 16 18  1  0
 14 19  2  0
 15 20  2  0
 19 20  1  0
 19 21  1  0
 21 22  2  0
  8 23  1  0
 17 23  2  0
 21 24  1  0
 24 25  1  0
 18 26  2  0
 25 27  1  0
 18 28  1  0
 27 29  2  0
 27 30  1  0
 22 31  1  0
 25 31  2  0
 30 32  1  0
 28 33  1  0
 32 33  1  0
 29 34  1  0
 30 35  2  0
 31 36  1  0
 34 37  1  0
 36 37  1  0
 29 38  1  0
 36 39  2  0
 35 40  1  0
 38 40  2  0
M  END
$$$$
O14757_Pocket2Mol_idx-in-all-generaetd-130
     RDKit          3D

 37 43  0  0  0  0  0  0  0  0999 V2000
    4.5156    0.0550   42.9895 N   0  0  0  0  0  0  0  0  0  0  0  0
    5.0618   -0.8645   43.5295 C   0  0  0  0  0  0  0  0  0  0  0  0
    4.4350   -2.0604   43.7783 C   0  0  0  0  0  0  0  0  0  0  0  0
    4.9987   -3.0994   44.5839 C   0  0  0  0  0  0  0  0  0  0  0  0
    3.2714   -1.8664   43.0632 C   0  0  0  0  0  0  0  0  0  0  0  0
    6.4064   -0.5942   44.3204 N   0  0  0  0  0  0  0  0  0  0  0  0
    4.3422   -4.3256   44.7203 C   0  0  0  0  0  0  0  0  0  0  0  0
    2.1845   -2.6668   42.8270 N   0  0  0  0  0  0  0  0  0  0  0  0
    3.3305   -0.5395   42.5465 N   0  0  0  0  0  0  0  0  0  0  0  0
    1.9502   -3.8972   43.4076 C   0  0  0  0  0  0  0  0  0  0  0  0
    2.7156   -4.1184   44.6954 N   0  0  0  0  0  0  0  0  0  0  0  0
    6.8581   -1.5862   45.1101 C   0  0  0  0  0  0  0  0  0  0  0  0
    6.1801   -2.8430   45.2383 C   0  0  0  0  0  0  0  0  0  0  0  0
    2.1454   -5.1901   45.5771 C   0  0  0  0  0  0  0  0  0  0  0  0
    8.0137   -1.3946   45.8526 C   0  0  0  0  0  0  0  0  0  0  0  0
    0.9733   -4.5725   43.2066 O   0  0  0  0  0  0  0  0  0  0  0  0
    2.2437    0.0035   41.8733 C   0  0  0  0  0  0  0  0  0  0  0  0
    1.3210   -2.2077   41.7009 C   0  0  0  0  0  0  0  0  0  0  0  0
    8.6047   -2.2876   46.6923 C   0  0  0  0  0  0  0  0  0  0  0  0
    7.9141   -3.5157   46.8869 C   0  0  0  0  0  0  0  0  0  0  0  0
    1.0501   -0.8658   41.6612 C   0  0  0  0  0  0  0  0  0  0  0  0
    6.7278   -3.7718   46.2525 C   0  0  0  0  0  0  0  0  0  0  0  0
    9.8280   -2.0492   47.3361 C   0  0  0  0  0  0  0  0  0  0  0  0
    9.8262   -1.5735   48.5432 C   0  0  0  0  0  0  0  0  0  0  0  0
   11.0745   -2.0905   46.6735 C   0  0  0  0  0  0  0  0  0  0  0  0
   11.1189   -2.5101   45.2315 C   0  0  0  0  0  0  0  0  0  0  0  0
   12.2489   -1.7755   47.2629 C   0  0  0  0  0  0  0  0  0  0  0  0
   11.2018   -3.6539   44.9133 O   0  0  0  0  0  0  0  0  0  0  0  0
   11.2916   -1.6083   44.2949 O   0  0  0  0  0  0  0  0  0  0  0  0
   13.5104   -1.9608   46.5468 C   0  0  0  0  0  0  0  0  0  0  0  0
   14.0872   -0.7790   46.1049 C   0  0  0  0  0  0  0  0  0  0  0  0
   11.0100   -1.3236   49.2625 C   0  0  0  0  0  0  0  0  0  0  0  0
   12.2124   -1.4367   48.6485 C   0  0  0  0  0  0  0  0  0  0  0  0
   14.9705   -0.7736   45.1682 C   0  0  0  0  0  0  0  0  0  0  0  0
   15.4064   -2.0873   44.8825 C   0  0  0  0  0  0  0  0  0  0  0  0
   14.0108   -3.1299   46.3520 C   0  0  0  0  0  0  0  0  0  0  0  0
   15.1574   -3.1135   45.5314 C   0  0  0  0  0  0  0  0  0  0  0  0
  1  2  2  0
  2  3  1  0
  3  4  1  0
  3  5  2  0
  2  6  1  0
  4  7  1  0
  5  8  1  0
  1  9  1  0
  5  9  1  0
  8 10  1  0
  7 11  1  0
 10 11  1  0
  6 12  2  0
  4 13  2  0
 12 13  1  0
 11 14  1  0
 12 15  1  0
 10 16  2  0
  9 17  1  0
  8 18  1  0
 15 19  2  0
 19 20  1  0
 17 21  1  0
 18 21  1  0
 13 22  1  0
 20 22  2  0
 19 23  1  0
 23 24  2  0
 23 25  1  0
 25 26  1  0
 25 27  2  0
 26 28  1  0
 26 29  2  0
 27 30  1  0
 30 31  2  0
 24 32  1  0
 27 33  1  0
 32 33  2  0
 31 34  1  0
 34 35  2  0
 30 36  1  0
 35 37  1  0
 36 37  2  0
M  END
$$$$
O14757_Pocket2Mol_idx-in-all-generaetd-131
     RDKit          3D

 33 39  0  0  0  0  0  0  0  0999 V2000
    4.5156    0.0550   42.9895 N   0  0  0  0  0  0  0  0  0  0  0  0
    5.0618   -0.8645   43.5295 C   0  0  0  0  0  0  0  0  0  0  0  0
    4.4350   -2.0604   43.7783 C   0  0  0  0  0  0  0  0  0  0  0  0
    4.9987   -3.0994   44.5839 C   0  0  0  0  0  0  0  0  0  0  0  0
    3.2714   -1.8664   43.0632 C   0  0  0  0  0  0  0  0  0  0  0  0
    6.4064   -0.5942   44.3204 N   0  0  0  0  0  0  0  0  0  0  0  0
    4.3422   -4.3256   44.7203 C   0  0  0  0  0  0  0  0  0  0  0  0
    2.1845   -2.6668   42.8270 N   0  0  0  0  0  0  0  0  0  0  0  0
    3.3305   -0.5395   42.5465 N   0  0  0  0  0  0  0  0  0  0  0  0
    1.9502   -3.8972   43.4076 C   0  0  0  0  0  0  0  0  0  0  0  0
    2.7156   -4.1184   44.6954 N   0  0  0  0  0  0  0  0  0  0  0  0
    6.8581   -1.5862   45.1101 C   0  0  0  0  0  0  0  0  0  0  0  0
    6.1801   -2.8430   45.2383 C   0  0  0  0  0  0  0  0  0  0  0  0
    2.1454   -5.1901   45.5771 C   0  0  0  0  0  0  0  0  0  0  0  0
    8.0137   -1.3946   45.8526 C   0  0  0  0  0  0  0  0  0  0  0  0
    0.9733   -4.5725   43.2066 O   0  0  0  0  0  0  0  0  0  0  0  0
    2.2437    0.0035   41.8733 C   0  0  0  0  0  0  0  0  0  0  0  0
    1.3210   -2.2077   41.7009 C   0  0  0  0  0  0  0  0  0  0  0  0
    8.6047   -2.2876   46.6923 C   0  0  0  0  0  0  0  0  0  0  0  0
    7.9141   -3.5157   46.8869 C   0  0  0  0  0  0  0  0  0  0  0  0
    1.0501   -0.8658   41.6612 C   0  0  0  0  0  0  0  0  0  0  0  0
    6.7278   -3.7718   46.2525 C   0  0  0  0  0  0  0  0  0  0  0  0
    9.8280   -2.0492   47.3361 C   0  0  0  0  0  0  0  0  0  0  0  0
    9.8262   -1.5735   48.5432 C   0  0  0  0  0  0  0  0  0  0  0  0
   11.0745   -2.0905   46.6735 C   0  0  0  0  0  0  0  0  0  0  0  0
   11.1189   -2.5101   45.2315 C   0  0  0  0  0  0  0  0  0  0  0  0
    8.6548   -1.3952   49.4178 O   0  0  0  0  0  0  0  0  0  0  0  0
   12.2483   -1.7792   47.2003 C   0  0  0  0  0  0  0  0  0  0  0  0
   11.0576   -1.2774   49.2428 C   0  0  0  0  0  0  0  0  0  0  0  0
   13.4741   -1.9527   46.5228 C   0  0  0  0  0  0  0  0  0  0  0  0
   12.0698   -2.3865   44.6069 N   0  0  0  0  0  0  0  0  0  0  0  0
   13.3113   -1.9978   45.1347 C   0  0  0  0  0  0  0  0  0  0  0  0
   12.3285   -1.4174   48.6359 C   0  0  0  0  0  0  0  0  0  0  0  0
  1  2  2  0
  2  3  1  0
  3  4  1  0
  3  5  2  0
  2  6  1  0
  4  7  1  0
  5  8  1  0
  1  9  1  0
  5  9  1  0
  8 10  1  0
  7 11  1  0
 10 11  1  0
  6 12  2  0
  4 13  2  0
 12 13  1  0
 11 14  1  0
 12 15  1  0
 10 16  2  0
  9 17  1  0
  8 18  1  0
 15 19  2  0
 19 20  1  0
 17 21  1  0
 18 21  1  0
 13 22  1  0
 20 22  2  0
 19 23  1  0
 23 24  2  0
 23 25  1  0
 25 26  2  0
 24 27  1  0
 25 28  1  0
 24 29  1  0
 28 30  2  0
 26 31  1  0
 30 32  1  0
 31 32  2  0
 28 33  1  0
 29 33  2  0
M  END
$$$$
O14757_Pocket2Mol_idx-in-all-generaetd-132
     RDKit          3D

 47 56  0  0  0  0  0  0  0  0999 V2000
    1.5482   -0.3111   41.9233 C   0  0  0  0  0  0  0  0  0  0  0  0
    2.7284    0.2018   42.1525 N   0  0  0  0  0  0  0  0  0  0  0  0
    3.7893   -0.3016   42.7005 C   0  0  0  0  0  0  0  0  0  0  0  0
    3.3781   -1.7350   43.0000 C   0  0  0  0  0  0  0  0  0  0  0  0
    2.0339   -1.9619   42.6217 C   0  0  0  0  0  0  0  0  0  0  0  0
    5.0090    0.1219   42.9340 N   0  0  0  0  0  0  0  0  0  0  0  0
    4.2895   -2.4979   43.6707 C   0  0  0  0  0  0  0  0  0  0  0  0
    5.8391   -0.6675   43.6343 C   0  0  0  0  0  0  0  0  0  0  0  0
    6.9849   -0.2377   44.0028 N   0  0  0  0  0  0  0  0  0  0  0  0
    4.0426   -3.8794   44.0832 C   0  0  0  0  0  0  0  0  0  0  0  0
    7.6796   -0.8734   44.9326 C   0  0  0  0  0  0  0  0  0  0  0  0
    1.1064   -2.9576   42.4211 C   0  0  0  0  0  0  0  0  0  0  0  0
    5.5298   -1.9496   44.0315 C   0  0  0  0  0  0  0  0  0  0  0  0
    3.8954   -4.1817   45.4718 C   0  0  0  0  0  0  0  0  0  0  0  0
    0.6765   -3.5480   43.4006 C   0  0  1  0  0  0  0  0  0  0  0  0
    0.5804   -3.2191   41.1635 C   0  0  0  0  0  0  0  0  0  0  0  0
    2.8083   -4.8227   45.9203 N   0  0  0  0  0  0  0  0  0  0  0  0
   -0.1574   -4.5754   42.9329 N   0  0  0  0  0  0  0  0  0  0  0  0
    6.5271   -2.5531   44.9677 C   0  0  0  0  0  0  0  0  0  0  0  0
   -0.2272   -4.3703   41.5137 C   0  0  0  0  0  0  0  0  0  0  0  0
    7.5095   -2.0029   45.3993 C   0  0  0  0  0  0  0  0  0  0  0  0
    8.2550   -2.6982   46.3988 C   0  0  0  0  0  0  0  0  0  0  0  0
    8.8975   -0.3029   45.3267 O   0  0  0  0  0  0  0  0  0  0  0  0
    4.8299   -4.4637   46.4212 C   0  0  0  0  0  0  0  0  0  0  0  0
    4.2707   -4.9248   47.6295 N   0  0  0  0  0  0  0  0  0  0  0  0
    3.2045   -5.2092   47.1521 C   0  0  0  0  0  0  0  0  0  0  0  0
    1.4482   -4.6186   45.4134 C   0  0  1  0  0  0  0  0  0  0  0  0
    1.2398   -3.5043   44.6236 O   0  0  0  0  0  0  0  0  0  0  0  0
    6.3317   -3.9297   46.0870 C   0  0  2  0  0  0  0  0  0  0  0  0
    9.5296   -2.5449   46.9776 C   0  0  0  0  0  0  0  0  0  0  0  0
    9.7921   -1.7530   47.9018 O   0  0  0  0  0  0  0  0  0  0  0  0
    7.3972   -3.8130   46.7939 C   0  0  0  0  0  0  0  0  0  0  0  0
    1.2392   -5.7793   44.5610 C   0  0  0  0  0  0  0  0  0  0  0  0
   10.4934   -3.0755   46.3117 N   0  0  0  0  0  0  0  0  0  0  0  0
   10.3750   -4.1130   45.4302 C   0  0  0  0  0  0  0  0  0  0  0  0
   11.8947   -2.7998   46.7984 C   0  0  0  0  0  0  0  0  0  0  0  0
   12.8362   -2.7998   45.7275 C   0  0  1  0  0  0  0  0  0  0  0  0
   11.7375   -4.7913   45.1817 C   0  0  0  0  0  0  0  0  0  0  0  0
   14.0236   -2.1316   45.9685 C   0  0  0  0  0  0  0  0  0  0  0  0
   14.3430   -0.9723   45.2884 C   0  0  0  0  0  0  0  0  0  0  0  0
   12.9826   -4.1332   45.3033 C   0  0  0  0  0  0  0  0  0  0  0  0
   15.5518   -0.2801   45.5526 C   0  0  0  0  0  0  0  0  0  0  0  0
   14.6112   -2.4253   47.1287 C   0  0  0  0  0  0  0  0  0  0  0  0
   14.2677   -3.5704   47.9659 O   0  0  0  0  0  0  0  0  0  0  0  0
   15.8754    0.8854   44.7430 O   0  0  0  0  0  0  0  0  0  0  0  0
   16.2212   -0.5394   46.6767 C   0  0  0  0  0  0  0  0  0  0  0  0
   15.8035   -1.6616   47.4696 C   0  0  0  0  0  0  0  0  0  0  0  0
  1  2  1  0
  2  3  2  0
  3  4  1  0
  1  5  2  0
  4  5  1  0
  3  6  1  0
  4  7  2  0
  6  8  1  0
  8  9  1  0
  7 10  1  0
  9 11  1  0
  5 12  1  0
  7 13  1  0
  8 13  2  0
 10 14  1  0
 12 15  1  0
 12 16  2  0
 14 17  1  0
 15 18  1  0
 13 19  1  0
 16 20  1  0
 18 20  2  0
 11 21  1  0
 19 21  2  0
 21 22  1  0
 11 23  2  0
 14 24  2  0
 24 25  1  0
 17 26  1  0
 25 26  2  0
 17 27  1  0
 15 28  1  6
 27 28  1  0
 19 29  1  0
 24 29  1  0
 22 30  1  0
 30 31  2  0
 22 32  2  0
 29 32  1  1
 27 33  1  6
 30 34  1  0
 34 35  1  0
 34 36  1  0
 36 37  1  0
 35 38  1  0
 37 39  1  1
 39 40  2  0
 37 41  1  0
 38 41  1  0
 40 42  1  0
 39 43  1  0
 43 44  1  0
 42 45  1  0
 42 46  2  0
 43 47  2  0
 46 47  1  0
M  END
$$$$
O14757_Pocket2Mol_idx-in-all-generaetd-133
     RDKit          3D

 37 44  0  0  0  0  0  0  0  0999 V2000
    4.8173    0.2791   42.6993 N   0  0  0  0  0  0  0  0  0  0  0  0
    5.3297   -0.7477   43.3688 C   0  0  0  0  0  0  0  0  0  0  0  0
    3.4732   -0.2235   42.4530 C   0  0  0  0  0  0  0  0  0  0  0  0
    4.4984   -1.7876   43.6214 C   0  0  0  0  0  0  0  0  0  0  0  0
    3.3438   -1.5190   42.9379 C   0  0  0  0  0  0  0  0  0  0  0  0
    2.1381   -2.3401   42.8254 C   0  0  0  0  0  0  0  0  0  0  0  0
    2.3894    0.3572   41.9843 N   0  0  0  0  0  0  0  0  0  0  0  0
    4.9180   -3.0430   44.3829 C   0  0  0  0  0  0  0  0  0  0  0  0
    5.9444   -2.9314   45.3934 C   0  0  0  0  0  0  0  0  0  0  0  0
    4.2808   -4.1329   44.3252 C   0  0  0  0  0  0  0  0  0  0  0  0
    3.1588   -4.4221   43.4852 O   0  0  0  0  0  0  0  0  0  0  0  0
    4.5704   -5.2518   45.1995 C   0  0  0  0  0  0  0  0  0  0  0  0
    1.9853   -3.6792   43.3495 C   0  0  0  0  0  0  0  0  0  0  0  0
    0.9181   -4.3294   43.4638 C   0  0  0  0  0  0  0  0  0  0  0  0
    6.7403   -1.6226   45.5272 C   0  0  2  0  0  0  0  0  0  0  0  0
    0.9752   -1.7845   42.3366 C   0  0  0  0  0  0  0  0  0  0  0  0
    6.2516   -3.7287   46.2722 C   0  0  0  0  0  0  0  0  0  0  0  0
   -0.2404   -2.4179   42.2529 C   0  0  0  0  0  0  0  0  0  0  0  0
   -1.3835   -1.8904   41.6559 N   0  0  0  0  0  0  0  0  0  0  0  0
    3.8706   -6.4216   45.1394 O   0  0  0  0  0  0  0  0  0  0  0  0
    0.9456   -0.2789   41.7649 C   0  0  0  0  0  0  0  0  0  0  0  0
   -0.2678   -3.6969   42.7575 C   0  0  0  0  0  0  0  0  0  0  0  0
    6.3913   -0.7000   44.3807 N   0  0  0  0  0  0  0  0  0  0  0  0
    7.9391   -1.5867   46.0069 C   0  0  0  0  0  0  0  0  0  0  0  0
    7.1969   -3.5621   47.3287 C   0  0  0  0  0  0  0  0  0  0  0  0
    5.4958   -5.0534   46.2483 C   0  0  0  0  0  0  0  0  0  0  0  0
    7.4872   -4.5338   48.2539 O   0  0  0  0  0  0  0  0  0  0  0  0
    8.1281   -2.5304   47.0986 C   0  0  1  0  0  0  0  0  0  0  0  0
    8.7872   -0.5908   45.9403 O   0  0  0  0  0  0  0  0  0  0  0  0
    9.4892   -2.5717   47.7347 C   0  0  0  0  0  0  0  0  0  0  0  0
   10.5268   -2.9441   46.9599 C   0  0  0  0  0  0  0  0  0  0  0  0
   11.4734   -2.0640   46.5154 C   0  0  0  0  0  0  0  0  0  0  0  0
   10.2758   -3.8900   45.9928 C   0  0  0  0  0  0  0  0  0  0  0  0
   11.7067   -0.7846   47.2638 C   0  0  0  0  0  0  0  0  0  0  0  0
   11.5945   -3.9238   45.1966 O   0  0  0  0  0  0  0  0  0  0  0  0
   12.1953   -2.9199   45.6965 C   0  0  0  0  0  0  0  0  0  0  0  0
   13.4764   -2.3979   45.0453 C   0  0  0  0  0  0  0  0  0  0  0  0
  1  2  2  0
  1  3  1  0
  2  4  1  0
  3  5  1  0
  4  5  2  0
  5  6  1  0
  3  7  2  0
  4  8  1  0
  8  9  1  0
  8 10  2  0
 10 11  1  0
 10 12  1  0
  6 13  1  0
 11 13  1  0
 13 14  2  0
  9 15  1  0
  6 16  2  0
  9 17  2  0
 16 18  1  0
 18 19  1  0
 12 20  1  0
  7 21  1  0
 16 21  1  0
 14 22  1  0
 18 22  2  0
  2 23  1  0
 15 23  1  6
 15 24  1  0
 17 25  1  0
 12 26  2  0
 17 26  1  0
 25 27  2  0
 24 28  1  0
 25 28  1  0
 24 29  2  0
 28 30  1  6
 30 31  1  0
 31 32  1  0
 31 33  2  0
 32 34  1  0
 33 35  1  0
 32 36  2  0
 35 36  1  0
 36 37  1  0
M  END
$$$$
O14757_Pocket2Mol_idx-in-all-generaetd-134
     RDKit          3D

 40 47  0  0  0  0  0  0  0  0999 V2000
    4.8037   -0.1366   42.7100 N   0  0  0  0  0  0  0  0  0  0  0  0
    3.6577   -0.7759   42.7186 C   0  0  0  0  0  0  0  0  0  0  0  0
    3.6660   -1.8665   43.4760 C   0  0  0  0  0  0  0  0  0  0  0  0
    2.7271   -2.8718   43.6599 C   0  0  0  0  0  0  0  0  0  0  0  0
    2.4846   -0.2994   42.1254 N   0  0  0  0  0  0  0  0  0  0  0  0
    5.0524   -1.7697   43.9367 C   0  0  0  0  0  0  0  0  0  0  0  0
    1.4917   -2.9000   43.0914 C   0  0  0  0  0  0  0  0  0  0  0  0
    3.1274   -3.9503   44.5163 C   0  0  0  0  0  0  0  0  0  0  0  0
    1.0744   -1.9066   42.1491 C   0  0  2  0  0  0  0  0  0  0  0  0
    5.6624   -0.7003   43.4895 C   0  0  0  0  0  0  0  0  0  0  0  0
    5.5753   -2.5784   45.0324 C   0  0  0  0  0  0  0  0  0  0  0  0
    0.4030   -3.6297   43.4883 N   0  0  0  0  0  0  0  0  0  0  0  0
    1.5052   -0.8077   41.7519 C   0  0  0  0  0  0  0  0  0  0  0  0
   -0.5645   -3.4039   42.5585 N   0  0  0  0  0  0  0  0  0  0  0  0
    2.5059   -5.1012   44.7935 C   0  0  0  0  0  0  0  0  0  0  0  0
    4.4581   -3.8218   45.2947 C   0  0  0  0  0  0  0  0  0  0  0  0
   -0.3089   -2.3979   41.8128 C   0  0  0  0  0  0  0  0  0  0  0  0
    6.6435   -2.6577   45.6991 C   0  0  0  0  0  0  0  0  0  0  0  0
    7.0869   -3.7008   46.4717 C   0  0  0  0  0  0  0  0  0  0  0  0
    7.5912   -1.5296   45.5455 C   0  0  0  0  0  0  0  0  0  0  0  0
    8.7765   -1.4352   46.2248 C   0  0  0  0  0  0  0  0  0  0  0  0
    6.3069   -4.7944   46.6836 O   0  0  0  0  0  0  0  0  0  0  0  0
    4.8984   -4.5252   46.1302 C   0  0  0  0  0  0  0  0  0  0  0  0
    4.2122   -5.9932   46.2216 C   0  0  0  0  0  0  0  0  0  0  0  0
    8.3395   -3.6608   47.2172 C   0  0  0  0  0  0  0  0  0  0  0  0
    4.6690   -6.8778   47.1549 O   0  0  0  0  0  0  0  0  0  0  0  0
    9.1822   -2.5745   47.1243 C   0  0  0  0  0  0  0  0  0  0  0  0
   10.4419   -2.3733   47.8332 C   0  0  0  0  0  0  0  0  0  0  0  0
   10.5277   -1.5655   48.7043 O   0  0  0  0  0  0  0  0  0  0  0  0
    2.9373   -6.0805   45.7037 C   0  0  0  0  0  0  0  0  0  0  0  0
   11.4886   -2.8791   47.1590 O   0  0  0  0  0  0  0  0  0  0  0  0
   12.5752   -2.3359   47.1530 C   0  0  1  0  0  0  0  0  0  0  0  0
   13.6119   -3.1431   47.5861 C   0  0  0  0  0  0  0  0  0  0  0  0
   14.6644   -3.4220   46.7962 C   0  0  0  0  0  0  0  0  0  0  0  0
   12.9389   -1.8552   45.7477 C   0  0  0  0  0  0  0  0  0  0  0  0
   14.1411   -1.8765   45.1799 C   0  0  0  0  0  0  0  0  0  0  0  0
   14.3971   -1.2248   44.0264 C   0  0  0  0  0  0  0  0  0  0  0  0
   15.0504   -2.7639   45.7257 C   0  0  0  0  0  0  0  0  0  0  0  0
   15.6272   -1.2208   43.5965 O   0  0  0  0  0  0  0  0  0  0  0  0
   13.6224   -0.6773   43.3459 O   0  0  0  0  0  0  0  0  0  0  0  0
  1  2  2  0
  2  3  1  0
  3  4  2  0
  2  5  1  0
  3  6  1  0
  4  7  1  0
  4  8  1  0
  7  9  1  0
  1 10  1  0
  6 10  1  0
  6 11  2  0
  7 12  2  0
  5 13  2  0
  9 13  1  1
 12 14  1  0
  8 15  2  0
  8 16  1  0
 11 16  1  0
  9 17  1  0
 14 17  2  0
 11 18  1  0
 18 19  2  0
 18 20  1  0
 20 21  2  0
 19 22  1  0
 16 23  2  0
 22 23  1  0
 23 24  1  0
 19 25  1  0
 24 26  1  0
 21 27  1  0
 25 27  2  0
 27 28  1  0
 28 29  2  0
 15 30  1  0
 24 30  2  0
 28 31  1  0
 32 31  1  6
 32 33  1  0
 33 34  2  0
 32 35  1  0
 35 36  1  0
 36 37  1  0
 34 38  1  0
 36 38  2  0
 37 39  1  0
 37 40  2  0
M  END
$$$$
O14757_Pocket2Mol_idx-in-all-generaetd-135
     RDKit          3D

 37 44  0  0  0  0  0  0  0  0999 V2000
    4.8037   -0.1366   42.7100 N   0  0  0  0  0  0  0  0  0  0  0  0
    3.6577   -0.7759   42.7186 C   0  0  0  0  0  0  0  0  0  0  0  0
    3.6660   -1.8665   43.4760 C   0  0  0  0  0  0  0  0  0  0  0  0
    2.7271   -2.8718   43.6599 C   0  0  0  0  0  0  0  0  0  0  0  0
    2.4846   -0.2994   42.1254 N   0  0  0  0  0  0  0  0  0  0  0  0
    5.0524   -1.7697   43.9367 C   0  0  0  0  0  0  0  0  0  0  0  0
    1.4917   -2.9000   43.0914 C   0  0  0  0  0  0  0  0  0  0  0  0
    3.1274   -3.9503   44.5163 C   0  0  0  0  0  0  0  0  0  0  0  0
    1.0744   -1.9066   42.1491 C   0  0  2  0  0  0  0  0  0  0  0  0
    5.6624   -0.7003   43.4895 C   0  0  0  0  0  0  0  0  0  0  0  0
    5.5753   -2.5784   45.0324 C   0  0  0  0  0  0  0  0  0  0  0  0
    0.4030   -3.6297   43.4883 N   0  0  0  0  0  0  0  0  0  0  0  0
    1.5052   -0.8077   41.7519 C   0  0  0  0  0  0  0  0  0  0  0  0
   -0.5645   -3.4039   42.5585 N   0  0  0  0  0  0  0  0  0  0  0  0
    2.5059   -5.1012   44.7935 C   0  0  0  0  0  0  0  0  0  0  0  0
    4.4581   -3.8218   45.2947 C   0  0  0  0  0  0  0  0  0  0  0  0
   -0.3089   -2.3979   41.8128 C   0  0  0  0  0  0  0  0  0  0  0  0
    6.6435   -2.6577   45.6991 C   0  0  0  0  0  0  0  0  0  0  0  0
    7.0869   -3.7008   46.4717 C   0  0  0  0  0  0  0  0  0  0  0  0
    7.5912   -1.5296   45.5455 C   0  0  0  0  0  0  0  0  0  0  0  0
    8.7765   -1.4352   46.2248 C   0  0  0  0  0  0  0  0  0  0  0  0
    6.3069   -4.7944   46.6836 O   0  0  0  0  0  0  0  0  0  0  0  0
    4.8984   -4.5252   46.1302 C   0  0  0  0  0  0  0  0  0  0  0  0
    4.2122   -5.9932   46.2216 C   0  0  0  0  0  0  0  0  0  0  0  0
    8.3395   -3.6608   47.2172 C   0  0  0  0  0  0  0  0  0  0  0  0
    4.6690   -6.8778   47.1549 O   0  0  0  0  0  0  0  0  0  0  0  0
    9.1822   -2.5745   47.1243 C   0  0  0  0  0  0  0  0  0  0  0  0
   10.4419   -2.3733   47.8332 C   0  0  0  0  0  0  0  0  0  0  0  0
   10.5277   -1.5655   48.7043 O   0  0  0  0  0  0  0  0  0  0  0  0
    2.9373   -6.0805   45.7037 C   0  0  0  0  0  0  0  0  0  0  0  0
   11.4886   -2.8791   47.1590 O   0  0  0  0  0  0  0  0  0  0  0  0
   12.5752   -2.3359   47.1530 C   0  0  1  0  0  0  0  0  0  0  0  0
   13.6119   -3.1431   47.5861 C   0  0  0  0  0  0  0  0  0  0  0  0
   14.6644   -3.4220   46.7962 C   0  0  0  0  0  0  0  0  0  0  0  0
   12.9389   -1.8552   45.7477 C   0  0  0  0  0  0  0  0  0  0  0  0
   14.1411   -1.8765   45.1799 C   0  0  0  0  0  0  0  0  0  0  0  0
   15.0645   -2.7654   45.7035 C   0  0  0  0  0  0  0  0  0  0  0  0
  1  2  2  0
  2  3  1  0
  3  4  2  0
  2  5  1  0
  3  6  1  0
  4  7  1  0
  4  8  1  0
  7  9  1  0
  1 10  1  0
  6 10  1  0
  6 11  2  0
  7 12  2  0
  5 13  2  0
  9 13  1  1
 12 14  1  0
  8 15  2  0
  8 16  1  0
 11 16  1  0
  9 17  1  0
 14 17  2  0
 11 18  1  0
 18 19  2  0
 18 20  1  0
 20 21  2  0
 19 22  1  0
 16 23  2  0
 22 23  1  0
 23 24  1  0
 19 25  1  0
 24 26  1  0
 21 27  1  0
 25 27  2  0
 27 28  1  0
 28 29  2  0
 15 30  1  0
 24 30  2  0
 28 31  1  0
 32 31  1  6
 32 33  1  0
 33 34  2  0
 32 35  1  0
 35 36  1  0
 34 37  1  0
 36 37  2  0
M  END
$$$$
O14757_Pocket2Mol_idx-in-all-generaetd-136
     RDKit          3D

 29 33  0  0  0  0  0  0  0  0999 V2000
    4.5156    0.0550   42.9895 N   0  0  0  0  0  0  0  0  0  0  0  0
    3.2960    0.1633   42.4470 C   0  0  0  0  0  0  0  0  0  0  0  0
    2.7621   -1.2305   42.4476 C   0  0  0  0  0  0  0  0  0  0  0  0
    5.2005   -0.8099   43.5858 C   0  0  0  0  0  0  0  0  0  0  0  0
    4.4157   -2.0357   43.6745 C   0  0  0  0  0  0  0  0  0  0  0  0
    3.3964   -2.2069   43.1195 C   0  0  0  0  0  0  0  0  0  0  0  0
    2.6107   -3.4636   43.1542 N   0  0  0  0  0  0  0  0  0  0  0  0
    1.4467   -1.2849   41.8335 C   0  0  0  0  0  0  0  0  0  0  0  0
    5.1851   -3.1348   44.4538 N   0  0  0  0  0  0  0  0  0  0  0  0
    6.4172   -0.8203   44.3346 N   0  0  0  0  0  0  0  0  0  0  0  0
    0.8321   -2.5451   41.8394 C   0  0  0  0  0  0  0  0  0  0  0  0
    1.4134   -3.5528   42.5919 C   0  0  0  0  0  0  0  0  0  0  0  0
    6.3428   -2.7074   45.0536 C   0  0  0  0  0  0  0  0  0  0  0  0
    6.8277   -1.4386   44.9522 C   0  0  0  0  0  0  0  0  0  0  0  0
    8.1428   -1.2695   45.6287 C   0  0  0  0  0  0  0  0  0  0  0  0
    6.7295   -3.7948   46.0360 C   0  0  0  0  0  0  0  0  0  0  0  0
    8.0115   -3.5481   46.6450 C   0  0  0  0  0  0  0  0  0  0  0  0
    8.8073   -0.1733   45.6146 O   0  0  0  0  0  0  0  0  0  0  0  0
    8.6405   -2.2670   46.5404 C   0  0  0  0  0  0  0  0  0  0  0  0
    9.8709   -1.9854   47.0853 O   0  0  0  0  0  0  0  0  0  0  0  0
   10.8299   -2.9834   47.0851 C   0  0  0  0  0  0  0  0  0  0  0  0
   11.6360   -2.9547   48.1025 C   0  0  0  0  0  0  0  0  0  0  0  0
   12.7893   -3.6305   47.9979 C   0  0  0  0  0  0  0  0  0  0  0  0
   10.9019   -3.6766   45.9167 C   0  0  0  0  0  0  0  0  0  0  0  0
   12.1398   -4.5059   45.8386 C   0  0  0  0  0  0  0  0  0  0  0  0
   13.0346   -4.4771   46.8720 C   0  0  0  0  0  0  0  0  0  0  0  0
   14.1787   -5.2581   46.7835 C   0  0  0  0  0  0  0  0  0  0  0  0
   15.3449   -4.7837   46.6525 O   0  0  0  0  0  0  0  0  0  0  0  0
   14.0911   -6.4992   47.1532 O   0  0  0  0  0  0  0  0  0  0  0  0
  1  2  2  0
  2  3  1  0
  1  4  1  0
  4  5  2  0
  3  6  2  0
  5  6  1  0
  6  7  1  0
  3  8  1  0
  5  9  1  0
  4 10  1  0
  8 11  2  0
  7 12  2  0
 11 12  1  0
  9 13  2  0
 10 14  2  0
 13 14  1  0
 14 15  1  0
 13 16  1  0
 16 17  2  0
 15 18  1  0
 15 19  2  0
 17 19  1  0
 19 20  1  0
 20 21  1  0
 21 22  2  0
 22 23  1  0
 21 24  1  0
 24 25  2  0
 23 26  2  0
 25 26  1  0
 26 27  1  0
 27 28  1  0
 27 29  2  0
M  END
$$$$
O14757_Pocket2Mol_idx-in-all-generaetd-137
     RDKit          3D

 31 37  0  0  0  0  0  0  0  0999 V2000
    4.8173    0.2791   42.6993 N   0  0  0  0  0  0  0  0  0  0  0  0
    5.3297   -0.7477   43.3688 C   0  0  0  0  0  0  0  0  0  0  0  0
    3.4732   -0.2235   42.4530 C   0  0  0  0  0  0  0  0  0  0  0  0
    4.4984   -1.7876   43.6214 C   0  0  0  0  0  0  0  0  0  0  0  0
    3.3438   -1.5190   42.9379 C   0  0  0  0  0  0  0  0  0  0  0  0
    2.1381   -2.3401   42.8254 C   0  0  0  0  0  0  0  0  0  0  0  0
    2.3894    0.3572   41.9843 N   0  0  0  0  0  0  0  0  0  0  0  0
    4.9180   -3.0430   44.3829 C   0  0  0  0  0  0  0  0  0  0  0  0
    5.9444   -2.9314   45.3934 C   0  0  0  0  0  0  0  0  0  0  0  0
    4.2808   -4.1329   44.3252 C   0  0  0  0  0  0  0  0  0  0  0  0
    3.1588   -4.4221   43.4852 O   0  0  0  0  0  0  0  0  0  0  0  0
    4.5704   -5.2518   45.1995 C   0  0  0  0  0  0  0  0  0  0  0  0
    1.9853   -3.6792   43.3495 C   0  0  0  0  0  0  0  0  0  0  0  0
    0.9181   -4.3294   43.4638 C   0  0  0  0  0  0  0  0  0  0  0  0
    6.7403   -1.6226   45.5272 C   0  0  2  0  0  0  0  0  0  0  0  0
    0.9752   -1.7845   42.3366 C   0  0  0  0  0  0  0  0  0  0  0  0
    6.2516   -3.7287   46.2722 C   0  0  0  0  0  0  0  0  0  0  0  0
   -0.2404   -2.4179   42.2529 C   0  0  0  0  0  0  0  0  0  0  0  0
   -1.3835   -1.8904   41.6559 N   0  0  0  0  0  0  0  0  0  0  0  0
    3.8706   -6.4216   45.1394 O   0  0  0  0  0  0  0  0  0  0  0  0
    0.9456   -0.2789   41.7649 C   0  0  0  0  0  0  0  0  0  0  0  0
   -0.2678   -3.6969   42.7575 C   0  0  0  0  0  0  0  0  0  0  0  0
    6.3913   -0.7000   44.3807 N   0  0  0  0  0  0  0  0  0  0  0  0
    7.9391   -1.5867   46.0069 C   0  0  0  0  0  0  0  0  0  0  0  0
    8.7787   -0.4879   45.9761 O   0  0  0  0  0  0  0  0  0  0  0  0
    5.3853   -5.1216   46.3780 C   0  0  0  0  0  0  0  0  0  0  0  0
    8.4504   -2.7517   46.6262 N   0  0  0  0  0  0  0  0  0  0  0  0
    7.4807   -3.7374   47.0380 C   0  0  0  0  0  0  0  0  0  0  0  0
    9.7261   -2.6138   47.3732 C   0  0  0  0  0  0  0  0  0  0  0  0
    9.9606   -3.7577   48.0581 C   0  0  0  0  0  0  0  0  0  0  0  0
    9.8549   -3.5436   49.4228 O   0  0  0  0  0  0  0  0  0  0  0  0
  1  2  2  0
  1  3  1  0
  2  4  1  0
  3  5  1  0
  4  5  2  0
  5  6  1  0
  3  7  2  0
  4  8  1  0
  8  9  1  0
  8 10  2  0
 10 11  1  0
 10 12  1  0
  6 13  1  0
 11 13  1  0
 13 14  2  0
  9 15  1  0
  6 16  2  0
  9 17  2  0
 16 18  1  0
 18 19  1  0
 12 20  1  0
  7 21  1  0
 16 21  1  0
 14 22  1  0
 18 22  2  0
  2 23  1  0
 15 23  1  6
 15 24  1  0
 24 25  2  0
 12 26  2  0
 17 26  1  0
 24 27  1  0
 17 28  1  0
 27 28  1  0
 27 29  1  0
 29 30  1  0
 30 31  1  0
M  END
$$$$
O14757_Pocket2Mol_idx-in-all-generaetd-138
     RDKit          3D

 44 51  0  0  0  0  0  0  0  0999 V2000
    5.3420    0.2589   42.8836 O   0  0  0  0  0  0  0  0  0  0  0  0
    5.1627   -0.7554   43.4753 C   0  0  0  0  0  0  0  0  0  0  0  0
    4.0509   -1.4657   43.4177 N   0  0  0  0  0  0  0  0  0  0  0  0
    5.9969   -1.2317   44.6840 C   0  0  0  0  0  0  0  0  0  0  0  0
    2.9618   -1.1021   42.5918 C   0  0  1  0  0  0  0  0  0  0  0  0
    7.3392   -0.8596   44.8412 C   0  0  0  0  0  0  0  0  0  0  0  0
    1.9754   -2.0820   42.2741 C   0  0  0  0  0  0  0  0  0  0  0  0
    5.5910   -2.4282   45.3439 C   0  0  0  0  0  0  0  0  0  0  0  0
    6.5874   -2.9636   46.1581 C   0  0  0  0  0  0  0  0  0  0  0  0
    4.2763   -3.0680   45.0493 N   0  0  0  0  0  0  0  0  0  0  0  0
    3.6188   -2.5886   44.2024 C   0  0  0  0  0  0  0  0  0  0  0  0
    8.1921   -1.4071   45.7505 C   0  0  0  0  0  0  0  0  0  0  0  0
    1.0154   -1.8839   41.2980 C   0  0  0  0  0  0  0  0  0  0  0  0
    2.5720   -3.3564   43.9063 C   0  0  0  0  0  0  0  0  0  0  0  0
    0.2502   -2.8976   41.0751 C   0  0  0  0  0  0  0  0  0  0  0  0
    6.1761   -4.1775   47.0209 C   0  0  0  0  0  0  0  0  0  0  0  0
    1.7266   -3.1047   43.0115 C   0  0  2  0  0  0  0  0  0  0  0  0
    2.3696   -4.5367   44.7536 N   0  0  0  0  0  0  0  0  0  0  0  0
    1.2264   -5.2346   44.4693 C   0  0  0  0  0  0  0  0  0  0  0  0
    0.7187   -3.8955   42.5465 C   0  0  0  0  0  0  0  0  0  0  0  0
    9.4576   -0.8949   46.0327 N   0  0  0  0  0  0  0  0  0  0  0  0
    0.8625   -6.3901   45.2462 C   0  0  0  0  0  0  0  0  0  0  0  0
    7.6467   -2.5139   46.4892 C   0  0  0  0  0  0  0  0  0  0  0  0
   10.4908   -1.5336   45.8242 C   0  0  0  0  0  0  0  0  0  0  0  0
    0.3057   -4.9299   43.2909 C   0  0  0  0  0  0  0  0  0  0  0  0
   11.5916   -1.4291   46.7436 C   0  0  0  0  0  0  0  0  0  0  0  0
   10.5566   -2.3672   44.8649 O   0  0  0  0  0  0  0  0  0  0  0  0
    2.4730    0.2084   42.8389 O   0  0  0  0  0  0  0  0  0  0  0  0
   11.6027   -2.2081   47.7725 N   0  0  0  0  0  0  0  0  0  0  0  0
   12.6189   -0.5862   46.5415 C   0  0  0  0  0  0  0  0  0  0  0  0
   13.6413   -0.4484   47.4129 C   0  0  0  0  0  0  0  0  0  0  0  0
   10.4764   -3.1097   48.1134 C   0  0  0  0  0  0  0  0  0  0  0  0
    9.5762   -2.4717   49.0753 C   0  0  0  0  0  0  0  0  0  0  0  0
    9.7761   -1.2394   49.5167 C   0  0  0  0  0  0  0  0  0  0  0  0
    8.6397   -3.3252   49.7339 C   0  0  0  0  0  0  0  0  0  0  0  0
    8.9861   -0.7034   50.5819 C   0  0  0  0  0  0  0  0  0  0  0  0
   14.7137    0.5128   47.0925 C   0  0  0  0  0  0  0  0  0  0  0  0
    8.3536   -4.6815   49.2042 C   0  0  0  0  0  0  0  0  0  0  0  0
    7.9034   -2.7594   50.6763 C   0  0  0  0  0  0  0  0  0  0  0  0
   12.6936   -2.1884   48.6143 C   0  0  0  0  0  0  0  0  0  0  0  0
   13.8093   -1.3792   48.2670 C   0  0  0  0  0  0  0  0  0  0  0  0
    8.1351   -1.4966   51.1463 C   0  0  0  0  0  0  0  0  0  0  0  0
    6.9741   -4.9866   48.9666 N   0  0  0  0  0  0  0  0  0  0  0  0
    6.4217   -4.0972   48.3627 C   0  0  0  0  0  0  0  0  0  0  0  0
  1  2  2  0
  2  3  1  0
  2  4  1  0
  3  5  1  0
  4  6  2  0
  5  7  1  0
  4  8  1  0
  8  9  2  0
  8 10  1  0
  3 11  1  0
 10 11  2  0
  6 12  1  0
  7 13  2  0
 11 14  1  0
 13 15  1  0
  9 16  1  0
 17  7  1  6
 14 17  1  0
 14 18  2  0
 18 19  1  0
 15 20  2  0
 17 20  1  0
 12 21  1  0
 19 22  1  0
  9 23  1  0
 12 23  2  0
 21 24  1  0
 19 25  2  0
 20 25  1  0
 24 26  1  0
 24 27  2  0
  5 28  1  1
 26 29  1  0
 26 30  2  0
 30 31  1  0
 29 32  1  0
 32 33  1  0
 33 34  1  0
 33 35  2  0
 34 36  2  0
 31 37  1  0
 35 38  1  0
 35 39  1  0
 29 40  1  0
 31 41  2  0
 40 41  1  0
 36 42  1  0
 39 42  2  0
 38 43  1  0
 16 44  1  0
 43 44  1  0
M  END
$$$$
O14757_Pocket2Mol_idx-in-all-generaetd-139
     RDKit          3D

 46 52  0  0  0  0  0  0  0  0999 V2000
    5.3420    0.2589   42.8836 O   0  0  0  0  0  0  0  0  0  0  0  0
    5.1627   -0.7554   43.4753 C   0  0  0  0  0  0  0  0  0  0  0  0
    4.0509   -1.4657   43.4177 N   0  0  0  0  0  0  0  0  0  0  0  0
    5.9969   -1.2317   44.6840 C   0  0  0  0  0  0  0  0  0  0  0  0
    2.9618   -1.1021   42.5918 C   0  0  1  0  0  0  0  0  0  0  0  0
    7.3392   -0.8596   44.8412 C   0  0  0  0  0  0  0  0  0  0  0  0
    1.9754   -2.0820   42.2741 C   0  0  0  0  0  0  0  0  0  0  0  0
    5.5910   -2.4282   45.3439 C   0  0  0  0  0  0  0  0  0  0  0  0
    6.5874   -2.9636   46.1581 C   0  0  0  0  0  0  0  0  0  0  0  0
    4.2763   -3.0680   45.0493 N   0  0  0  0  0  0  0  0  0  0  0  0
    3.6188   -2.5886   44.2024 C   0  0  0  0  0  0  0  0  0  0  0  0
    8.1921   -1.4071   45.7505 C   0  0  0  0  0  0  0  0  0  0  0  0
    1.0154   -1.8839   41.2980 C   0  0  0  0  0  0  0  0  0  0  0  0
    2.5720   -3.3564   43.9063 C   0  0  0  0  0  0  0  0  0  0  0  0
    0.2502   -2.8976   41.0751 C   0  0  0  0  0  0  0  0  0  0  0  0
    6.1761   -4.1775   47.0209 C   0  0  0  0  0  0  0  0  0  0  0  0
    1.7266   -3.1047   43.0115 C   0  0  2  0  0  0  0  0  0  0  0  0
    2.3696   -4.5367   44.7536 N   0  0  0  0  0  0  0  0  0  0  0  0
    1.2264   -5.2346   44.4693 C   0  0  0  0  0  0  0  0  0  0  0  0
    0.7187   -3.8955   42.5465 C   0  0  0  0  0  0  0  0  0  0  0  0
    9.4576   -0.8949   46.0327 N   0  0  0  0  0  0  0  0  0  0  0  0
    0.8625   -6.3901   45.2462 C   0  0  0  0  0  0  0  0  0  0  0  0
    7.6467   -2.5139   46.4892 C   0  0  0  0  0  0  0  0  0  0  0  0
   10.4908   -1.5336   45.8242 C   0  0  0  0  0  0  0  0  0  0  0  0
    0.3057   -4.9299   43.2909 C   0  0  0  0  0  0  0  0  0  0  0  0
   11.5916   -1.4291   46.7436 C   0  0  0  0  0  0  0  0  0  0  0  0
   10.5566   -2.3672   44.8649 O   0  0  0  0  0  0  0  0  0  0  0  0
   12.8421   -1.9355   46.2823 C   0  0  0  0  0  0  0  0  0  0  0  0
   13.4833   -2.8582   46.9841 C   0  0  0  0  0  0  0  0  0  0  0  0
   11.4002   -1.1447   48.0540 C   0  0  0  0  0  0  0  0  0  0  0  0
   10.2867   -0.4569   48.4999 O   0  0  0  0  0  0  0  0  0  0  0  0
   12.3327   -1.4798   48.9564 C   0  0  0  0  0  0  0  0  0  0  0  0
   14.7901   -3.3162   46.6439 C   0  0  0  0  0  0  0  0  0  0  0  0
   12.1651   -1.3050   50.3239 O   0  0  0  0  0  0  0  0  0  0  0  0
   15.6765   -2.5740   46.0979 C   0  0  0  0  0  0  0  0  0  0  0  0
   13.4417   -2.4710   48.5369 C   0  0  0  0  0  0  0  0  0  0  0  0
   15.5553   -1.2853   45.8338 C   0  0  0  0  0  0  0  0  0  0  0  0
    2.4633    0.2112   42.8553 O   0  0  0  0  0  0  0  0  0  0  0  0
   15.3909   -0.8808   44.5119 C   0  0  0  0  0  0  0  0  0  0  0  0
   14.8684    0.3217   44.1996 C   0  0  0  0  0  0  0  0  0  0  0  0
   14.8875    1.3968   45.0496 C   0  0  0  0  0  0  0  0  0  0  0  0
   14.2844    2.6794   44.6658 C   0  0  0  0  0  0  0  0  0  0  0  0
   15.5518   -0.0687   46.6305 C   0  0  0  0  0  0  0  0  0  0  0  0
   15.2145    1.1513   46.2504 C   0  0  0  0  0  0  0  0  0  0  0  0
   13.9647    3.4620   45.5514 O   0  0  0  0  0  0  0  0  0  0  0  0
   14.3348    3.0261   43.4426 O   0  0  0  0  0  0  0  0  0  0  0  0
  1  2  2  0
  2  3  1  0
  2  4  1  0
  3  5  1  0
  4  6  2  0
  5  7  1  0
  4  8  1  0
  8  9  2  0
  8 10  1  0
  3 11  1  0
 10 11  2  0
  6 12  1  0
  7 13  2  0
 11 14  1  0
 13 15  1  0
  9 16  1  0
 17  7  1  6
 14 17  1  0
 14 18  2  0
 18 19  1  0
 15 20  2  0
 17 20  1  0
 12 21  1  0
 19 22  1  0
  9 23  1  0
 12 23  2  0
 21 24  1  0
 19 25  2  0
 20 25  1  0
 24 26  1  0
 24 27  2  0
 26 28  2  0
 28 29  1  0
 26 30  1  0
 30 31  1  0
 30 32  2  0
 29 33  1  0
 32 34  1  0
 33 35  2  3
 29 36  2  0
 32 36  1  0
 35 37  1  0
  5 38  1  1
 37 39  2  0
 39 40  1  0
 40 41  2  0
 41 42  1  0
 37 43  1  0
 41 44  1  0
 43 44  2  0
 42 45  2  0
 42 46  1  0
M  END
$$$$
O14757_Pocket2Mol_idx-in-all-generaetd-140
     RDKit          3D

 32 38  0  0  0  0  0  0  0  0999 V2000
    4.8037   -0.1366   42.7100 N   0  0  0  0  0  0  0  0  0  0  0  0
    3.6577   -0.7759   42.7186 C   0  0  0  0  0  0  0  0  0  0  0  0
    3.6660   -1.8665   43.4760 C   0  0  0  0  0  0  0  0  0  0  0  0
    2.7271   -2.8718   43.6599 C   0  0  0  0  0  0  0  0  0  0  0  0
    2.4846   -0.2994   42.1254 N   0  0  0  0  0  0  0  0  0  0  0  0
    5.0524   -1.7697   43.9367 C   0  0  0  0  0  0  0  0  0  0  0  0
    1.4917   -2.9000   43.0914 C   0  0  0  0  0  0  0  0  0  0  0  0
    3.1274   -3.9503   44.5163 C   0  0  0  0  0  0  0  0  0  0  0  0
    1.0744   -1.9066   42.1491 C   0  0  2  0  0  0  0  0  0  0  0  0
    5.6624   -0.7003   43.4895 C   0  0  0  0  0  0  0  0  0  0  0  0
    5.5753   -2.5784   45.0324 C   0  0  0  0  0  0  0  0  0  0  0  0
    0.4030   -3.6297   43.4883 N   0  0  0  0  0  0  0  0  0  0  0  0
    1.5052   -0.8077   41.7519 C   0  0  0  0  0  0  0  0  0  0  0  0
   -0.5645   -3.4039   42.5585 N   0  0  0  0  0  0  0  0  0  0  0  0
    2.5059   -5.1012   44.7935 C   0  0  0  0  0  0  0  0  0  0  0  0
    4.4581   -3.8218   45.2947 C   0  0  0  0  0  0  0  0  0  0  0  0
   -0.3089   -2.3979   41.8128 C   0  0  0  0  0  0  0  0  0  0  0  0
    6.6435   -2.6577   45.6991 C   0  0  0  0  0  0  0  0  0  0  0  0
    7.0869   -3.7008   46.4717 C   0  0  0  0  0  0  0  0  0  0  0  0
    7.5912   -1.5296   45.5455 C   0  0  0  0  0  0  0  0  0  0  0  0
    8.7765   -1.4352   46.2248 C   0  0  0  0  0  0  0  0  0  0  0  0
    6.3069   -4.7944   46.6836 O   0  0  0  0  0  0  0  0  0  0  0  0
    4.8984   -4.5252   46.1302 C   0  0  0  0  0  0  0  0  0  0  0  0
    4.2122   -5.9932   46.2216 C   0  0  0  0  0  0  0  0  0  0  0  0
    8.3395   -3.6608   47.2172 C   0  0  0  0  0  0  0  0  0  0  0  0
    9.6724   -0.4211   46.1538 O   0  0  0  0  0  0  0  0  0  0  0  0
    2.9823   -6.0519   45.6190 C   0  0  0  0  0  0  0  0  0  0  0  0
    9.1825   -2.5615   47.0781 C   0  0  0  0  0  0  0  0  0  0  0  0
   10.5311   -2.3717   47.7459 C   0  0  0  0  0  0  0  0  0  0  0  0
   10.5230   -1.8397   48.7893 O   0  0  0  0  0  0  0  0  0  0  0  0
   11.5120   -3.0288   47.2247 O   0  0  0  0  0  0  0  0  0  0  0  0
   12.1693   -2.2944   46.2229 C   0  0  0  0  0  0  0  0  0  0  0  0
  1  2  2  0
  2  3  1  0
  3  4  2  0
  2  5  1  0
  3  6  1  0
  4  7  1  0
  4  8  1  0
  7  9  1  0
  1 10  1  0
  6 10  1  0
  6 11  2  0
  7 12  2  0
  5 13  2  0
  9 13  1  1
 12 14  1  0
  8 15  2  0
  8 16  1  0
 11 16  1  0
  9 17  1  0
 14 17  2  0
 11 18  1  0
 18 19  2  0
 18 20  1  0
 20 21  2  0
 19 22  1  0
 16 23  2  0
 22 23  1  0
 23 24  1  0
 19 25  1  0
 21 26  1  0
 15 27  1  0
 24 27  2  0
 21 28  1  0
 25 28  2  0
 28 29  1  0
 29 30  2  0
 29 31  1  0
 31 32  1  0
M  END
$$$$
O14757_Pocket2Mol_idx-in-all-generaetd-141
     RDKit          3D

 49 58  0  0  0  0  0  0  0  0999 V2000
    1.5482   -0.3111   41.9233 C   0  0  0  0  0  0  0  0  0  0  0  0
    2.7284    0.2018   42.1525 N   0  0  0  0  0  0  0  0  0  0  0  0
    3.7893   -0.3016   42.7005 C   0  0  0  0  0  0  0  0  0  0  0  0
    3.3781   -1.7350   43.0000 C   0  0  0  0  0  0  0  0  0  0  0  0
    2.0339   -1.9619   42.6217 C   0  0  0  0  0  0  0  0  0  0  0  0
    5.0090    0.1219   42.9340 N   0  0  0  0  0  0  0  0  0  0  0  0
    4.2895   -2.4979   43.6707 C   0  0  0  0  0  0  0  0  0  0  0  0
    5.8391   -0.6675   43.6343 C   0  0  0  0  0  0  0  0  0  0  0  0
    6.9849   -0.2377   44.0028 N   0  0  0  0  0  0  0  0  0  0  0  0
    4.0426   -3.8794   44.0832 C   0  0  0  0  0  0  0  0  0  0  0  0
    7.6796   -0.8734   44.9326 C   0  0  0  0  0  0  0  0  0  0  0  0
    1.1064   -2.9576   42.4211 C   0  0  0  0  0  0  0  0  0  0  0  0
    5.5298   -1.9496   44.0315 C   0  0  0  0  0  0  0  0  0  0  0  0
    3.8954   -4.1817   45.4718 C   0  0  0  0  0  0  0  0  0  0  0  0
    0.6765   -3.5480   43.4006 C   0  0  1  0  0  0  0  0  0  0  0  0
    0.5804   -3.2191   41.1635 C   0  0  0  0  0  0  0  0  0  0  0  0
    2.8083   -4.8227   45.9203 N   0  0  0  0  0  0  0  0  0  0  0  0
   -0.1574   -4.5754   42.9329 N   0  0  0  0  0  0  0  0  0  0  0  0
    6.5271   -2.5531   44.9677 C   0  0  0  0  0  0  0  0  0  0  0  0
   -0.2272   -4.3703   41.5137 C   0  0  0  0  0  0  0  0  0  0  0  0
    7.5095   -2.0029   45.3993 C   0  0  0  0  0  0  0  0  0  0  0  0
    8.2550   -2.6982   46.3988 C   0  0  0  0  0  0  0  0  0  0  0  0
    8.8975   -0.3029   45.3267 O   0  0  0  0  0  0  0  0  0  0  0  0
    4.8299   -4.4637   46.4212 C   0  0  0  0  0  0  0  0  0  0  0  0
    4.2707   -4.9248   47.6295 N   0  0  0  0  0  0  0  0  0  0  0  0
    3.2045   -5.2092   47.1521 C   0  0  0  0  0  0  0  0  0  0  0  0
    1.4482   -4.6186   45.4134 C   0  0  2  0  0  0  0  0  0  0  0  0
    1.2398   -3.5043   44.6236 O   0  0  0  0  0  0  0  0  0  0  0  0
    6.3317   -3.9297   46.0870 C   0  0  2  0  0  0  0  0  0  0  0  0
    9.5296   -2.5449   46.9776 C   0  0  0  0  0  0  0  0  0  0  0  0
    9.7921   -1.7530   47.9018 O   0  0  0  0  0  0  0  0  0  0  0  0
    7.3972   -3.8130   46.7939 C   0  0  0  0  0  0  0  0  0  0  0  0
   10.4154   -3.4217   46.6883 O   0  0  0  0  0  0  0  0  0  0  0  0
    0.5555   -4.7535   46.5674 C   0  0  0  0  0  0  0  0  0  0  0  0
   11.6497   -3.0596   47.0439 C   0  0  0  0  0  0  0  0  0  0  0  0
   12.3878   -4.1125   47.6990 C   0  0  1  0  0  0  0  0  0  0  0  0
   11.8800   -5.2760   47.5659 O   0  0  0  0  0  0  0  0  0  0  0  0
   12.1402   -1.9273   46.5416 C   0  0  0  0  0  0  0  0  0  0  0  0
   13.7566   -3.9428   47.4635 C   0  0  0  0  0  0  0  0  0  0  0  0
   11.3924   -5.9178   48.7514 C   0  0  0  0  0  0  0  0  0  0  0  0
   14.4126   -2.7430   47.0678 C   0  0  0  0  0  0  0  0  0  0  0  0
   13.4817   -1.7494   46.5455 C   0  0  0  0  0  0  0  0  0  0  0  0
   15.7358   -2.5357   47.0594 C   0  0  0  0  0  0  0  0  0  0  0  0
   14.0100   -0.6243   46.0829 C   0  0  0  0  0  0  0  0  0  0  0  0
   16.6116   -3.5372   47.4683 O   0  0  0  0  0  0  0  0  0  0  0  0
   13.1659    0.4962   45.5279 O   0  0  0  0  0  0  0  0  0  0  0  0
   16.2720   -1.3636   46.5134 C   0  0  0  0  0  0  0  0  0  0  0  0
   17.6718   -1.1125   46.4747 O   0  0  0  0  0  0  0  0  0  0  0  0
   15.3919   -0.3298   46.0475 C   0  0  0  0  0  0  0  0  0  0  0  0
  1  2  1  0
  2  3  2  0
  3  4  1  0
  1  5  2  0
  4  5  1  0
  3  6  1  0
  4  7  2  0
  6  8  1  0
  8  9  1  0
  7 10  1  0
  9 11  1  0
  5 12  1  0
  7 13  1  0
  8 13  2  0
 10 14  1  0
 12 15  1  0
 12 16  2  0
 14 17  1  0
 15 18  1  0
 13 19  1  0
 16 20  1  0
 18 20  2  0
 11 21  1  0
 19 21  2  0
 21 22  1  0
 11 23  2  0
 14 24  2  0
 24 25  1  0
 17 26  1  0
 25 26  2  0
 17 27  1  0
 15 28  1  6
 27 28  1  0
 19 29  1  0
 24 29  1  0
 22 30  1  0
 30 31  2  0
 22 32  2  0
 29 32  1  1
 30 33  1  0
 27 34  1  1
 33 35  1  0
 35 36  1  0
 36 37  1  6
 35 38  2  0
 36 39  1  0
 37 40  1  0
 39 41  2  0
 38 42  1  0
 41 42  1  0
 41 43  1  0
 42 44  2  0
 43 45  1  0
 44 46  1  0
 43 47  2  0
 47 48  1  0
 44 49  1  0
 47 49  1  0
M  END
$$$$
O14757_Pocket2Mol_idx-in-all-generaetd-142
     RDKit          3D

 41 49  0  0  0  0  0  0  0  0999 V2000
    1.5482   -0.3111   41.9233 C   0  0  0  0  0  0  0  0  0  0  0  0
    2.7284    0.2018   42.1525 N   0  0  0  0  0  0  0  0  0  0  0  0
    3.7893   -0.3016   42.7005 C   0  0  0  0  0  0  0  0  0  0  0  0
    3.3781   -1.7350   43.0000 C   0  0  0  0  0  0  0  0  0  0  0  0
    2.0339   -1.9619   42.6217 C   0  0  0  0  0  0  0  0  0  0  0  0
    4.1166   -2.4997   43.8458 C   0  0  0  0  0  0  0  0  0  0  0  0
    1.1731   -3.0051   42.5773 C   0  0  0  0  0  0  0  0  0  0  0  0
    0.4701   -3.2344   41.4901 C   0  0  0  0  0  0  0  0  0  0  0  0
    5.3799   -1.7814   44.2691 C   0  0  0  0  0  0  0  0  0  0  0  0
    5.0159   -0.0180   43.1201 N   0  0  0  0  0  0  0  0  0  0  0  0
    5.7693   -0.6937   43.8418 C   0  0  0  0  0  0  0  0  0  0  0  0
    0.8078   -3.6166   43.6782 C   0  0  0  0  0  0  0  0  0  0  0  0
    0.0663   -4.7011   43.7415 N   0  0  0  0  0  0  0  0  0  0  0  0
    6.2223   -2.6843   45.1565 C   0  0  0  0  0  0  0  0  0  0  0  0
    6.9599   -0.2351   44.2608 N   0  0  0  0  0  0  0  0  0  0  0  0
    5.9065   -3.9037   45.7499 N   0  0  0  0  0  0  0  0  0  0  0  0
   -0.5459   -5.1185   42.5870 C   0  0  0  0  0  0  0  0  0  0  0  0
    5.7480   -4.0340   46.9810 C   0  0  0  0  0  0  0  0  0  0  0  0
    7.4448   -1.8511   45.4198 C   0  0  0  0  0  0  0  0  0  0  0  0
    7.7572   -0.7827   45.0128 C   0  0  0  0  0  0  0  0  0  0  0  0
    8.4076   -2.7217   46.4541 C   0  0  0  0  0  0  0  0  0  0  0  0
    9.3167   -2.0988   47.1049 N   0  0  0  0  0  0  0  0  0  0  0  0
   -0.4719   -4.3893   41.5406 C   0  0  0  0  0  0  0  0  0  0  0  0
    8.3667   -4.0284   46.5743 N   0  0  0  0  0  0  0  0  0  0  0  0
    9.5309   -4.3147   47.3094 C   0  0  0  0  0  0  0  0  0  0  0  0
    5.3113   -3.3789   47.8005 O   0  0  0  0  0  0  0  0  0  0  0  0
    9.9022   -5.6301   47.7684 C   0  0  0  0  0  0  0  0  0  0  0  0
    5.4470   -5.5868   47.2096 C   0  0  0  0  0  0  0  0  0  0  0  0
   11.2254   -5.8679   48.0402 C   0  0  0  0  0  0  0  0  0  0  0  0
    8.9736   -6.6532   47.8548 C   0  0  0  0  0  0  0  0  0  0  0  0
   10.0616   -3.0670   47.6360 C   0  0  0  0  0  0  0  0  0  0  0  0
    7.5566   -6.3564   47.5477 N   0  0  0  0  0  0  0  0  0  0  0  0
   12.3328   -4.8893   47.9268 C   0  0  2  0  0  0  0  0  0  0  0  0
   12.2085   -3.9673   46.9997 C   0  0  0  0  0  0  0  0  0  0  0  0
   11.5720   -2.8294   47.8112 C   0  0  0  0  0  0  0  0  0  0  0  0
   11.5497   -7.1871   48.4172 C   0  0  0  0  0  0  0  0  0  0  0  0
   13.5576   -5.8273   47.6737 C   0  0  0  0  0  0  0  0  0  0  0  0
   13.2492   -7.1084   48.3911 C   0  0  0  0  0  0  0  0  0  0  0  0
   10.8211   -8.2540   48.3983 C   0  0  0  0  0  0  0  0  0  0  0  0
    6.3750   -6.1684   48.1126 C   0  0  0  0  0  0  0  0  0  0  0  0
    9.3543   -8.0767   48.1902 C   0  0  0  0  0  0  0  0  0  0  0  0
  1  2  1  0
  2  3  2  0
  3  4  1  0
  1  5  2  0
  4  5  1  0
  4  6  2  0
  5  7  1  0
  7  8  2  0
  6  9  1  0
  3 10  1  0
  9 11  2  0
 10 11  1  0
  7 12  1  0
 12 13  2  0
  9 14  1  0
 11 15  1  0
 14 16  1  0
 13 17  1  0
 16 18  1  0
 14 19  2  0
 15 20  2  0
 19 20  1  0
 19 21  1  0
 21 22  2  0
  8 23  1  0
 17 23  2  0
 21 24  1  0
 24 25  1  0
 18 26  2  0
 25 27  1  0
 18 28  1  0
 27 29  2  0
 27 30  1  0
 22 31  1  0
 25 31  2  0
 30 32  1  0
 29 33  1  0
 33 34  1  6
 31 35  1  0
 34 35  1  0
 29 36  1  0
 33 37  1  0
 36 38  1  0
 37 38  1  0
 36 39  2  0
 28 40  1  0
 32 40  1  0
 30 41  2  0
 39 41  1  0
M  END
$$$$
O14757_Pocket2Mol_idx-in-all-generaetd-143
     RDKit          3D

 48 56  0  0  0  0  0  0  0  0999 V2000
    1.5482   -0.3111   41.9233 C   0  0  0  0  0  0  0  0  0  0  0  0
    2.7284    0.2018   42.1525 N   0  0  0  0  0  0  0  0  0  0  0  0
    3.7893   -0.3016   42.7005 C   0  0  0  0  0  0  0  0  0  0  0  0
    3.3781   -1.7350   43.0000 C   0  0  0  0  0  0  0  0  0  0  0  0
    2.0339   -1.9619   42.6217 C   0  0  0  0  0  0  0  0  0  0  0  0
    5.0090    0.1219   42.9340 N   0  0  0  0  0  0  0  0  0  0  0  0
    4.2895   -2.4979   43.6707 C   0  0  0  0  0  0  0  0  0  0  0  0
    5.8391   -0.6675   43.6343 C   0  0  0  0  0  0  0  0  0  0  0  0
    6.9849   -0.2377   44.0028 N   0  0  0  0  0  0  0  0  0  0  0  0
    4.0426   -3.8794   44.0832 C   0  0  0  0  0  0  0  0  0  0  0  0
    7.6796   -0.8734   44.9326 C   0  0  0  0  0  0  0  0  0  0  0  0
    1.1064   -2.9576   42.4211 C   0  0  0  0  0  0  0  0  0  0  0  0
    5.5298   -1.9496   44.0315 C   0  0  0  0  0  0  0  0  0  0  0  0
    3.8954   -4.1817   45.4718 C   0  0  0  0  0  0  0  0  0  0  0  0
    0.6765   -3.5480   43.4006 C   0  0  1  0  0  0  0  0  0  0  0  0
    0.5804   -3.2191   41.1635 C   0  0  0  0  0  0  0  0  0  0  0  0
    2.8083   -4.8227   45.9203 N   0  0  0  0  0  0  0  0  0  0  0  0
   -0.1574   -4.5754   42.9329 N   0  0  0  0  0  0  0  0  0  0  0  0
    6.5271   -2.5531   44.9677 C   0  0  0  0  0  0  0  0  0  0  0  0
   -0.2272   -4.3703   41.5137 C   0  0  0  0  0  0  0  0  0  0  0  0
    7.5095   -2.0029   45.3993 C   0  0  0  0  0  0  0  0  0  0  0  0
    8.2550   -2.6982   46.3988 C   0  0  2  0  0  0  0  0  0  0  0  0
    8.8975   -0.3029   45.3267 O   0  0  0  0  0  0  0  0  0  0  0  0
    4.8299   -4.4637   46.4212 C   0  0  0  0  0  0  0  0  0  0  0  0
    4.2707   -4.9248   47.6295 N   0  0  0  0  0  0  0  0  0  0  0  0
    3.2045   -5.2092   47.1521 C   0  0  0  0  0  0  0  0  0  0  0  0
    1.4482   -4.6186   45.4134 C   0  0  2  0  0  0  0  0  0  0  0  0
    1.2398   -3.5043   44.6236 O   0  0  0  0  0  0  0  0  0  0  0  0
    6.3317   -3.9297   46.0870 C   0  0  2  0  0  0  0  0  0  0  0  0
    9.5296   -2.5449   46.9776 C   0  0  0  0  0  0  0  0  0  0  0  0
    9.7921   -1.7530   47.9018 O   0  0  0  0  0  0  0  0  0  0  0  0
    7.4454   -3.8344   46.8035 C   0  0  0  0  0  0  0  0  0  0  0  0
   10.5010   -3.0847   46.3190 O   0  0  0  0  0  0  0  0  0  0  0  0
    0.5569   -4.7693   46.5649 C   0  0  0  0  0  0  0  0  0  0  0  0
   11.7452   -2.8462   46.6234 C   0  0  0  0  0  0  0  0  0  0  0  0
   12.4344   -1.8951   45.7393 C   0  0  0  0  0  0  0  0  0  0  0  0
   12.4612   -3.5429   47.5581 C   0  0  0  0  0  0  0  0  0  0  0  0
   11.7737   -4.5216   48.4115 C   0  0  0  0  0  0  0  0  0  0  0  0
   11.7935   -5.7538   48.0263 C   0  0  0  0  0  0  0  0  0  0  0  0
   13.7403   -3.0985   47.8363 C   0  0  0  0  0  0  0  0  0  0  0  0
   11.7592   -1.2853   44.6374 O   0  0  0  0  0  0  0  0  0  0  0  0
   14.4771   -3.7616   48.9318 C   0  0  0  0  0  0  0  0  0  0  0  0
   11.4381   -5.9814   46.7174 O   0  0  0  0  0  0  0  0  0  0  0  0
   12.6126   -6.6322   48.3806 O   0  0  0  0  0  0  0  0  0  0  0  0
   10.3078   -6.8073   46.5188 C   0  0  0  0  0  0  0  0  0  0  0  0
   13.7317   -1.6647   45.7796 C   0  0  0  0  0  0  0  0  0  0  0  0
   14.3744   -0.7570   44.9702 C   0  0  0  0  0  0  0  0  0  0  0  0
   14.4080   -2.2465   46.9545 C   0  0  0  0  0  0  0  0  0  0  0  0
  1  2  1  0
  2  3  2  0
  3  4  1  0
  1  5  2  0
  4  5  1  0
  3  6  1  0
  4  7  2  0
  6  8  1  0
  8  9  1  0
  7 10  1  0
  9 11  1  0
  5 12  1  0
  7 13  1  0
  8 13  2  0
 10 14  1  0
 12 15  1  0
 12 16  2  0
 14 17  1  0
 15 18  1  0
 13 19  1  0
 16 20  1  0
 18 20  2  0
 11 21  1  0
 19 21  2  0
 21 22  1  0
 11 23  2  0
 14 24  2  0
 24 25  1  0
 17 26  1  0
 25 26  2  0
 17 27  1  0
 15 28  1  6
 27 28  1  0
 19 29  1  0
 24 29  1  0
 22 30  1  6
 30 31  2  0
 22 32  1  0
 29 32  1  1
 30 33  1  0
 27 34  1  1
 33 35  1  0
 35 36  2  0
 35 37  1  0
 37 38  1  0
 38 39  1  0
 37 40  2  0
 36 41  1  0
 40 42  1  0
 39 43  1  0
 39 44  2  0
 43 45  1  0
 36 46  1  0
 46 47  1  0
 40 48  1  0
 46 48  2  0
M  END
$$$$
O14757_Pocket2Mol_idx-in-all-generaetd-144
     RDKit          3D

 33 36  0  0  0  0  0  0  0  0999 V2000
    2.2688    0.3052   42.1942 N   0  0  0  0  0  0  0  0  0  0  0  0
    1.5681   -0.5985   42.0391 C   0  0  0  0  0  0  0  0  0  0  0  0
    0.2713   -0.6749   41.4483 C   0  0  0  0  0  0  0  0  0  0  0  0
    3.6365    0.2703   42.6880 C   0  0  0  0  0  0  0  0  0  0  0  0
    3.8321   -1.1348   42.9762 C   0  0  0  0  0  0  0  0  0  0  0  0
    2.8260   -2.0201   42.8203 C   0  0  0  0  0  0  0  0  0  0  0  0
    1.7444   -1.8415   42.3318 N   0  0  0  0  0  0  0  0  0  0  0  0
    3.2538   -3.3101   43.4270 N   0  0  0  0  0  0  0  0  0  0  0  0
    2.4413   -4.3420   43.6264 C   0  0  0  0  0  0  0  0  0  0  0  0
    4.5709   -3.0849   43.9583 C   0  0  0  0  0  0  0  0  0  0  0  0
    4.9539   -1.7198   43.6718 C   0  0  0  0  0  0  0  0  0  0  0  0
    1.7950   -4.3815   44.9098 C   0  0  0  0  0  0  0  0  0  0  0  0
    6.2203   -1.1385   44.0326 C   0  0  0  0  0  0  0  0  0  0  0  0
    2.4006   -4.9997   45.9013 O   0  0  0  0  0  0  0  0  0  0  0  0
    6.9025   -1.6501   45.0796 C   0  0  0  0  0  0  0  0  0  0  0  0
    5.4101   -3.6941   45.0229 C   0  0  0  0  0  0  0  0  0  0  0  0
    5.0219   -4.9002   45.5161 O   0  0  0  0  0  0  0  0  0  0  0  0
    6.6083   -3.0238   45.5442 C   0  0  0  0  0  0  0  0  0  0  0  0
    7.4531   -3.6409   46.5606 C   0  0  0  0  0  0  0  0  0  0  0  0
    8.0146   -0.9691   45.5874 C   0  0  0  0  0  0  0  0  0  0  0  0
    7.1412   -4.8399   47.0721 O   0  0  0  0  0  0  0  0  0  0  0  0
    8.5485   -2.8812   47.0742 C   0  0  0  0  0  0  0  0  0  0  0  0
    9.3616   -3.5571   48.1369 C   0  0  0  0  0  0  0  0  0  0  0  0
    8.8032   -1.5552   46.6208 C   0  0  0  0  0  0  0  0  0  0  0  0
   10.5473   -3.9914   47.7709 N   0  0  0  0  0  0  0  0  0  0  0  0
   10.9872   -4.0859   46.6198 C   0  0  0  0  0  0  0  0  0  0  0  0
   10.5118   -5.1617   45.7974 C   0  0  0  0  0  0  0  0  0  0  0  0
   12.1372   -3.4295   46.0022 C   0  0  0  0  0  0  0  0  0  0  0  0
   12.6732   -2.2327   46.7229 O   0  0  0  0  0  0  0  0  0  0  0  0
   12.5830   -3.7142   44.8204 O   0  0  0  0  0  0  0  0  0  0  0  0
   10.6632   -6.4037   46.2577 C   0  0  0  0  0  0  0  0  0  0  0  0
    9.8095   -7.3882   46.0492 O   0  0  0  0  0  0  0  0  0  0  0  0
   11.8936   -6.9259   46.4253 O   0  0  0  0  0  0  0  0  0  0  0  0
  1  2  2  0
  2  3  1  0
  1  4  1  0
  4  5  1  0
  5  6  2  0
  2  7  1  0
  6  7  1  0
  6  8  1  0
  8  9  1  0
  8 10  1  0
  5 11  1  0
 10 11  2  0
  9 12  1  0
 11 13  1  0
 12 14  1  0
 13 15  2  0
 10 16  1  0
 16 17  1  0
 15 18  1  0
 16 18  2  0
 18 19  1  0
 15 20  1  0
 19 21  1  0
 19 22  2  0
 22 23  1  0
 20 24  2  0
 22 24  1  0
 23 25  1  0
 25 26  1  0
 26 27  2  3
 26 28  1  0
 28 29  1  0
 28 30  2  0
 27 31  1  0
 31 32  1  0
 31 33  2  0
M  END
$$$$
O14757_Pocket2Mol_idx-in-all-generaetd-145
     RDKit          3D

 47 56  0  0  0  0  0  0  0  0999 V2000
    1.5482   -0.3111   41.9233 C   0  0  0  0  0  0  0  0  0  0  0  0
    2.7284    0.2018   42.1525 N   0  0  0  0  0  0  0  0  0  0  0  0
    3.7893   -0.3016   42.7005 C   0  0  0  0  0  0  0  0  0  0  0  0
    3.3781   -1.7350   43.0000 C   0  0  0  0  0  0  0  0  0  0  0  0
    2.0339   -1.9619   42.6217 C   0  0  0  0  0  0  0  0  0  0  0  0
    5.0090    0.1219   42.9340 N   0  0  0  0  0  0  0  0  0  0  0  0
    4.2895   -2.4979   43.6707 C   0  0  0  0  0  0  0  0  0  0  0  0
    5.8391   -0.6675   43.6343 C   0  0  0  0  0  0  0  0  0  0  0  0
    6.9849   -0.2377   44.0028 N   0  0  0  0  0  0  0  0  0  0  0  0
    4.0426   -3.8794   44.0832 C   0  0  0  0  0  0  0  0  0  0  0  0
    7.6796   -0.8734   44.9326 C   0  0  0  0  0  0  0  0  0  0  0  0
    1.1064   -2.9576   42.4211 C   0  0  0  0  0  0  0  0  0  0  0  0
    5.5298   -1.9496   44.0315 C   0  0  0  0  0  0  0  0  0  0  0  0
    3.8954   -4.1817   45.4718 C   0  0  0  0  0  0  0  0  0  0  0  0
    0.6765   -3.5480   43.4006 C   0  0  1  0  0  0  0  0  0  0  0  0
    0.5804   -3.2191   41.1635 C   0  0  0  0  0  0  0  0  0  0  0  0
    2.8083   -4.8227   45.9203 N   0  0  0  0  0  0  0  0  0  0  0  0
   -0.1574   -4.5754   42.9329 N   0  0  0  0  0  0  0  0  0  0  0  0
    6.5271   -2.5531   44.9677 C   0  0  0  0  0  0  0  0  0  0  0  0
   -0.2272   -4.3703   41.5137 C   0  0  0  0  0  0  0  0  0  0  0  0
    7.5095   -2.0029   45.3993 C   0  0  0  0  0  0  0  0  0  0  0  0
    8.2550   -2.6982   46.3988 C   0  0  1  0  0  0  0  0  0  0  0  0
    8.8975   -0.3029   45.3267 O   0  0  0  0  0  0  0  0  0  0  0  0
    4.8299   -4.4637   46.4212 C   0  0  0  0  0  0  0  0  0  0  0  0
    4.2707   -4.9248   47.6295 N   0  0  0  0  0  0  0  0  0  0  0  0
    3.2045   -5.2092   47.1521 C   0  0  0  0  0  0  0  0  0  0  0  0
    1.4482   -4.6186   45.4134 C   0  0  0  0  0  0  0  0  0  0  0  0
    1.3256   -3.7660   44.6394 N   0  0  0  0  0  0  0  0  0  0  0  0
    9.2816   -2.1418   47.1273 N   0  0  0  0  0  0  0  0  0  0  0  0
   10.0629   -3.1324   47.8508 C   0  0  0  0  0  0  0  0  0  0  0  0
    6.3491   -3.8960   46.0844 C   0  0  2  0  0  0  0  0  0  0  0  0
    7.4349   -3.5889   46.9054 C   0  0  0  0  0  0  0  0  0  0  0  0
   10.3145   -2.7271   49.0818 O   0  0  0  0  0  0  0  0  0  0  0  0
    0.6213   -5.4445   45.7455 O   0  0  0  0  0  0  0  0  0  0  0  0
   11.0262   -3.8136   47.1050 C   0  0  0  0  0  0  0  0  0  0  0  0
   12.1704   -3.3854   46.7547 C   0  0  0  0  0  0  0  0  0  0  0  0
   13.1080   -4.1111   46.0053 C   0  0  0  0  0  0  0  0  0  0  0  0
   14.3489   -3.5966   45.7888 C   0  0  0  0  0  0  0  0  0  0  0  0
   12.7430   -5.2725   45.5056 C   0  0  0  0  0  0  0  0  0  0  0  0
   10.8315   -5.3520   46.8908 C   0  0  0  0  0  0  0  0  0  0  0  0
   11.5834   -5.8795   45.9965 C   0  0  0  0  0  0  0  0  0  0  0  0
   14.5673   -2.2844   45.3294 C   0  0  0  0  0  0  0  0  0  0  0  0
   15.6990   -1.9377   44.9307 C   0  0  0  0  0  0  0  0  0  0  0  0
   15.4698   -4.3840   45.9734 C   0  0  0  0  0  0  0  0  0  0  0  0
   15.3726   -5.7464   46.5341 O   0  0  0  0  0  0  0  0  0  0  0  0
   16.8663   -2.6545   45.1307 C   0  0  0  0  0  0  0  0  0  0  0  0
   16.8694   -3.9953   45.7065 C   0  0  0  0  0  0  0  0  0  0  0  0
  1  2  1  0
  2  3  2  0
  3  4  1  0
  1  5  2  0
  4  5  1  0
  3  6  1  0
  4  7  2  0
  6  8  1  0
  8  9  1  0
  7 10  1  0
  9 11  1  0
  5 12  1  0
  7 13  1  0
  8 13  2  0
 10 14  1  0
 12 15  1  0
 12 16  2  0
 14 17  1  0
 15 18  1  0
 13 19  1  0
 16 20  1  0
 18 20  2  0
 11 21  1  0
 19 21  2  0
 21 22  1  0
 11 23  2  0
 14 24  2  0
 24 25  1  0
 17 26  1  0
 25 26  2  0
 17 27  1  0
 15 28  1  6
 27 28  1  0
 22 29  1  1
 29 30  1  0
 19 31  1  0
 24 31  1  0
 22 32  1  0
 31 32  1  1
 30 33  2  0
 27 34  2  0
 30 35  1  0
 35 36  2  0
 36 37  1  0
 37 38  1  0
 37 39  2  0
 35 40  1  0
 39 41  1  0
 40 41  2  0
 38 42  2  0
 42 43  1  0
 38 44  1  0
 44 45  1  0
 43 46  2  0
 44 47  2  0
 46 47  1  0
M  END
$$$$
O14757_Pocket2Mol_idx-in-all-generaetd-146
     RDKit          3D

 35 40  0  0  0  0  0  0  0  0999 V2000
    4.5156    0.0550   42.9895 N   0  0  0  0  0  0  0  0  0  0  0  0
    5.0618   -0.8645   43.5295 C   0  0  0  0  0  0  0  0  0  0  0  0
    4.4350   -2.0604   43.7783 C   0  0  0  0  0  0  0  0  0  0  0  0
    4.9987   -3.0994   44.5839 C   0  0  0  0  0  0  0  0  0  0  0  0
    3.2714   -1.8664   43.0632 C   0  0  0  0  0  0  0  0  0  0  0  0
    6.4064   -0.5942   44.3204 N   0  0  0  0  0  0  0  0  0  0  0  0
    4.3422   -4.3256   44.7203 C   0  0  0  0  0  0  0  0  0  0  0  0
    2.1845   -2.6668   42.8270 N   0  0  0  0  0  0  0  0  0  0  0  0
    3.3305   -0.5395   42.5465 N   0  0  0  0  0  0  0  0  0  0  0  0
    1.9502   -3.8972   43.4076 C   0  0  0  0  0  0  0  0  0  0  0  0
    2.7156   -4.1184   44.6954 N   0  0  0  0  0  0  0  0  0  0  0  0
    6.8581   -1.5862   45.1101 C   0  0  0  0  0  0  0  0  0  0  0  0
    6.1801   -2.8430   45.2383 C   0  0  0  0  0  0  0  0  0  0  0  0
    2.1454   -5.1901   45.5771 C   0  0  0  0  0  0  0  0  0  0  0  0
    8.0137   -1.3946   45.8526 C   0  0  0  0  0  0  0  0  0  0  0  0
    0.9733   -4.5725   43.2066 O   0  0  0  0  0  0  0  0  0  0  0  0
    2.2437    0.0035   41.8733 C   0  0  0  0  0  0  0  0  0  0  0  0
    1.3210   -2.2077   41.7009 C   0  0  0  0  0  0  0  0  0  0  0  0
    8.6047   -2.2876   46.6923 C   0  0  0  0  0  0  0  0  0  0  0  0
    7.9141   -3.5157   46.8869 C   0  0  0  0  0  0  0  0  0  0  0  0
    1.0501   -0.8658   41.6612 C   0  0  0  0  0  0  0  0  0  0  0  0
    6.7278   -3.7718   46.2525 C   0  0  0  0  0  0  0  0  0  0  0  0
    9.8280   -2.0492   47.3361 C   0  0  0  0  0  0  0  0  0  0  0  0
    9.8262   -1.5735   48.5432 C   0  0  0  0  0  0  0  0  0  0  0  0
   11.0745   -2.0905   46.6735 C   0  0  0  0  0  0  0  0  0  0  0  0
   11.1189   -2.5101   45.2315 C   0  0  0  0  0  0  0  0  0  0  0  0
    8.6548   -1.3952   49.4178 O   0  0  0  0  0  0  0  0  0  0  0  0
   12.2483   -1.7792   47.2003 C   0  0  0  0  0  0  0  0  0  0  0  0
   11.0576   -1.2774   49.2428 C   0  0  0  0  0  0  0  0  0  0  0  0
   11.5052   -1.6078   44.3227 O   0  0  0  0  0  0  0  0  0  0  0  0
   11.1580   -3.7190   44.8404 O   0  0  0  0  0  0  0  0  0  0  0  0
   11.0261   -0.9189   50.6486 O   0  0  0  0  0  0  0  0  0  0  0  0
   11.3838    0.3141   50.9946 C   0  0  0  0  0  0  0  0  0  0  0  0
   13.5013   -1.9168   46.5124 O   0  0  0  0  0  0  0  0  0  0  0  0
   12.1520   -1.3569   48.5913 C   0  0  0  0  0  0  0  0  0  0  0  0
  1  2  2  0
  2  3  1  0
  3  4  1  0
  3  5  2  0
  2  6  1  0
  4  7  1  0
  5  8  1  0
  1  9  1  0
  5  9  1  0
  8 10  1  0
  7 11  1  0
 10 11  1  0
  6 12  2  0
  4 13  2  0
 12 13  1  0
 11 14  1  0
 12 15  1  0
 10 16  2  0
  9 17  1  0
  8 18  1  0
 15 19  2  0
 19 20  1  0
 17 21  1  0
 18 21  1  0
 13 22  1  0
 20 22  2  0
 19 23  1  0
 23 24  2  0
 23 25  1  0
 25 26  1  0
 24 27  1  0
 25 28  2  0
 24 29  1  0
 26 30  2  0
 26 31  1  0
 29 32  1  0
 32 33  1  0
 28 34  1  0
 28 35  1  0
 29 35  2  0
M  END
$$$$
O14757_Pocket2Mol_idx-in-all-generaetd-147
     RDKit          3D

 19 21  0  0  0  0  0  0  0  0999 V2000
    5.3420    0.2589   42.8836 N   0  0  0  0  0  0  0  0  0  0  0  0
    5.6740   -0.8311   43.5645 C   0  0  0  0  0  0  0  0  0  0  0  0
    3.9899   -0.0458   42.5141 N   0  0  0  0  0  0  0  0  0  0  0  0
    4.6606   -1.7163   43.6337 C   0  0  0  0  0  0  0  0  0  0  0  0
    3.6244   -1.2025   42.8928 C   0  0  0  0  0  0  0  0  0  0  0  0
    2.3780   -1.7713   42.6359 C   0  0  0  0  0  0  0  0  0  0  0  0
    4.5721   -3.0267   44.2590 C   0  0  0  0  0  0  0  0  0  0  0  0
    1.3110   -1.1954   41.9273 C   0  0  0  0  0  0  0  0  0  0  0  0
    2.2543   -3.0870   43.2441 C   0  0  0  0  0  0  0  0  0  0  0  0
    3.1715   -3.6328   44.0301 C   0  0  0  0  0  0  0  0  0  0  0  0
    6.9681   -1.0792   44.3218 C   0  0  0  0  0  0  0  0  0  0  0  0
    0.2874   -1.9049   41.5221 C   0  0  0  0  0  0  0  0  0  0  0  0
    0.2424   -3.3389   41.9586 C   0  0  0  0  0  0  0  0  0  0  0  0
    1.2126   -3.6750   42.9131 C   0  0  0  0  0  0  0  0  0  0  0  0
    7.0877   -1.0597   45.7204 C   0  0  0  0  0  0  0  0  0  0  0  0
    8.3531   -1.3427   46.3425 C   0  0  0  0  0  0  0  0  0  0  0  0
    8.6734   -2.6549   46.4718 O   0  0  0  0  0  0  0  0  0  0  0  0
    9.3693   -0.6488   46.0543 O   0  0  0  0  0  0  0  0  0  0  0  0
    9.8674   -3.0946   46.8127 C   0  0  0  0  0  0  0  0  0  0  0  0
  1  2  2  0
  1  3  1  0
  2  4  1  0
  3  5  1  0
  4  5  2  0
  5  6  1  0
  4  7  1  0
  6  8  2  0
  6  9  1  0
  7 10  2  0
  9 10  1  0
  2 11  1  0
  8 12  1  0
 12 13  2  0
  9 14  2  0
 13 14  1  0
 11 15  1  0
 15 16  1  0
 16 17  1  0
 16 18  2  0
 17 19  1  0
M  END
$$$$
O14757_Pocket2Mol_idx-in-all-generaetd-148
     RDKit          3D

 42 48  0  0  0  0  0  0  0  0999 V2000
    1.5482   -0.3111   41.9233 C   0  0  0  0  0  0  0  0  0  0  0  0
    2.7284    0.2018   42.1525 N   0  0  0  0  0  0  0  0  0  0  0  0
    3.7893   -0.3016   42.7005 C   0  0  0  0  0  0  0  0  0  0  0  0
    3.3781   -1.7350   43.0000 C   0  0  0  0  0  0  0  0  0  0  0  0
    2.0339   -1.9619   42.6217 C   0  0  0  0  0  0  0  0  0  0  0  0
    4.1166   -2.4997   43.8458 C   0  0  0  0  0  0  0  0  0  0  0  0
    1.1731   -3.0051   42.5773 C   0  0  0  0  0  0  0  0  0  0  0  0
    0.4701   -3.2344   41.4901 C   0  0  0  0  0  0  0  0  0  0  0  0
    5.3799   -1.7814   44.2691 C   0  0  0  0  0  0  0  0  0  0  0  0
    5.0159   -0.0180   43.1201 N   0  0  0  0  0  0  0  0  0  0  0  0
    5.7693   -0.6937   43.8418 C   0  0  0  0  0  0  0  0  0  0  0  0
    0.8078   -3.6166   43.6782 C   0  0  0  0  0  0  0  0  0  0  0  0
    0.0663   -4.7011   43.7415 N   0  0  0  0  0  0  0  0  0  0  0  0
    6.2223   -2.6843   45.1565 C   0  0  0  0  0  0  0  0  0  0  0  0
    1.4459   -3.3095   45.0236 O   0  0  0  0  0  0  0  0  0  0  0  0
   -0.5278   -5.1074   42.5506 C   0  0  0  0  0  0  0  0  0  0  0  0
   -1.3099   -6.2193   42.5332 N   0  0  0  0  0  0  0  0  0  0  0  0
   -0.3906   -4.3573   41.3904 C   0  0  0  0  0  0  0  0  0  0  0  0
    7.0535   -0.4845   44.4478 N   0  0  0  0  0  0  0  0  0  0  0  0
    0.6210   -3.8397   46.1835 C   0  0  0  0  0  0  0  0  0  0  0  0
    6.2906   -3.7888   45.8815 C   0  0  0  0  0  0  0  0  0  0  0  0
    7.3965   -1.5466   45.3147 C   0  0  0  0  0  0  0  0  0  0  0  0
    5.1449   -4.4973   46.0473 O   0  0  0  0  0  0  0  0  0  0  0  0
    7.4148   -4.1081   46.6372 C   0  0  0  0  0  0  0  0  0  0  0  0
    8.5011   -3.1747   46.6693 C   0  0  0  0  0  0  0  0  0  0  0  0
    8.4580   -1.9168   46.0438 C   0  0  0  0  0  0  0  0  0  0  0  0
    9.8193   -3.4927   47.5654 C   0  0  1  0  0  0  0  0  0  0  0  0
    4.3482   -4.5667   47.1383 C   0  0  0  0  0  0  0  0  0  0  0  0
   10.8925   -3.4519   46.9633 C   0  0  0  0  0  0  0  0  0  0  0  0
   11.7691   -2.4393   47.2298 N   0  0  0  0  0  0  0  0  0  0  0  0
   11.5679   -1.6048   48.2682 C   0  0  0  0  0  0  0  0  0  0  0  0
   13.2337   -2.7224   46.9899 C   0  0  0  0  0  0  0  0  0  0  0  0
   11.1468   -4.1806   45.9346 O   0  0  0  0  0  0  0  0  0  0  0  0
   14.0674   -3.2434   47.7193 C   0  0  0  0  0  0  0  0  0  0  0  0
   13.7337   -3.8357   48.9955 C   0  0  0  0  0  0  0  0  0  0  0  0
   10.6978   -1.8484   49.2819 O   0  0  0  0  0  0  0  0  0  0  0  0
   15.4145   -3.0897   47.4674 C   0  0  0  0  0  0  0  0  0  0  0  0
    9.6472   -2.6784   48.9278 C   0  0  0  0  0  0  0  0  0  0  0  0
   13.6545   -2.0164   45.7227 C   0  0  0  0  0  0  0  0  0  0  0  0
   16.4118   -3.7616   48.3438 O   0  0  0  0  0  0  0  0  0  0  0  0
   14.9691   -2.0103   45.4284 C   0  0  0  0  0  0  0  0  0  0  0  0
   15.8692   -2.5812   46.2469 C   0  0  0  0  0  0  0  0  0  0  0  0
  1  2  1  0
  2  3  2  0
  3  4  1  0
  1  5  2  0
  4  5  1  0
  4  6  2  0
  5  7  1  0
  7  8  2  0
  6  9  1  0
  3 10  1  0
  9 11  1  0
 10 11  1  0
  7 12  1  0
 12 13  2  0
  9 14  2  0
 12 15  1  0
 13 16  1  0
 16 17  1  0
  8 18  1  0
 16 18  2  0
 11 19  2  0
 15 20  1  0
 14 21  1  0
 14 22  1  0
 19 22  1  0
 21 23  1  0
 21 24  2  0
 24 25  1  0
 22 26  2  0
 25 26  2  0
 27 25  1  6
 23 28  1  0
 27 29  1  0
 29 30  1  0
 30 31  1  0
 30 32  1  0
 29 33  2  0
 32 34  2  0
 34 35  1  0
 31 36  1  0
 34 37  1  0
 27 38  1  0
 36 38  1  0
 32 39  1  0
 37 40  1  0
 39 41  2  0
 37 42  2  0
 41 42  1  0
M  END
$$$$
O14757_Pocket2Mol_idx-in-all-generaetd-149
     RDKit          3D

 38 42  0  0  0  0  0  0  0  0999 V2000
    3.7044    0.1389   42.5158 N   0  0  0  0  0  0  0  0  0  0  0  0
    3.0206   -1.0018   42.4929 C   0  0  0  0  0  0  0  0  0  0  0  0
    3.4791   -2.0817   43.2077 C   0  0  0  0  0  0  0  0  0  0  0  0
    4.8540    0.3862   43.0582 N   0  0  0  0  0  0  0  0  0  0  0  0
    5.1377   -0.9552   43.7144 C   0  0  0  0  0  0  0  0  0  0  0  0
    1.5846   -1.0753   41.7644 C   0  0  0  0  0  0  0  0  0  0  0  0
    4.6026   -2.0358   43.8129 C   0  0  0  0  0  0  0  0  0  0  0  0
    5.1584   -3.1511   44.6069 C   0  0  0  0  0  0  0  0  0  0  0  0
    6.6094   -0.7911   44.3696 N   0  0  0  0  0  0  0  0  0  0  0  0
    4.4744   -4.3270   44.8472 C   0  0  0  0  0  0  0  0  0  0  0  0
    6.9275   -1.8713   45.2437 C   0  0  0  0  0  0  0  0  0  0  0  0
    8.2702   -1.7750   45.8768 C   0  0  0  0  0  0  0  0  0  0  0  0
    0.9365   -0.0867   41.7346 O   0  0  0  0  0  0  0  0  0  0  0  0
    6.2322   -3.0484   45.3118 C   0  0  0  0  0  0  0  0  0  0  0  0
    6.7747   -4.0433   46.1202 N   0  0  0  0  0  0  0  0  0  0  0  0
    1.2161   -2.2739   41.2518 N   0  0  0  0  0  0  0  0  0  0  0  0
    9.0373   -0.5649   45.9132 O   0  0  0  0  0  0  0  0  0  0  0  0
    3.8907   -5.0906   43.9511 O   0  0  0  0  0  0  0  0  0  0  0  0
    4.3454   -4.8388   46.1621 N   0  0  0  0  0  0  0  0  0  0  0  0
    3.4531   -5.8952   46.4159 C   0  0  0  0  0  0  0  0  0  0  0  0
    8.6904   -2.8983   46.6073 N   0  0  0  0  0  0  0  0  0  0  0  0
    7.9257   -3.9393   46.7384 C   0  0  0  0  0  0  0  0  0  0  0  0
    8.4765   -4.8975   47.5307 O   0  0  0  0  0  0  0  0  0  0  0  0
   10.0100   -2.6771   47.3464 C   0  0  0  0  0  0  0  0  0  0  0  0
   10.0326   -1.8380   48.3764 C   0  0  0  0  0  0  0  0  0  0  0  0
   11.1123   -3.0851   46.6870 C   0  0  0  0  0  0  0  0  0  0  0  0
   11.1072   -3.8213   45.4597 C   0  0  0  0  0  0  0  0  0  0  0  0
   11.0296   -5.0092   45.4509 C   0  0  0  0  0  0  0  0  0  0  0  0
   12.3326   -2.5048   47.0028 C   0  0  0  0  0  0  0  0  0  0  0  0
   13.5735   -2.8551   46.3066 C   0  0  0  0  0  0  0  0  0  0  0  0
   12.4256   -1.8909   48.2805 C   0  0  0  0  0  0  0  0  0  0  0  0
   11.1065   -5.8602   44.2346 C   0  0  0  0  0  0  0  0  0  0  0  0
   13.7113   -1.5168   48.7735 C   0  0  0  0  0  0  0  0  0  0  0  0
   14.8334   -2.4198   46.8061 C   0  0  0  0  0  0  0  0  0  0  0  0
    8.9079   -1.6677   49.1756 O   0  0  0  0  0  0  0  0  0  0  0  0
   16.0616   -2.6613   46.0884 C   0  0  0  0  0  0  0  0  0  0  0  0
   14.9847   -1.7409   48.0656 C   0  0  0  0  0  0  0  0  0  0  0  0
   11.3475   -1.6668   49.1442 C   0  0  0  0  0  0  0  0  0  0  0  0
  1  2  2  0
  2  3  1  0
  1  4  1  0
  4  5  2  0
  2  6  1  0
  3  7  2  0
  5  7  1  0
  7  8  1  0
  5  9  1  0
  8 10  1  0
  9 11  2  0
 11 12  1  0
  6 13  2  0
  8 14  2  0
 11 14  1  0
 14 15  1  0
  6 16  1  0
 12 17  2  0
 10 18  2  0
 10 19  1  0
 19 20  1  0
 12 21  1  0
 15 22  1  0
 21 22  1  0
 22 23  2  0
 21 24  1  0
 24 25  2  0
 24 26  1  0
 26 27  1  0
 27 28  2  3
 26 29  2  0
 29 30  1  0
 29 31  1  0
 28 32  1  0
 31 33  1  0
 30 34  2  0
 25 35  1  0
 34 36  1  0
 33 37  2  0
 34 37  1  0
 25 38  1  0
 31 38  2  0
M  END
$$$$
O14757_Pocket2Mol_idx-in-all-generaetd-150
     RDKit          3D

 39 47  0  0  0  0  0  0  0  0999 V2000
    1.5482   -0.3111   41.9233 C   0  0  0  0  0  0  0  0  0  0  0  0
    2.7284    0.2018   42.1525 N   0  0  0  0  0  0  0  0  0  0  0  0
    3.7893   -0.3016   42.7005 C   0  0  0  0  0  0  0  0  0  0  0  0
    3.3781   -1.7350   43.0000 C   0  0  0  0  0  0  0  0  0  0  0  0
    2.0339   -1.9619   42.6217 C   0  0  0  0  0  0  0  0  0  0  0  0
    5.0090    0.1219   42.9340 N   0  0  0  0  0  0  0  0  0  0  0  0
    4.2895   -2.4979   43.6707 C   0  0  0  0  0  0  0  0  0  0  0  0
    5.8391   -0.6675   43.6343 C   0  0  0  0  0  0  0  0  0  0  0  0
    6.9849   -0.2377   44.0028 N   0  0  0  0  0  0  0  0  0  0  0  0
    4.0426   -3.8794   44.0832 C   0  0  0  0  0  0  0  0  0  0  0  0
    7.6796   -0.8734   44.9326 C   0  0  0  0  0  0  0  0  0  0  0  0
    1.1064   -2.9576   42.4211 C   0  0  0  0  0  0  0  0  0  0  0  0
    5.5298   -1.9496   44.0315 C   0  0  0  0  0  0  0  0  0  0  0  0
    3.8954   -4.1817   45.4718 C   0  0  0  0  0  0  0  0  0  0  0  0
    0.6765   -3.5480   43.4006 C   0  0  1  0  0  0  0  0  0  0  0  0
    0.5804   -3.2191   41.1635 C   0  0  0  0  0  0  0  0  0  0  0  0
    2.8083   -4.8227   45.9203 N   0  0  0  0  0  0  0  0  0  0  0  0
   -0.1574   -4.5754   42.9329 N   0  0  0  0  0  0  0  0  0  0  0  0
    6.5271   -2.5531   44.9677 C   0  0  0  0  0  0  0  0  0  0  0  0
   -0.2272   -4.3703   41.5137 C   0  0  0  0  0  0  0  0  0  0  0  0
    7.5095   -2.0029   45.3993 C   0  0  0  0  0  0  0  0  0  0  0  0
    8.2550   -2.6982   46.3988 C   0  0  1  0  0  0  0  0  0  0  0  0
    8.8975   -0.3029   45.3267 O   0  0  0  0  0  0  0  0  0  0  0  0
    4.8299   -4.4637   46.4212 C   0  0  0  0  0  0  0  0  0  0  0  0
    4.2707   -4.9248   47.6295 N   0  0  0  0  0  0  0  0  0  0  0  0
    3.2045   -5.2092   47.1521 C   0  0  0  0  0  0  0  0  0  0  0  0
    1.4482   -4.6186   45.4134 C   0  0  0  0  0  0  0  0  0  0  0  0
    1.3256   -3.7660   44.6394 N   0  0  0  0  0  0  0  0  0  0  0  0
    9.2816   -2.1418   47.1273 N   0  0  0  0  0  0  0  0  0  0  0  0
   10.0629   -3.1324   47.8508 C   0  0  0  0  0  0  0  0  0  0  0  0
    6.3491   -3.8960   46.0844 C   0  0  2  0  0  0  0  0  0  0  0  0
    7.4349   -3.5889   46.9054 C   0  0  0  0  0  0  0  0  0  0  0  0
   10.3145   -2.7271   49.0818 O   0  0  0  0  0  0  0  0  0  0  0  0
   11.0221   -3.8171   47.1052 C   0  0  2  0  0  0  0  0  0  0  0  0
    0.8710   -5.7412   45.2074 O   0  0  0  0  0  0  0  0  0  0  0  0
   12.1654   -3.3890   46.7468 C   0  0  0  0  0  0  0  0  0  0  0  0
   10.4421   -4.5589   46.0494 O   0  0  0  0  0  0  0  0  0  0  0  0
   11.5184   -4.9910   45.2877 C   0  0  0  0  0  0  0  0  0  0  0  0
   12.5642   -4.6317   45.9277 O   0  0  0  0  0  0  0  0  0  0  0  0
  1  2  1  0
  2  3  2  0
  3  4  1  0
  1  5  2  0
  4  5  1  0
  3  6  1  0
  4  7  2  0
  6  8  1  0
  8  9  1  0
  7 10  1  0
  9 11  1  0
  5 12  1  0
  7 13  1  0
  8 13  2  0
 10 14  1  0
 12 15  1  0
 12 16  2  0
 14 17  1  0
 15 18  1  0
 13 19  1  0
 16 20  1  0
 18 20  2  0
 11 21  1  0
 19 21  2  0
 21 22  1  0
 11 23  2  0
 14 24  2  0
 24 25  1  0
 17 26  1  0
 25 26  2  0
 17 27  1  0
 15 28  1  6
 27 28  1  0
 22 29  1  1
 29 30  1  0
 19 31  1  0
 24 31  1  0
 22 32  1  0
 31 32  1  1
 30 33  2  0
 34 30  1  6
 27 35  2  0
 34 36  1  0
 34 37  1  0
 37 38  1  0
 36 39  1  0
 38 39  1  0
M  END
$$$$
O14757_Pocket2Mol_idx-in-all-generaetd-151
     RDKit          3D

 43 51  0  0  0  0  0  0  0  0999 V2000
    1.5482   -0.3111   41.9233 C   0  0  0  0  0  0  0  0  0  0  0  0
    2.7284    0.2018   42.1525 N   0  0  0  0  0  0  0  0  0  0  0  0
    3.7893   -0.3016   42.7005 C   0  0  0  0  0  0  0  0  0  0  0  0
    3.3781   -1.7350   43.0000 C   0  0  0  0  0  0  0  0  0  0  0  0
    2.0339   -1.9619   42.6217 C   0  0  0  0  0  0  0  0  0  0  0  0
    5.0090    0.1219   42.9340 N   0  0  0  0  0  0  0  0  0  0  0  0
    4.2895   -2.4979   43.6707 C   0  0  0  0  0  0  0  0  0  0  0  0
    5.8391   -0.6675   43.6343 C   0  0  0  0  0  0  0  0  0  0  0  0
    6.9849   -0.2377   44.0028 N   0  0  0  0  0  0  0  0  0  0  0  0
    4.0426   -3.8794   44.0832 C   0  0  0  0  0  0  0  0  0  0  0  0
    7.6796   -0.8734   44.9326 C   0  0  0  0  0  0  0  0  0  0  0  0
    1.1064   -2.9576   42.4211 C   0  0  0  0  0  0  0  0  0  0  0  0
    5.5298   -1.9496   44.0315 C   0  0  0  0  0  0  0  0  0  0  0  0
    3.8954   -4.1817   45.4718 C   0  0  0  0  0  0  0  0  0  0  0  0
    0.6765   -3.5480   43.4006 C   0  0  1  0  0  0  0  0  0  0  0  0
    0.5804   -3.2191   41.1635 C   0  0  0  0  0  0  0  0  0  0  0  0
    2.8083   -4.8227   45.9203 N   0  0  0  0  0  0  0  0  0  0  0  0
   -0.1574   -4.5754   42.9329 N   0  0  0  0  0  0  0  0  0  0  0  0
    6.5271   -2.5531   44.9677 C   0  0  0  0  0  0  0  0  0  0  0  0
   -0.2272   -4.3703   41.5137 C   0  0  0  0  0  0  0  0  0  0  0  0
    7.5095   -2.0029   45.3993 C   0  0  0  0  0  0  0  0  0  0  0  0
    8.2550   -2.6982   46.3988 C   0  0  0  0  0  0  0  0  0  0  0  0
    8.8975   -0.3029   45.3267 O   0  0  0  0  0  0  0  0  0  0  0  0
    4.8299   -4.4637   46.4212 C   0  0  0  0  0  0  0  0  0  0  0  0
    4.2707   -4.9248   47.6295 N   0  0  0  0  0  0  0  0  0  0  0  0
    3.2045   -5.2092   47.1521 C   0  0  0  0  0  0  0  0  0  0  0  0
    1.4482   -4.6186   45.4134 C   0  0  1  0  0  0  0  0  0  0  0  0
    1.2398   -3.5043   44.6236 O   0  0  0  0  0  0  0  0  0  0  0  0
    6.3317   -3.9297   46.0870 C   0  0  2  0  0  0  0  0  0  0  0  0
    9.5296   -2.5449   46.9776 C   0  0  0  0  0  0  0  0  0  0  0  0
    9.7921   -1.7530   47.9018 O   0  0  0  0  0  0  0  0  0  0  0  0
    7.3972   -3.8130   46.7939 C   0  0  0  0  0  0  0  0  0  0  0  0
    1.2392   -5.7793   44.5610 C   0  0  0  0  0  0  0  0  0  0  0  0
   10.4982   -3.2564   46.4837 N   0  0  0  0  0  0  0  0  0  0  0  0
   11.8686   -3.0564   46.9374 C   0  0  0  0  0  0  0  0  0  0  0  0
   10.3143   -4.3335   45.5931 C   0  0  0  0  0  0  0  0  0  0  0  0
   10.5171   -5.6681   46.1791 C   0  0  0  0  0  0  0  0  0  0  0  0
   12.8315   -2.7175   45.9073 C   0  0  0  0  0  0  0  0  0  0  0  0
   14.1197   -2.6036   46.2175 C   0  0  0  0  0  0  0  0  0  0  0  0
   14.2909   -2.8507   47.6088 C   0  0  0  0  0  0  0  0  0  0  0  0
   12.2962   -3.3609   48.0945 C   0  0  0  0  0  0  0  0  0  0  0  0
   13.5748   -3.1479   48.4039 C   0  0  0  0  0  0  0  0  0  0  0  0
   15.8394   -2.6149   47.7176 O   0  0  0  0  0  0  0  0  0  0  0  0
  1  2  1  0
  2  3  2  0
  3  4  1  0
  1  5  2  0
  4  5  1  0
  3  6  1  0
  4  7  2  0
  6  8  1  0
  8  9  1  0
  7 10  1  0
  9 11  1  0
  5 12  1  0
  7 13  1  0
  8 13  2  0
 10 14  1  0
 12 15  1  0
 12 16  2  0
 14 17  1  0
 15 18  1  0
 13 19  1  0
 16 20  1  0
 18 20  2  0
 11 21  1  0
 19 21  2  0
 21 22  1  0
 11 23  2  0
 14 24  2  0
 24 25  1  0
 17 26  1  0
 25 26  2  0
 17 27  1  0
 15 28  1  6
 27 28  1  0
 19 29  1  0
 24 29  1  0
 22 30  1  0
 30 31  2  0
 22 32  2  0
 29 32  1  1
 27 33  1  6
 30 34  1  0
 34 35  1  0
 34 36  1  0
 36 37  1  0
 35 38  2  0
 38 39  1  0
 39 40  2  0
 35 41  1  0
 40 42  1  0
 41 42  2  0
 40 43  1  0
M  END
$$$$
O14757_Pocket2Mol_idx-in-all-generaetd-152
     RDKit          3D

 35 39  0  0  0  0  0  0  0  0999 V2000
    3.7044    0.1389   42.5158 N   0  0  0  0  0  0  0  0  0  0  0  0
    3.0206   -1.0018   42.4929 C   0  0  0  0  0  0  0  0  0  0  0  0
    3.4791   -2.0817   43.2077 C   0  0  0  0  0  0  0  0  0  0  0  0
    4.8540    0.3862   43.0582 N   0  0  0  0  0  0  0  0  0  0  0  0
    5.1377   -0.9552   43.7144 C   0  0  0  0  0  0  0  0  0  0  0  0
    1.5846   -1.0753   41.7644 C   0  0  0  0  0  0  0  0  0  0  0  0
    4.6026   -2.0358   43.8129 C   0  0  0  0  0  0  0  0  0  0  0  0
    5.1584   -3.1511   44.6069 C   0  0  0  0  0  0  0  0  0  0  0  0
    6.6094   -0.7911   44.3696 N   0  0  0  0  0  0  0  0  0  0  0  0
    4.4744   -4.3270   44.8472 C   0  0  0  0  0  0  0  0  0  0  0  0
    6.9275   -1.8713   45.2437 C   0  0  0  0  0  0  0  0  0  0  0  0
    8.2702   -1.7750   45.8768 C   0  0  0  0  0  0  0  0  0  0  0  0
    0.9365   -0.0867   41.7346 O   0  0  0  0  0  0  0  0  0  0  0  0
    6.2322   -3.0484   45.3118 C   0  0  0  0  0  0  0  0  0  0  0  0
    6.7747   -4.0433   46.1202 N   0  0  0  0  0  0  0  0  0  0  0  0
    1.2161   -2.2739   41.2518 N   0  0  0  0  0  0  0  0  0  0  0  0
    9.0373   -0.5649   45.9132 O   0  0  0  0  0  0  0  0  0  0  0  0
    3.8907   -5.0906   43.9511 O   0  0  0  0  0  0  0  0  0  0  0  0
    4.3454   -4.8388   46.1621 N   0  0  0  0  0  0  0  0  0  0  0  0
    3.4531   -5.8952   46.4159 C   0  0  0  0  0  0  0  0  0  0  0  0
    8.6904   -2.8983   46.6073 N   0  0  0  0  0  0  0  0  0  0  0  0
    7.9257   -3.9393   46.7384 C   0  0  0  0  0  0  0  0  0  0  0  0
    8.4765   -4.8975   47.5307 O   0  0  0  0  0  0  0  0  0  0  0  0
   10.0100   -2.6771   47.3464 C   0  0  0  0  0  0  0  0  0  0  0  0
   10.0326   -1.8380   48.3764 C   0  0  0  0  0  0  0  0  0  0  0  0
   11.1123   -3.0851   46.6870 C   0  0  0  0  0  0  0  0  0  0  0  0
   11.1072   -3.8213   45.4597 C   0  0  0  0  0  0  0  0  0  0  0  0
   11.0296   -5.0092   45.4509 C   0  0  0  0  0  0  0  0  0  0  0  0
   12.3070   -2.8131   47.3724 C   0  0  0  0  0  0  0  0  0  0  0  0
    8.7942   -1.4583   49.0876 C   0  0  0  0  0  0  0  0  0  0  0  0
   11.2356   -1.6963   49.0482 C   0  0  0  0  0  0  0  0  0  0  0  0
   11.2620   -0.9668   50.3858 C   0  0  0  0  0  0  0  0  0  0  0  0
   12.4109   -2.2139   48.4472 C   0  0  0  0  0  0  0  0  0  0  0  0
   10.0978   -0.5842   50.9004 C   0  0  0  0  0  0  0  0  0  0  0  0
    8.9367   -0.9863   50.3184 C   0  0  0  0  0  0  0  0  0  0  0  0
  1  2  2  0
  2  3  1  0
  1  4  1  0
  4  5  2  0
  2  6  1  0
  3  7  2  0
  5  7  1  0
  7  8  1  0
  5  9  1  0
  8 10  1  0
  9 11  2  0
 11 12  1  0
  6 13  2  0
  8 14  2  0
 11 14  1  0
 14 15  1  0
  6 16  1  0
 12 17  2  0
 10 18  2  0
 10 19  1  0
 19 20  1  0
 12 21  1  0
 15 22  1  0
 21 22  1  0
 22 23  2  0
 21 24  1  0
 24 25  1  0
 24 26  2  0
 26 27  1  0
 27 28  2  0
 26 29  1  0
 25 30  2  0
 25 31  1  0
 31 32  2  0
 29 33  2  0
 31 33  1  0
 32 34  1  0
 30 35  1  0
 34 35  2  0
M  END
$$$$
O14757_Pocket2Mol_idx-in-all-generaetd-153
     RDKit          3D

 45 54  0  0  0  0  0  0  0  0999 V2000
    1.5482   -0.3111   41.9233 C   0  0  0  0  0  0  0  0  0  0  0  0
    2.7284    0.2018   42.1525 N   0  0  0  0  0  0  0  0  0  0  0  0
    3.7893   -0.3016   42.7005 C   0  0  0  0  0  0  0  0  0  0  0  0
    3.3781   -1.7350   43.0000 C   0  0  0  0  0  0  0  0  0  0  0  0
    2.0339   -1.9619   42.6217 C   0  0  0  0  0  0  0  0  0  0  0  0
    5.0090    0.1219   42.9340 N   0  0  0  0  0  0  0  0  0  0  0  0
    4.2895   -2.4979   43.6707 C   0  0  0  0  0  0  0  0  0  0  0  0
    5.8391   -0.6675   43.6343 C   0  0  0  0  0  0  0  0  0  0  0  0
    6.9849   -0.2377   44.0028 N   0  0  0  0  0  0  0  0  0  0  0  0
    4.0426   -3.8794   44.0832 C   0  0  0  0  0  0  0  0  0  0  0  0
    7.6796   -0.8734   44.9326 C   0  0  0  0  0  0  0  0  0  0  0  0
    1.1064   -2.9576   42.4211 C   0  0  0  0  0  0  0  0  0  0  0  0
    5.5298   -1.9496   44.0315 C   0  0  0  0  0  0  0  0  0  0  0  0
    3.8954   -4.1817   45.4718 C   0  0  0  0  0  0  0  0  0  0  0  0
    0.6765   -3.5480   43.4006 C   0  0  1  0  0  0  0  0  0  0  0  0
    0.5804   -3.2191   41.1635 C   0  0  0  0  0  0  0  0  0  0  0  0
    2.8083   -4.8227   45.9203 N   0  0  0  0  0  0  0  0  0  0  0  0
   -0.1574   -4.5754   42.9329 N   0  0  0  0  0  0  0  0  0  0  0  0
    6.5271   -2.5531   44.9677 C   0  0  0  0  0  0  0  0  0  0  0  0
   -0.2272   -4.3703   41.5137 C   0  0  0  0  0  0  0  0  0  0  0  0
    7.5095   -2.0029   45.3993 C   0  0  0  0  0  0  0  0  0  0  0  0
    8.2550   -2.6982   46.3988 C   0  0  0  0  0  0  0  0  0  0  0  0
    8.8975   -0.3029   45.3267 O   0  0  0  0  0  0  0  0  0  0  0  0
    4.8299   -4.4637   46.4212 C   0  0  0  0  0  0  0  0  0  0  0  0
    4.2707   -4.9248   47.6295 N   0  0  0  0  0  0  0  0  0  0  0  0
    3.2045   -5.2092   47.1521 C   0  0  0  0  0  0  0  0  0  0  0  0
    1.4482   -4.6186   45.4134 C   0  0  1  0  0  0  0  0  0  0  0  0
    1.2398   -3.5043   44.6236 O   0  0  0  0  0  0  0  0  0  0  0  0
    6.3317   -3.9297   46.0870 C   0  0  2  0  0  0  0  0  0  0  0  0
    9.5296   -2.5449   46.9776 C   0  0  0  0  0  0  0  0  0  0  0  0
    9.7921   -1.7530   47.9018 O   0  0  0  0  0  0  0  0  0  0  0  0
    7.3972   -3.8130   46.7939 C   0  0  0  0  0  0  0  0  0  0  0  0
    1.2392   -5.7793   44.5610 C   0  0  0  0  0  0  0  0  0  0  0  0
   10.4934   -3.0755   46.3117 O   0  0  0  0  0  0  0  0  0  0  0  0
   11.7815   -2.6102   46.5288 C   0  0  0  0  0  0  0  0  0  0  0  0
   12.3688   -2.2857   45.2615 C   0  0  0  0  0  0  0  0  0  0  0  0
   13.6571   -1.6435   45.3063 C   0  0  0  0  0  0  0  0  0  0  0  0
   14.2956   -1.1724   44.0010 C   0  0  0  0  0  0  0  0  0  0  0  0
   14.2846   -1.4302   46.4743 C   0  0  0  0  0  0  0  0  0  0  0  0
   15.5365   -0.7666   46.4357 C   0  0  0  0  0  0  0  0  0  0  0  0
   15.5395   -0.6666   44.0385 C   0  0  0  0  0  0  0  0  0  0  0  0
   16.2016   -0.2976   42.8120 C   0  0  0  0  0  0  0  0  0  0  0  0
   16.1971   -0.4256   45.2810 C   0  0  0  0  0  0  0  0  0  0  0  0
   13.6211   -1.7935   47.5303 C   0  0  0  0  0  0  0  0  0  0  0  0
   12.3860   -2.3899   47.6454 C   0  0  0  0  0  0  0  0  0  0  0  0
  1  2  1  0
  2  3  2  0
  3  4  1  0
  1  5  2  0
  4  5  1  0
  3  6  1  0
  4  7  2  0
  6  8  1  0
  8  9  1  0
  7 10  1  0
  9 11  1  0
  5 12  1  0
  7 13  1  0
  8 13  2  0
 10 14  1  0
 12 15  1  0
 12 16  2  0
 14 17  1  0
 15 18  1  0
 13 19  1  0
 16 20  1  0
 18 20  2  0
 11 21  1  0
 19 21  2  0
 21 22  1  0
 11 23  2  0
 14 24  2  0
 24 25  1  0
 17 26  1  0
 25 26  2  0
 17 27  1  0
 15 28  1  6
 27 28  1  0
 19 29  1  0
 24 29  1  0
 22 30  1  0
 30 31  2  0
 22 32  2  0
 29 32  1  1
 27 33  1  6
 30 34  1  0
 34 35  1  0
 35 36  2  0
 36 37  1  0
 37 38  2  0
 37 39  1  0
 39 40  2  0
 38 41  1  0
 41 42  1  0
 40 43  1  0
 41 43  2  0
 39 44  1  0
 35 45  1  0
 44 45  2  0
M  END
$$$$
O14757_Pocket2Mol_idx-in-all-generaetd-154
     RDKit          3D

 31 35  0  0  0  0  0  0  0  0999 V2000
    4.5156    0.0550   42.9895 N   0  0  0  0  0  0  0  0  0  0  0  0
    5.0618   -0.8645   43.5295 C   0  0  0  0  0  0  0  0  0  0  0  0
    4.4350   -2.0604   43.7783 C   0  0  0  0  0  0  0  0  0  0  0  0
    4.9987   -3.0994   44.5839 C   0  0  0  0  0  0  0  0  0  0  0  0
    3.2714   -1.8664   43.0632 C   0  0  0  0  0  0  0  0  0  0  0  0
    6.4064   -0.5942   44.3204 N   0  0  0  0  0  0  0  0  0  0  0  0
    4.3422   -4.3256   44.7203 C   0  0  0  0  0  0  0  0  0  0  0  0
    2.1845   -2.6668   42.8270 N   0  0  0  0  0  0  0  0  0  0  0  0
    3.3305   -0.5395   42.5465 N   0  0  0  0  0  0  0  0  0  0  0  0
    1.9502   -3.8972   43.4076 C   0  0  0  0  0  0  0  0  0  0  0  0
    2.7156   -4.1184   44.6954 N   0  0  0  0  0  0  0  0  0  0  0  0
    6.8581   -1.5862   45.1101 C   0  0  0  0  0  0  0  0  0  0  0  0
    6.1801   -2.8430   45.2383 C   0  0  0  0  0  0  0  0  0  0  0  0
    2.1454   -5.1901   45.5771 C   0  0  0  0  0  0  0  0  0  0  0  0
    8.0137   -1.3946   45.8526 C   0  0  0  0  0  0  0  0  0  0  0  0
    0.9733   -4.5725   43.2066 O   0  0  0  0  0  0  0  0  0  0  0  0
    2.2437    0.0035   41.8733 C   0  0  0  0  0  0  0  0  0  0  0  0
    1.3210   -2.2077   41.7009 C   0  0  0  0  0  0  0  0  0  0  0  0
    8.6047   -2.2876   46.6923 C   0  0  0  0  0  0  0  0  0  0  0  0
    7.9141   -3.5157   46.8869 C   0  0  0  0  0  0  0  0  0  0  0  0
    1.0501   -0.8658   41.6612 C   0  0  0  0  0  0  0  0  0  0  0  0
    6.7473   -3.8283   46.2372 C   0  0  0  0  0  0  0  0  0  0  0  0
    1.0568   -4.5170   46.3522 C   0  0  0  0  0  0  0  0  0  0  0  0
    9.8008   -2.0643   47.3760 C   0  0  0  0  0  0  0  0  0  0  0  0
   10.9776   -2.0111   46.7028 N   0  0  0  0  0  0  0  0  0  0  0  0
   12.1432   -1.7842   47.1175 C   0  0  0  0  0  0  0  0  0  0  0  0
   12.3798   -1.6931   48.2738 O   0  0  0  0  0  0  0  0  0  0  0  0
   13.2805   -1.9805   46.1133 C   0  0  2  0  0  0  0  0  0  0  0  0
   13.0590   -1.2922   44.9343 O   0  0  0  0  0  0  0  0  0  0  0  0
   13.7991   -3.2108   46.1082 O   0  0  0  0  0  0  0  0  0  0  0  0
   14.0376   -1.5535   43.9772 C   0  0  0  0  0  0  0  0  0  0  0  0
  1  2  2  0
  2  3  1  0
  3  4  1  0
  3  5  2  0
  2  6  1  0
  4  7  1  0
  5  8  1  0
  1  9  1  0
  5  9  1  0
  8 10  1  0
  7 11  1  0
 10 11  1  0
  6 12  2  0
  4 13  2  0
 12 13  1  0
 11 14  1  0
 12 15  1  0
 10 16  2  0
  9 17  1  0
  8 18  1  0
 15 19  2  0
 19 20  1  0
 17 21  1  0
 18 21  1  0
 13 22  1  0
 20 22  2  0
 14 23  1  0
 19 24  1  0
 24 25  1  0
 25 26  1  0
 26 27  2  0
 26 28  1  0
 28 29  1  0
 28 30  1  6
 29 31  1  0
M  END
$$$$
O14757_Pocket2Mol_idx-in-all-generaetd-155
     RDKit          3D

 40 45  0  0  0  0  0  0  0  0999 V2000
    1.5482   -0.3111   41.9233 C   0  0  0  0  0  0  0  0  0  0  0  0
    2.7284    0.2018   42.1525 N   0  0  0  0  0  0  0  0  0  0  0  0
    3.7893   -0.3016   42.7005 C   0  0  0  0  0  0  0  0  0  0  0  0
    3.3781   -1.7350   43.0000 C   0  0  0  0  0  0  0  0  0  0  0  0
    2.0339   -1.9619   42.6217 C   0  0  0  0  0  0  0  0  0  0  0  0
    4.1166   -2.4997   43.8458 C   0  0  0  0  0  0  0  0  0  0  0  0
    1.1731   -3.0051   42.5773 C   0  0  0  0  0  0  0  0  0  0  0  0
    0.4701   -3.2344   41.4901 C   0  0  0  0  0  0  0  0  0  0  0  0
    5.3799   -1.7814   44.2691 C   0  0  0  0  0  0  0  0  0  0  0  0
    5.0159   -0.0180   43.1201 N   0  0  0  0  0  0  0  0  0  0  0  0
    5.7693   -0.6937   43.8418 C   0  0  0  0  0  0  0  0  0  0  0  0
    0.8078   -3.6166   43.6782 C   0  0  0  0  0  0  0  0  0  0  0  0
    0.0663   -4.7011   43.7415 N   0  0  0  0  0  0  0  0  0  0  0  0
    6.2223   -2.6843   45.1565 C   0  0  0  0  0  0  0  0  0  0  0  0
    6.9599   -0.2351   44.2608 N   0  0  0  0  0  0  0  0  0  0  0  0
    5.9065   -3.9037   45.7499 N   0  0  0  0  0  0  0  0  0  0  0  0
   -0.5459   -5.1185   42.5870 C   0  0  0  0  0  0  0  0  0  0  0  0
    5.7480   -4.0340   46.9810 C   0  0  0  0  0  0  0  0  0  0  0  0
    7.4448   -1.8511   45.4198 C   0  0  0  0  0  0  0  0  0  0  0  0
    7.7572   -0.7827   45.0128 C   0  0  0  0  0  0  0  0  0  0  0  0
    8.4076   -2.7217   46.4541 C   0  0  0  0  0  0  0  0  0  0  0  0
    9.3167   -2.0988   47.1049 N   0  0  0  0  0  0  0  0  0  0  0  0
   -0.4719   -4.3893   41.5406 C   0  0  0  0  0  0  0  0  0  0  0  0
    8.3667   -4.0284   46.5743 N   0  0  0  0  0  0  0  0  0  0  0  0
   10.1532   -2.5726   47.9567 C   0  0  0  0  0  0  0  0  0  0  0  0
   11.0726   -1.7892   48.6998 C   0  0  0  0  0  0  0  0  0  0  0  0
   10.4886   -0.9372   49.4584 C   0  0  0  0  0  0  0  0  0  0  0  0
   10.2139   -3.8947   48.0407 C   0  0  0  0  0  0  0  0  0  0  0  0
    6.6188   -4.9855   47.3969 N   0  0  0  0  0  0  0  0  0  0  0  0
    5.1401   -3.1961   47.7242 O   0  0  0  0  0  0  0  0  0  0  0  0
    9.2230   -4.6492   47.2923 C   0  0  0  0  0  0  0  0  0  0  0  0
   12.4306   -1.6942   48.6002 C   0  0  0  0  0  0  0  0  0  0  0  0
   13.1277   -2.5738   47.4657 C   0  0  0  0  0  0  0  0  0  0  0  0
   12.9867   -0.9385   49.4619 C   0  0  0  0  0  0  0  0  0  0  0  0
    9.0836   -0.9774   49.8502 O   0  0  0  0  0  0  0  0  0  0  0  0
   13.7325   -3.5745   47.7819 O   0  0  0  0  0  0  0  0  0  0  0  0
   11.8214   -0.3944   50.2922 C   0  0  0  0  0  0  0  0  0  0  0  0
   13.3865   -1.9384   46.3702 O   0  0  0  0  0  0  0  0  0  0  0  0
   14.1399   -0.5710   49.8015 O   0  0  0  0  0  0  0  0  0  0  0  0
   14.4450   -1.4318   45.9047 C   0  0  0  0  0  0  0  0  0  0  0  0
  1  2  1  0
  2  3  2  0
  3  4  1  0
  1  5  2  0
  4  5  1  0
  4  6  2  0
  5  7  1  0
  7  8  2  0
  6  9  1  0
  3 10  1  0
  9 11  2  0
 10 11  1  0
  7 12  1  0
 12 13  2  0
  9 14  1  0
 11 15  1  0
 14 16  1  0
 13 17  1  0
 16 18  1  0
 14 19  2  0
 15 20  2  0
 19 20  1  0
 19 21  1  0
 21 22  2  0
  8 23  1  0
 17 23  2  0
 21 24  1  0
 22 25  1  0
 25 26  1  0
 26 27  1  0
 25 28  2  0
 18 29  1  0
 18 30  2  0
 24 31  2  0
 28 31  1  0
 26 32  2  0
 32 33  1  0
 32 34  1  0
 27 35  1  0
 33 36  2  0
 27 37  2  0
 34 37  1  0
 33 38  1  0
 34 39  2  0
 38 40  1  0
M  END
$$$$
O14757_Pocket2Mol_idx-in-all-generaetd-156
     RDKit          3D

 28 32  0  0  0  0  0  0  0  0999 V2000
    5.3420    0.2589   42.8836 N   0  0  0  0  0  0  0  0  0  0  0  0
    5.6740   -0.8311   43.5645 C   0  0  0  0  0  0  0  0  0  0  0  0
    6.8416   -0.9240   44.3627 N   0  0  0  0  0  0  0  0  0  0  0  0
    4.1141    0.2821   42.2689 C   0  0  0  0  0  0  0  0  0  0  0  0
    3.2237   -0.7484   42.3921 N   0  0  0  0  0  0  0  0  0  0  0  0
    6.8097   -1.9585   45.3182 C   0  0  0  0  0  0  0  0  0  0  0  0
    3.5007   -1.8060   43.1511 C   0  0  0  0  0  0  0  0  0  0  0  0
    4.7020   -1.8573   43.8328 C   0  0  0  0  0  0  0  0  0  0  0  0
    5.4887   -2.6670   44.9856 C   0  0  0  0  0  0  0  0  0  0  0  0
    2.5208   -2.8458   43.2671 C   0  0  0  0  0  0  0  0  0  0  0  0
    2.6558   -3.8570   44.2541 C   0  0  0  0  0  0  0  0  0  0  0  0
    7.6468   -2.3589   46.2854 C   0  0  0  0  0  0  0  0  0  0  0  0
    3.8579   -4.1296   44.9532 N   0  0  0  0  0  0  0  0  0  0  0  0
    1.3096   -2.7520   42.6410 C   0  0  0  0  0  0  0  0  0  0  0  0
    4.9776   -3.8402   45.4939 C   0  0  0  0  0  0  0  0  0  0  0  0
    0.9912   -1.7393   41.6079 C   0  0  0  0  0  0  0  0  0  0  0  0
    1.5259   -4.6645   44.4644 C   0  0  0  0  0  0  0  0  0  0  0  0
    8.7139   -1.5535   46.4661 C   0  0  0  0  0  0  0  0  0  0  0  0
    0.4108   -4.5978   43.8261 C   0  0  0  0  0  0  0  0  0  0  0  0
    0.2723   -3.6471   42.8519 C   0  0  0  0  0  0  0  0  0  0  0  0
    8.9754   -0.4915   45.6953 O   0  0  0  0  0  0  0  0  0  0  0  0
    7.5178   -3.6030   46.9556 C   0  0  0  0  0  0  0  0  0  0  0  0
    9.6948   -1.9613   47.4472 C   0  0  0  0  0  0  0  0  0  0  0  0
   10.8613   -1.0312   47.6789 C   0  0  0  0  0  0  0  0  0  0  0  0
   11.8322   -1.1859   46.6590 C   0  0  0  0  0  0  0  0  0  0  0  0
   11.9241   -2.5042   46.1284 O   0  0  0  0  0  0  0  0  0  0  0  0
    9.5248   -3.0368   48.1967 C   0  0  0  0  0  0  0  0  0  0  0  0
    8.3647   -3.8565   47.9560 C   0  0  0  0  0  0  0  0  0  0  0  0
  1  2  2  0
  2  3  1  0
  1  4  1  0
  4  5  2  0
  3  6  1  0
  5  7  1  0
  2  8  1  0
  7  8  2  0
  6  9  2  0
  8  9  1  0
  7 10  1  0
 10 11  2  0
  6 12  1  0
 11 13  1  0
 10 14  1  0
  9 15  1  0
 13 15  1  0
 14 16  1  0
 11 17  1  0
 12 18  2  0
 17 19  2  0
 14 20  2  0
 19 20  1  0
 18 21  1  0
 12 22  1  0
 18 23  1  0
 23 24  1  0
 24 25  1  0
 25 26  1  0
 23 27  2  0
 22 28  2  0
 27 28  1  0
M  END
$$$$
O14757_Pocket2Mol_idx-in-all-generaetd-157
     RDKit          3D

 27 31  0  0  0  0  0  0  0  0999 V2000
    1.5482   -0.3111   41.9233 C   0  0  0  0  0  0  0  0  0  0  0  0
    2.7284    0.2018   42.1525 N   0  0  0  0  0  0  0  0  0  0  0  0
    3.7893   -0.3016   42.7005 C   0  0  0  0  0  0  0  0  0  0  0  0
    3.3781   -1.7350   43.0000 C   0  0  0  0  0  0  0  0  0  0  0  0
    2.0339   -1.9619   42.6217 C   0  0  0  0  0  0  0  0  0  0  0  0
    4.1166   -2.4997   43.8458 C   0  0  0  0  0  0  0  0  0  0  0  0
    1.1731   -3.0051   42.5773 C   0  0  0  0  0  0  0  0  0  0  0  0
    0.4701   -3.2344   41.4901 C   0  0  0  0  0  0  0  0  0  0  0  0
    5.3799   -1.7814   44.2691 C   0  0  0  0  0  0  0  0  0  0  0  0
    5.0159   -0.0180   43.1201 N   0  0  0  0  0  0  0  0  0  0  0  0
    5.7693   -0.6937   43.8418 C   0  0  0  0  0  0  0  0  0  0  0  0
    0.8078   -3.6166   43.6782 C   0  0  0  0  0  0  0  0  0  0  0  0
    0.0663   -4.7011   43.7415 N   0  0  0  0  0  0  0  0  0  0  0  0
    6.2223   -2.6843   45.1565 C   0  0  0  0  0  0  0  0  0  0  0  0
    1.4459   -3.3095   45.0236 O   0  0  0  0  0  0  0  0  0  0  0  0
   -0.5278   -5.1074   42.5506 C   0  0  0  0  0  0  0  0  0  0  0  0
   -1.3099   -6.2193   42.5332 N   0  0  0  0  0  0  0  0  0  0  0  0
   -0.3906   -4.3573   41.3904 C   0  0  0  0  0  0  0  0  0  0  0  0
    7.0535   -0.4845   44.4478 N   0  0  0  0  0  0  0  0  0  0  0  0
    0.6210   -3.8397   46.1835 C   0  0  0  0  0  0  0  0  0  0  0  0
    6.2906   -3.7888   45.8815 C   0  0  0  0  0  0  0  0  0  0  0  0
    7.3868   -4.0307   46.6450 C   0  0  0  0  0  0  0  0  0  0  0  0
    7.2911   -1.6471   45.3058 C   0  0  2  0  0  0  0  0  0  0  0  0
    8.4503   -3.1394   46.7342 C   0  0  0  0  0  0  0  0  0  0  0  0
    8.4698   -1.9481   46.2096 C   0  0  0  0  0  0  0  0  0  0  0  0
    9.5355   -3.4574   47.6466 O   0  0  0  0  0  0  0  0  0  0  0  0
   10.0353   -2.5855   48.4896 C   0  0  0  0  0  0  0  0  0  0  0  0
  1  2  1  0
  2  3  2  0
  3  4  1  0
  1  5  2  0
  4  5  1  0
  4  6  2  0
  5  7  1  0
  7  8  2  0
  6  9  1  0
  3 10  1  0
  9 11  1  0
 10 11  1  0
  7 12  1  0
 12 13  2  0
  9 14  2  0
 12 15  1  0
 13 16  1  0
 16 17  1  0
  8 18  1  0
 16 18  2  0
 11 19  2  0
 15 20  1  0
 14 21  1  0
 21 22  2  0
 14 23  1  0
 19 23  1  0
 22 24  1  0
 23 25  1  6
 24 25  2  0
 24 26  1  0
 26 27  1  0
M  END
$$$$
O14757_Pocket2Mol_idx-in-all-generaetd-158
     RDKit          3D

 30 34  0  0  0  0  0  0  0  0999 V2000
    5.5575   -0.4055   43.2321 N   0  0  0  0  0  0  0  0  0  0  0  0
    4.5233    0.0727   42.5988 N   0  0  0  0  0  0  0  0  0  0  0  0
    5.1726   -1.5114   43.9314 C   0  0  0  0  0  0  0  0  0  0  0  0
    5.9080   -2.2268   44.9217 C   0  0  0  0  0  0  0  0  0  0  0  0
    5.3635   -3.3861   45.5121 C   0  0  0  0  0  0  0  0  0  0  0  0
    7.1791   -1.7734   45.4544 C   0  0  0  0  0  0  0  0  0  0  0  0
    3.4069   -0.5377   42.5980 C   0  0  0  0  0  0  0  0  0  0  0  0
    2.1839   -0.4257   41.9942 C   0  0  0  0  0  0  0  0  0  0  0  0
    3.7449   -1.7453   43.5024 C   0  0  0  0  0  0  0  0  0  0  0  0
    7.8525   -0.6503   45.0420 O   0  0  0  0  0  0  0  0  0  0  0  0
    7.8789   -2.5576   46.3941 C   0  0  0  0  0  0  0  0  0  0  0  0
    2.8045   -2.7414   43.6928 C   0  0  0  0  0  0  0  0  0  0  0  0
    9.2115   -2.0969   46.8642 C   0  0  0  0  0  0  0  0  0  0  0  0
    4.0793   -3.8977   45.1232 C   0  0  0  0  0  0  0  0  0  0  0  0
    9.4064   -1.6424   47.9232 O   0  0  0  0  0  0  0  0  0  0  0  0
    3.1160   -3.7348   44.5196 N   0  0  0  0  0  0  0  0  0  0  0  0
   10.2271   -2.0181   45.9902 O   0  0  0  0  0  0  0  0  0  0  0  0
    1.5846   -2.6820   43.0143 C   0  0  0  0  0  0  0  0  0  0  0  0
   11.4761   -2.1798   46.4472 C   0  0  0  0  0  0  0  0  0  0  0  0
    7.2409   -3.6513   46.9381 C   0  0  0  0  0  0  0  0  0  0  0  0
    1.2492   -1.5070   42.1695 C   0  0  0  0  0  0  0  0  0  0  0  0
    0.5019   -3.7675   43.1967 C   0  0  0  0  0  0  0  0  0  0  0  0
    6.0495   -4.1366   46.6035 C   0  0  0  0  0  0  0  0  0  0  0  0
   -0.0338   -4.1944   42.0509 O   0  0  0  0  0  0  0  0  0  0  0  0
   12.4479   -1.3492   45.8036 C   0  0  0  0  0  0  0  0  0  0  0  0
   13.1550   -0.6047   46.5223 O   0  0  0  0  0  0  0  0  0  0  0  0
    0.4748   -4.4037   44.2322 O   0  0  0  0  0  0  0  0  0  0  0  0
   13.1354   -1.9129   44.6506 O   0  0  0  0  0  0  0  0  0  0  0  0
   13.8076    0.3248   45.8402 C   0  0  0  0  0  0  0  0  0  0  0  0
   14.0198   -0.8645   44.1899 C   0  0  0  0  0  0  0  0  0  0  0  0
  1  2  2  0
  1  3  1  0
  3  4  1  0
  4  5  2  0
  4  6  1  0
  2  7  1  0
  7  8  2  0
  3  9  2  0
  7  9  1  0
  6 10  1  0
  6 11  2  0
  9 12  1  0
 11 13  1  0
  5 14  1  0
 13 15  2  0
 12 16  1  0
 14 16  2  0
 13 17  1  0
 12 18  1  0
 17 19  1  0
 11 20  1  0
  8 21  1  0
 18 21  2  0
 18 22  1  0
  5 23  1  0
 20 23  2  0
 22 24  2  0
 19 25  1  0
 25 26  1  0
 22 27  1  0
 25 28  1  0
 26 29  1  0
 28 30  1  0
 29 30  1  0
M  END
$$$$
O14757_Pocket2Mol_idx-in-all-generaetd-159
     RDKit          3D

 47 54  0  0  0  0  0  0  0  0999 V2000
    5.3420    0.2589   42.8836 O   0  0  0  0  0  0  0  0  0  0  0  0
    5.1627   -0.7554   43.4753 C   0  0  0  0  0  0  0  0  0  0  0  0
    4.0509   -1.4657   43.4177 N   0  0  0  0  0  0  0  0  0  0  0  0
    5.9969   -1.2317   44.6840 C   0  0  0  0  0  0  0  0  0  0  0  0
    2.9618   -1.1021   42.5918 C   0  0  1  0  0  0  0  0  0  0  0  0
    7.3392   -0.8596   44.8412 C   0  0  0  0  0  0  0  0  0  0  0  0
    1.9754   -2.0820   42.2741 C   0  0  0  0  0  0  0  0  0  0  0  0
    5.5910   -2.4282   45.3439 C   0  0  0  0  0  0  0  0  0  0  0  0
    6.5874   -2.9636   46.1581 C   0  0  0  0  0  0  0  0  0  0  0  0
    4.2763   -3.0680   45.0493 N   0  0  0  0  0  0  0  0  0  0  0  0
    3.6188   -2.5886   44.2024 C   0  0  0  0  0  0  0  0  0  0  0  0
    8.1921   -1.4071   45.7505 C   0  0  0  0  0  0  0  0  0  0  0  0
    1.0154   -1.8839   41.2980 C   0  0  0  0  0  0  0  0  0  0  0  0
    2.5720   -3.3564   43.9063 C   0  0  0  0  0  0  0  0  0  0  0  0
    0.2502   -2.8976   41.0751 C   0  0  0  0  0  0  0  0  0  0  0  0
    6.1761   -4.1775   47.0209 C   0  0  0  0  0  0  0  0  0  0  0  0
    1.7266   -3.1047   43.0115 C   0  0  2  0  0  0  0  0  0  0  0  0
    2.3696   -4.5367   44.7536 N   0  0  0  0  0  0  0  0  0  0  0  0
    1.2264   -5.2346   44.4693 C   0  0  0  0  0  0  0  0  0  0  0  0
    0.7187   -3.8955   42.5465 C   0  0  0  0  0  0  0  0  0  0  0  0
    9.4576   -0.8949   46.0327 N   0  0  0  0  0  0  0  0  0  0  0  0
    0.8625   -6.3901   45.2462 C   0  0  0  0  0  0  0  0  0  0  0  0
    7.6467   -2.5139   46.4892 C   0  0  0  0  0  0  0  0  0  0  0  0
   10.4908   -1.5336   45.8242 C   0  0  0  0  0  0  0  0  0  0  0  0
    0.3057   -4.9299   43.2909 C   0  0  0  0  0  0  0  0  0  0  0  0
   11.5916   -1.4291   46.7436 C   0  0  0  0  0  0  0  0  0  0  0  0
   10.5566   -2.3672   44.8649 O   0  0  0  0  0  0  0  0  0  0  0  0
    2.4730    0.2084   42.8389 O   0  0  0  0  0  0  0  0  0  0  0  0
   11.6027   -2.2081   47.7725 N   0  0  0  0  0  0  0  0  0  0  0  0
   12.6189   -0.5862   46.5415 C   0  0  0  0  0  0  0  0  0  0  0  0
   13.6413   -0.4484   47.4129 C   0  0  0  0  0  0  0  0  0  0  0  0
   10.4764   -3.1097   48.1134 C   0  0  0  0  0  0  0  0  0  0  0  0
    9.5762   -2.4717   49.0753 C   0  0  0  0  0  0  0  0  0  0  0  0
    9.7761   -1.2394   49.5167 C   0  0  0  0  0  0  0  0  0  0  0  0
    8.6397   -3.3252   49.7339 C   0  0  0  0  0  0  0  0  0  0  0  0
    8.9861   -0.7034   50.5819 C   0  0  0  0  0  0  0  0  0  0  0  0
   14.7137    0.5128   47.0925 C   0  0  0  0  0  0  0  0  0  0  0  0
    8.1815   -1.5423   51.2387 C   0  0  0  0  0  0  0  0  0  0  0  0
    8.4156   -4.7176   49.2102 O   0  0  0  0  0  0  0  0  0  0  0  0
    7.9436   -2.8856   50.8102 C   0  0  0  0  0  0  0  0  0  0  0  0
   12.6675   -2.1100   48.6466 C   0  0  0  0  0  0  0  0  0  0  0  0
    8.1466   -5.6065   49.9515 C   0  0  0  0  0  0  0  0  0  0  0  0
   14.7153    1.1568   46.1906 O   0  0  0  0  0  0  0  0  0  0  0  0
   13.6687   -1.2552   48.4221 C   0  0  0  0  0  0  0  0  0  0  0  0
   14.7732   -1.1433   49.3495 C   0  0  0  0  0  0  0  0  0  0  0  0
   15.7767   -0.1867   49.0984 C   0  0  0  0  0  0  0  0  0  0  0  0
   15.6849    0.6354   47.9858 N   0  0  0  0  0  0  0  0  0  0  0  0
  1  2  2  0
  2  3  1  0
  2  4  1  0
  3  5  1  0
  4  6  2  0
  5  7  1  0
  4  8  1  0
  8  9  2  0
  8 10  1  0
  3 11  1  0
 10 11  2  0
  6 12  1  0
  7 13  2  0
 11 14  1  0
 13 15  1  0
  9 16  1  0
 17  7  1  6
 14 17  1  0
 14 18  2  0
 18 19  1  0
 15 20  2  0
 17 20  1  0
 12 21  1  0
 19 22  1  0
  9 23  1  0
 12 23  2  0
 21 24  1  0
 19 25  2  0
 20 25  1  0
 24 26  1  0
 24 27  2  0
  5 28  1  1
 26 29  1  0
 26 30  2  0
 30 31  1  0
 29 32  1  0
 32 33  1  0
 33 34  2  0
 33 35  1  0
 34 36  1  0
 31 37  1  0
 36 38  2  0
 35 39  1  0
 35 40  2  0
 38 40  1  0
 29 41  1  0
 39 42  1  0
 37 43  2  0
 31 44  2  0
 41 44  1  0
 44 45  1  0
 45 46  2  0
 37 47  1  0
 46 47  1  0
M  END
$$$$
O14757_Pocket2Mol_idx-in-all-generaetd-160
     RDKit          3D

 38 46  0  0  0  0  0  0  0  0999 V2000
    5.3420    0.2589   42.8836 N   0  0  0  0  0  0  0  0  0  0  0  0
    5.6740   -0.8311   43.5645 C   0  0  0  0  0  0  0  0  0  0  0  0
    6.8416   -0.9240   44.3627 N   0  0  0  0  0  0  0  0  0  0  0  0
    4.1141    0.2821   42.2689 C   0  0  0  0  0  0  0  0  0  0  0  0
    3.2237   -0.7484   42.3921 N   0  0  0  0  0  0  0  0  0  0  0  0
    6.8097   -1.9585   45.3182 C   0  0  0  0  0  0  0  0  0  0  0  0
    3.5007   -1.8060   43.1511 C   0  0  0  0  0  0  0  0  0  0  0  0
    4.7020   -1.8573   43.8328 C   0  0  0  0  0  0  0  0  0  0  0  0
    5.4887   -2.6670   44.9856 C   0  0  0  0  0  0  0  0  0  0  0  0
    2.5208   -2.8458   43.2671 C   0  0  0  0  0  0  0  0  0  0  0  0
    2.6558   -3.8570   44.2541 C   0  0  0  0  0  0  0  0  0  0  0  0
    7.6468   -2.3589   46.2854 C   0  0  0  0  0  0  0  0  0  0  0  0
    3.8579   -4.1296   44.9532 N   0  0  0  0  0  0  0  0  0  0  0  0
    1.3096   -2.7520   42.6410 C   0  0  0  0  0  0  0  0  0  0  0  0
    4.9776   -3.8402   45.4939 C   0  0  2  0  0  0  0  0  0  0  0  0
    8.7023   -1.6088   46.4743 C   0  0  0  0  0  0  0  0  0  0  0  0
    9.5984   -1.8433   47.5139 C   0  0  0  0  0  0  0  0  0  0  0  0
    7.3782   -3.4221   47.2077 C   0  0  0  0  0  0  0  0  0  0  0  0
    1.5977   -4.7338   44.4801 C   0  0  0  0  0  0  0  0  0  0  0  0
    1.0668   -1.7644   41.4981 C   0  0  0  0  0  0  0  0  0  0  0  0
   10.8175   -0.9959   47.6882 O   0  0  0  0  0  0  0  0  0  0  0  0
   11.6053   -1.2371   48.6095 C   0  0  0  0  0  0  0  0  0  0  0  0
    0.3244   -3.6976   42.8655 C   0  0  0  0  0  0  0  0  0  0  0  0
   -0.8593   -3.6685   42.0130 N   0  0  0  0  0  0  0  0  0  0  0  0
    1.8517   -5.8131   45.4828 O   0  0  0  0  0  0  0  0  0  0  0  0
    0.4775   -4.6810   43.7729 C   0  0  0  0  0  0  0  0  0  0  0  0
    0.8739   -6.6382   45.6662 C   0  0  0  0  0  0  0  0  0  0  0  0
   -1.0916   -2.5994   41.2602 C   0  0  0  0  0  0  0  0  0  0  0  0
    9.4106   -2.8763   48.3313 C   0  0  0  0  0  0  0  0  0  0  0  0
   -2.2861   -2.5230   40.6491 C   0  0  0  0  0  0  0  0  0  0  0  0
   -0.0427   -1.6549   40.9892 C   0  0  0  0  0  0  0  0  0  0  0  0
    6.1974   -4.2473   47.0932 C   0  0  0  0  0  0  0  0  0  0  0  0
   10.3910   -3.0613   49.4073 O   0  0  0  0  0  0  0  0  0  0  0  0
   11.5322   -2.4683   49.1751 C   0  0  0  0  0  0  0  0  0  0  0  0
    5.2998   -4.4627   46.3972 C   0  0  1  0  0  0  0  0  0  0  0  0
    4.1127   -4.9761   46.7429 C   0  0  0  0  0  0  0  0  0  0  0  0
    8.3209   -3.6457   48.3265 C   0  0  0  0  0  0  0  0  0  0  0  0
    3.9912   -5.3843   45.3364 C   0  0  0  0  0  0  0  0  0  0  0  0
  1  2  2  0
  2  3  1  0
  1  4  1  0
  4  5  2  0
  3  6  1  0
  5  7  1  0
  2  8  1  0
  7  8  2  0
  6  9  2  0
  8  9  1  0
  7 10  1  0
 10 11  2  0
  6 12  1  0
 11 13  1  0
 10 14  1  0
  9 15  1  0
 15 13  1  1
 12 16  2  0
 16 17  1  0
 12 18  1  0
 11 19  1  0
 14 20  1  0
 17 21  1  0
 21 22  1  0
 14 23  2  0
 23 24  1  0
 19 25  1  0
 19 26  2  0
 23 26  1  0
 25 27  1  0
 24 28  1  0
 17 29  2  0
 28 30  1  0
 20 31  1  0
 28 31  2  0
 18 32  1  0
 29 33  1  0
 22 34  1  0
 33 34  1  0
 15 35  1  0
 35 32  1  1
 35 36  1  0
 18 37  2  0
 29 37  1  0
 13 38  1  0
 36 38  1  0
M  END
$$$$
O14757_Pocket2Mol_idx-in-all-generaetd-161
     RDKit          3D

 38 45  0  0  0  0  0  0  0  0999 V2000
    4.8173    0.2791   42.6993 N   0  0  0  0  0  0  0  0  0  0  0  0
    5.3297   -0.7477   43.3688 C   0  0  0  0  0  0  0  0  0  0  0  0
    3.4732   -0.2235   42.4530 C   0  0  0  0  0  0  0  0  0  0  0  0
    4.4984   -1.7876   43.6214 C   0  0  0  0  0  0  0  0  0  0  0  0
    3.3438   -1.5190   42.9379 C   0  0  0  0  0  0  0  0  0  0  0  0
    2.1381   -2.3401   42.8254 C   0  0  0  0  0  0  0  0  0  0  0  0
    2.3894    0.3572   41.9843 N   0  0  0  0  0  0  0  0  0  0  0  0
    4.9180   -3.0430   44.3829 C   0  0  0  0  0  0  0  0  0  0  0  0
    5.9444   -2.9314   45.3934 C   0  0  0  0  0  0  0  0  0  0  0  0
    4.2808   -4.1329   44.3252 C   0  0  0  0  0  0  0  0  0  0  0  0
    3.1588   -4.4221   43.4852 O   0  0  0  0  0  0  0  0  0  0  0  0
    4.5704   -5.2518   45.1995 C   0  0  0  0  0  0  0  0  0  0  0  0
    1.9853   -3.6792   43.3495 C   0  0  0  0  0  0  0  0  0  0  0  0
    0.9181   -4.3294   43.4638 C   0  0  0  0  0  0  0  0  0  0  0  0
    6.7403   -1.6226   45.5272 C   0  0  2  0  0  0  0  0  0  0  0  0
    0.9752   -1.7845   42.3366 C   0  0  0  0  0  0  0  0  0  0  0  0
    6.2516   -3.7287   46.2722 C   0  0  0  0  0  0  0  0  0  0  0  0
   -0.2404   -2.4179   42.2529 C   0  0  0  0  0  0  0  0  0  0  0  0
   -1.3835   -1.8904   41.6559 N   0  0  0  0  0  0  0  0  0  0  0  0
    3.8706   -6.4216   45.1394 O   0  0  0  0  0  0  0  0  0  0  0  0
    0.9456   -0.2789   41.7649 C   0  0  0  0  0  0  0  0  0  0  0  0
   -0.2678   -3.6969   42.7575 C   0  0  0  0  0  0  0  0  0  0  0  0
    6.3913   -0.7000   44.3807 N   0  0  0  0  0  0  0  0  0  0  0  0
    7.9391   -1.5867   46.0069 C   0  0  0  0  0  0  0  0  0  0  0  0
    7.1969   -3.5621   47.3287 C   0  0  0  0  0  0  0  0  0  0  0  0
    5.4958   -5.0534   46.2483 C   0  0  0  0  0  0  0  0  0  0  0  0
    7.4872   -4.5338   48.2539 O   0  0  0  0  0  0  0  0  0  0  0  0
    8.1281   -2.5304   47.0986 C   0  0  1  0  0  0  0  0  0  0  0  0
    8.7872   -0.5908   45.9403 O   0  0  0  0  0  0  0  0  0  0  0  0
    9.4892   -2.5717   47.7347 C   0  0  0  0  0  0  0  0  0  0  0  0
   10.5268   -2.9441   46.9599 C   0  0  0  0  0  0  0  0  0  0  0  0
   11.4734   -2.0640   46.5154 C   0  0  0  0  0  0  0  0  0  0  0  0
   10.5880   -4.1779   46.4457 C   0  0  0  0  0  0  0  0  0  0  0  0
   11.8137   -4.3609   45.5935 C   0  0  0  0  0  0  0  0  0  0  0  0
   11.9120   -5.7564   45.1569 O   0  0  0  0  0  0  0  0  0  0  0  0
   12.5491   -3.4558   45.3063 C   0  0  0  0  0  0  0  0  0  0  0  0
   12.4504   -2.1973   45.7359 C   0  0  0  0  0  0  0  0  0  0  0  0
   12.6730   -6.5895   45.8283 C   0  0  0  0  0  0  0  0  0  0  0  0
  1  2  2  0
  1  3  1  0
  2  4  1  0
  3  5  1  0
  4  5  2  0
  5  6  1  0
  3  7  2  0
  4  8  1  0
  8  9  1  0
  8 10  2  0
 10 11  1  0
 10 12  1  0
  6 13  1  0
 11 13  1  0
 13 14  2  0
  9 15  1  0
  6 16  2  0
  9 17  2  0
 16 18  1  0
 18 19  1  0
 12 20  1  0
  7 21  1  0
 16 21  1  0
 14 22  1  0
 18 22  2  0
  2 23  1  0
 15 23  1  6
 15 24  1  0
 17 25  1  0
 12 26  2  0
 17 26  1  0
 25 27  2  0
 24 28  1  0
 25 28  1  0
 24 29  2  0
 28 30  1  6
 30 31  1  0
 31 32  2  0
 31 33  1  0
 33 34  2  0
 34 35  1  0
 34 36  1  0
 32 37  1  0
 36 37  2  0
 35 38  1  0
M  END
$$$$
O14757_Pocket2Mol_idx-in-all-generaetd-162
     RDKit          3D

 43 51  0  0  0  0  0  0  0  0999 V2000
    1.5482   -0.3111   41.9233 C   0  0  0  0  0  0  0  0  0  0  0  0
    2.7284    0.2018   42.1525 N   0  0  0  0  0  0  0  0  0  0  0  0
    3.7893   -0.3016   42.7005 C   0  0  0  0  0  0  0  0  0  0  0  0
    3.3781   -1.7350   43.0000 C   0  0  0  0  0  0  0  0  0  0  0  0
    2.0339   -1.9619   42.6217 C   0  0  0  0  0  0  0  0  0  0  0  0
    5.0090    0.1219   42.9340 N   0  0  0  0  0  0  0  0  0  0  0  0
    4.2895   -2.4979   43.6707 C   0  0  0  0  0  0  0  0  0  0  0  0
    5.8391   -0.6675   43.6343 C   0  0  0  0  0  0  0  0  0  0  0  0
    6.9849   -0.2377   44.0028 N   0  0  0  0  0  0  0  0  0  0  0  0
    4.0426   -3.8794   44.0832 C   0  0  0  0  0  0  0  0  0  0  0  0
    7.6796   -0.8734   44.9326 C   0  0  0  0  0  0  0  0  0  0  0  0
    1.1064   -2.9576   42.4211 C   0  0  0  0  0  0  0  0  0  0  0  0
    5.5298   -1.9496   44.0315 C   0  0  0  0  0  0  0  0  0  0  0  0
    3.8954   -4.1817   45.4718 C   0  0  0  0  0  0  0  0  0  0  0  0
    0.6765   -3.5480   43.4006 C   0  0  1  0  0  0  0  0  0  0  0  0
    0.5804   -3.2191   41.1635 C   0  0  0  0  0  0  0  0  0  0  0  0
    2.8083   -4.8227   45.9203 N   0  0  0  0  0  0  0  0  0  0  0  0
   -0.1574   -4.5754   42.9329 N   0  0  0  0  0  0  0  0  0  0  0  0
    6.5271   -2.5531   44.9677 C   0  0  0  0  0  0  0  0  0  0  0  0
   -0.2272   -4.3703   41.5137 C   0  0  0  0  0  0  0  0  0  0  0  0
    7.5095   -2.0029   45.3993 C   0  0  0  0  0  0  0  0  0  0  0  0
    8.2550   -2.6982   46.3988 C   0  0  0  0  0  0  0  0  0  0  0  0
    8.8975   -0.3029   45.3267 O   0  0  0  0  0  0  0  0  0  0  0  0
    4.8299   -4.4637   46.4212 C   0  0  0  0  0  0  0  0  0  0  0  0
    4.2707   -4.9248   47.6295 N   0  0  0  0  0  0  0  0  0  0  0  0
    3.2045   -5.2092   47.1521 C   0  0  0  0  0  0  0  0  0  0  0  0
    1.4482   -4.6186   45.4134 C   0  0  1  0  0  0  0  0  0  0  0  0
    1.2398   -3.5043   44.6236 O   0  0  0  0  0  0  0  0  0  0  0  0
    6.3317   -3.9297   46.0870 C   0  0  2  0  0  0  0  0  0  0  0  0
    9.5296   -2.5449   46.9776 C   0  0  0  0  0  0  0  0  0  0  0  0
    9.7921   -1.7530   47.9018 O   0  0  0  0  0  0  0  0  0  0  0  0
    7.3972   -3.8130   46.7939 C   0  0  0  0  0  0  0  0  0  0  0  0
    1.2392   -5.7793   44.5610 C   0  0  0  0  0  0  0  0  0  0  0  0
   10.4982   -3.2564   46.4837 N   0  0  0  0  0  0  0  0  0  0  0  0
   10.3664   -4.3024   45.6489 C   0  0  0  0  0  0  0  0  0  0  0  0
   11.8563   -2.7253   46.7001 C   0  0  0  0  0  0  0  0  0  0  0  0
   12.5920   -2.4093   45.4967 C   0  0  0  0  0  0  0  0  0  0  0  0
   10.3017   -5.6302   46.4426 C   0  0  0  0  0  0  0  0  0  0  0  0
   13.9027   -1.9790   45.6656 C   0  0  0  0  0  0  0  0  0  0  0  0
   12.3588   -2.5019   47.9049 C   0  0  0  0  0  0  0  0  0  0  0  0
   13.7593   -2.0773   47.8895 C   0  0  0  0  0  0  0  0  0  0  0  0
   14.3722   -1.8767   49.2720 C   0  0  0  0  0  0  0  0  0  0  0  0
   14.4687   -1.8121   46.9091 C   0  0  0  0  0  0  0  0  0  0  0  0
  1  2  1  0
  2  3  2  0
  3  4  1  0
  1  5  2  0
  4  5  1  0
  3  6  1  0
  4  7  2  0
  6  8  1  0
  8  9  1  0
  7 10  1  0
  9 11  1  0
  5 12  1  0
  7 13  1  0
  8 13  2  0
 10 14  1  0
 12 15  1  0
 12 16  2  0
 14 17  1  0
 15 18  1  0
 13 19  1  0
 16 20  1  0
 18 20  2  0
 11 21  1  0
 19 21  2  0
 21 22  1  0
 11 23  2  0
 14 24  2  0
 24 25  1  0
 17 26  1  0
 25 26  2  0
 17 27  1  0
 15 28  1  6
 27 28  1  0
 19 29  1  0
 24 29  1  0
 22 30  1  0
 30 31  2  0
 22 32  2  0
 29 32  1  1
 27 33  1  6
 30 34  1  0
 34 35  1  0
 34 36  1  0
 36 37  2  0
 35 38  1  0
 37 39  1  0
 36 40  1  0
 40 41  2  0
 41 42  1  0
 39 43  2  0
 41 43  1  0
M  END
$$$$
O14757_Pocket2Mol_idx-in-all-generaetd-163
     RDKit          3D

 27 31  0  0  0  0  0  0  0  0999 V2000
    4.5156    0.0550   42.9895 N   0  0  0  0  0  0  0  0  0  0  0  0
    3.2960    0.1633   42.4470 C   0  0  0  0  0  0  0  0  0  0  0  0
    2.7621   -1.2305   42.4476 C   0  0  0  0  0  0  0  0  0  0  0  0
    5.2005   -0.8099   43.5858 C   0  0  0  0  0  0  0  0  0  0  0  0
    4.4157   -2.0357   43.6745 C   0  0  0  0  0  0  0  0  0  0  0  0
    3.3964   -2.2069   43.1195 C   0  0  0  0  0  0  0  0  0  0  0  0
    2.6107   -3.4636   43.1542 N   0  0  0  0  0  0  0  0  0  0  0  0
    1.4467   -1.2849   41.8335 C   0  0  0  0  0  0  0  0  0  0  0  0
    5.1851   -3.1348   44.4538 N   0  0  0  0  0  0  0  0  0  0  0  0
    6.4172   -0.8203   44.3346 N   0  0  0  0  0  0  0  0  0  0  0  0
    0.8321   -2.5451   41.8394 C   0  0  0  0  0  0  0  0  0  0  0  0
    6.3079   -2.8731   45.1171 C   0  0  0  0  0  0  0  0  0  0  0  0
    6.8863   -3.8787   45.9525 C   0  0  0  0  0  0  0  0  0  0  0  0
    1.4408   -3.5475   42.6011 C   0  0  0  0  0  0  0  0  0  0  0  0
    6.8919   -1.7510   45.0602 C   0  0  0  0  0  0  0  0  0  0  0  0
    8.1383   -1.7029   45.8456 C   0  0  0  0  0  0  0  0  0  0  0  0
    8.8942   -0.3556   45.7602 O   0  0  0  0  0  0  0  0  0  0  0  0
    8.5707   -2.6683   46.5680 C   0  0  0  0  0  0  0  0  0  0  0  0
    6.0278   -5.1474   46.0603 F   0  0  0  0  0  0  0  0  0  0  0  0
    9.8886   -2.3525   47.3392 C   0  0  0  0  0  0  0  0  0  0  0  0
    7.9287   -3.7992   46.7632 C   0  0  0  0  0  0  0  0  0  0  0  0
   10.9761   -2.6065   46.6251 N   0  0  0  0  0  0  0  0  0  0  0  0
   11.3313   -3.8191   46.3196 C   0  0  0  0  0  0  0  0  0  0  0  0
   11.7403   -1.5108   46.1105 C   0  0  0  0  0  0  0  0  0  0  0  0
   13.0474   -1.9978   45.6324 C   0  0  1  0  0  0  0  0  0  0  0  0
   12.8428   -3.3843   45.8716 C   0  0  0  0  0  0  0  0  0  0  0  0
   13.2813   -1.4752   44.3763 C   0  0  0  0  0  0  0  0  0  0  0  0
  1  2  2  0
  2  3  1  0
  1  4  1  0
  4  5  2  0
  3  6  2  0
  5  6  1  0
  6  7  1  0
  3  8  1  0
  5  9  1  0
  4 10  1  0
  8 11  2  0
  9 12  2  0
 12 13  1  0
  7 14  2  0
 11 14  1  0
 10 15  2  0
 12 15  1  0
 15 16  1  0
 16 17  1  0
 16 18  2  0
 13 19  1  0
 18 20  1  0
 13 21  2  0
 18 21  1  0
 20 22  1  0
 22 23  1  0
 22 24  1  0
 24 25  1  0
 23 26  1  0
 25 26  1  0
 25 27  1  6
M  END
$$$$
O14757_Pocket2Mol_idx-in-all-generaetd-164
     RDKit          3D

 38 46  0  0  0  0  0  0  0  0999 V2000
    1.5482   -0.3111   41.9233 C   0  0  0  0  0  0  0  0  0  0  0  0
    2.7284    0.2018   42.1525 N   0  0  0  0  0  0  0  0  0  0  0  0
    3.7893   -0.3016   42.7005 C   0  0  0  0  0  0  0  0  0  0  0  0
    3.3781   -1.7350   43.0000 C   0  0  0  0  0  0  0  0  0  0  0  0
    2.0339   -1.9619   42.6217 C   0  0  0  0  0  0  0  0  0  0  0  0
    5.0090    0.1219   42.9340 N   0  0  0  0  0  0  0  0  0  0  0  0
    4.2895   -2.4979   43.6707 C   0  0  0  0  0  0  0  0  0  0  0  0
    5.8391   -0.6675   43.6343 C   0  0  0  0  0  0  0  0  0  0  0  0
    6.9849   -0.2377   44.0028 N   0  0  0  0  0  0  0  0  0  0  0  0
    4.0426   -3.8794   44.0832 C   0  0  0  0  0  0  0  0  0  0  0  0
    7.6796   -0.8734   44.9326 C   0  0  0  0  0  0  0  0  0  0  0  0
    1.1064   -2.9576   42.4211 C   0  0  0  0  0  0  0  0  0  0  0  0
    5.5298   -1.9496   44.0315 C   0  0  0  0  0  0  0  0  0  0  0  0
    3.8954   -4.1817   45.4718 C   0  0  0  0  0  0  0  0  0  0  0  0
    0.6765   -3.5480   43.4006 C   0  0  1  0  0  0  0  0  0  0  0  0
    0.5804   -3.2191   41.1635 C   0  0  0  0  0  0  0  0  0  0  0  0
    2.8083   -4.8227   45.9203 N   0  0  0  0  0  0  0  0  0  0  0  0
   -0.1574   -4.5754   42.9329 N   0  0  0  0  0  0  0  0  0  0  0  0
    6.5271   -2.5531   44.9677 C   0  0  0  0  0  0  0  0  0  0  0  0
   -0.2272   -4.3703   41.5137 C   0  0  0  0  0  0  0  0  0  0  0  0
    7.5095   -2.0029   45.3993 C   0  0  0  0  0  0  0  0  0  0  0  0
    8.2550   -2.6982   46.3988 C   0  0  0  0  0  0  0  0  0  0  0  0
    8.8975   -0.3029   45.3267 O   0  0  0  0  0  0  0  0  0  0  0  0
    4.8299   -4.4637   46.4212 C   0  0  0  0  0  0  0  0  0  0  0  0
    4.2707   -4.9248   47.6295 N   0  0  0  0  0  0  0  0  0  0  0  0
    3.2045   -5.2092   47.1521 C   0  0  0  0  0  0  0  0  0  0  0  0
    1.4482   -4.6186   45.4134 C   0  0  1  0  0  0  0  0  0  0  0  0
    1.2398   -3.5043   44.6236 O   0  0  0  0  0  0  0  0  0  0  0  0
    6.3317   -3.9297   46.0870 C   0  0  2  0  0  0  0  0  0  0  0  0
    9.5296   -2.5449   46.9776 C   0  0  0  0  0  0  0  0  0  0  0  0
    9.7921   -1.7530   47.9018 O   0  0  0  0  0  0  0  0  0  0  0  0
    7.3972   -3.8130   46.7939 C   0  0  0  0  0  0  0  0  0  0  0  0
    1.2392   -5.7793   44.5610 C   0  0  0  0  0  0  0  0  0  0  0  0
   10.4982   -3.2564   46.4837 N   0  0  0  0  0  0  0  0  0  0  0  0
   11.8686   -3.0564   46.9374 C   0  0  0  0  0  0  0  0  0  0  0  0
   10.3143   -4.3335   45.5931 C   0  0  0  0  0  0  0  0  0  0  0  0
   11.7812   -4.6469   45.0418 C   0  0  0  0  0  0  0  0  0  0  0  0
   12.6872   -3.9533   46.1156 C   0  0  0  0  0  0  0  0  0  0  0  0
  1  2  1  0
  2  3  2  0
  3  4  1  0
  1  5  2  0
  4  5  1  0
  3  6  1  0
  4  7  2  0
  6  8  1  0
  8  9  1  0
  7 10  1  0
  9 11  1  0
  5 12  1  0
  7 13  1  0
  8 13  2  0
 10 14  1  0
 12 15  1  0
 12 16  2  0
 14 17  1  0
 15 18  1  0
 13 19  1  0
 16 20  1  0
 18 20  2  0
 11 21  1  0
 19 21  2  0
 21 22  1  0
 11 23  2  0
 14 24  2  0
 24 25  1  0
 17 26  1  0
 25 26  2  0
 17 27  1  0
 15 28  1  6
 27 28  1  0
 19 29  1  0
 24 29  1  0
 22 30  1  0
 30 31  2  0
 22 32  2  0
 29 32  1  1
 27 33  1  6
 30 34  1  0
 34 35  1  0
 34 36  1  0
 36 37  1  0
 35 38  1  0
 37 38  1  0
M  END
$$$$
O14757_Pocket2Mol_idx-in-all-generaetd-165
     RDKit          3D

 39 45  0  0  0  0  0  0  0  0999 V2000
    1.5482   -0.3111   41.9233 C   0  0  0  0  0  0  0  0  0  0  0  0
    2.7284    0.2018   42.1525 N   0  0  0  0  0  0  0  0  0  0  0  0
    3.7893   -0.3016   42.7005 C   0  0  0  0  0  0  0  0  0  0  0  0
    3.3781   -1.7350   43.0000 C   0  0  0  0  0  0  0  0  0  0  0  0
    2.0339   -1.9619   42.6217 C   0  0  0  0  0  0  0  0  0  0  0  0
    4.1166   -2.4997   43.8458 C   0  0  0  0  0  0  0  0  0  0  0  0
    1.1731   -3.0051   42.5773 C   0  0  0  0  0  0  0  0  0  0  0  0
    0.4701   -3.2344   41.4901 C   0  0  0  0  0  0  0  0  0  0  0  0
    5.3799   -1.7814   44.2691 C   0  0  0  0  0  0  0  0  0  0  0  0
    5.0159   -0.0180   43.1201 N   0  0  0  0  0  0  0  0  0  0  0  0
    5.7693   -0.6937   43.8418 C   0  0  0  0  0  0  0  0  0  0  0  0
    0.8078   -3.6166   43.6782 C   0  0  0  0  0  0  0  0  0  0  0  0
    0.0663   -4.7011   43.7415 N   0  0  0  0  0  0  0  0  0  0  0  0
    6.2223   -2.6843   45.1565 C   0  0  0  0  0  0  0  0  0  0  0  0
    6.9599   -0.2351   44.2608 N   0  0  0  0  0  0  0  0  0  0  0  0
    5.9065   -3.9037   45.7499 N   0  0  0  0  0  0  0  0  0  0  0  0
   -0.5459   -5.1185   42.5870 C   0  0  0  0  0  0  0  0  0  0  0  0
    5.7480   -4.0340   46.9810 C   0  0  0  0  0  0  0  0  0  0  0  0
    7.4448   -1.8511   45.4198 C   0  0  0  0  0  0  0  0  0  0  0  0
    7.7572   -0.7827   45.0128 C   0  0  0  0  0  0  0  0  0  0  0  0
    8.4076   -2.7217   46.4541 C   0  0  0  0  0  0  0  0  0  0  0  0
    9.3167   -2.0988   47.1049 N   0  0  0  0  0  0  0  0  0  0  0  0
   -0.4719   -4.3893   41.5406 C   0  0  0  0  0  0  0  0  0  0  0  0
    8.3667   -4.0284   46.5743 N   0  0  0  0  0  0  0  0  0  0  0  0
    9.5309   -4.3147   47.3094 C   0  0  0  0  0  0  0  0  0  0  0  0
    5.3113   -3.3789   47.8005 O   0  0  0  0  0  0  0  0  0  0  0  0
    9.9022   -5.6301   47.7684 C   0  0  0  0  0  0  0  0  0  0  0  0
    5.4470   -5.5868   47.2096 C   0  0  0  0  0  0  0  0  0  0  0  0
   11.2254   -5.8679   48.0402 C   0  0  0  0  0  0  0  0  0  0  0  0
    8.9736   -6.6532   47.8548 C   0  0  0  0  0  0  0  0  0  0  0  0
   10.0616   -3.0670   47.6360 C   0  0  0  0  0  0  0  0  0  0  0  0
    7.5566   -6.3564   47.5477 N   0  0  0  0  0  0  0  0  0  0  0  0
    6.4157   -6.1721   48.0913 C   0  0  0  0  0  0  0  0  0  0  0  0
    9.3646   -7.8782   48.1671 C   0  0  0  0  0  0  0  0  0  0  0  0
   12.3073   -4.8526   47.9155 O   0  0  0  0  0  0  0  0  0  0  0  0
    8.3867   -8.9995   48.3228 C   0  0  0  0  0  0  0  0  0  0  0  0
   13.1568   -4.8915   46.9272 C   0  0  0  0  0  0  0  0  0  0  0  0
   11.6864   -7.0886   48.4553 C   0  0  0  0  0  0  0  0  0  0  0  0
   10.7356   -8.2533   48.6465 C   0  0  0  0  0  0  0  0  0  0  0  0
  1  2  1  0
  2  3  2  0
  3  4  1  0
  1  5  2  0
  4  5  1  0
  4  6  2  0
  5  7  1  0
  7  8  2  0
  6  9  1  0
  3 10  1  0
  9 11  2  0
 10 11  1  0
  7 12  1  0
 12 13  2  0
  9 14  1  0
 11 15  1  0
 14 16  1  0
 13 17  1  0
 16 18  1  0
 14 19  2  0
 15 20  2  0
 19 20  1  0
 19 21  1  0
 21 22  2  0
  8 23  1  0
 17 23  2  0
 21 24  1  0
 24 25  1  0
 18 26  2  0
 25 27  1  0
 18 28  1  0
 27 29  2  0
 27 30  1  0
 22 31  1  0
 25 31  2  0
 30 32  1  0
 28 33  1  0
 32 33  1  0
 30 34  2  0
 29 35  1  0
 34 36  1  0
 35 37  1  0
 29 38  1  0
 34 39  1  0
 38 39  2  0
M  END
$$$$
O14757_Pocket2Mol_idx-in-all-generaetd-166
     RDKit          3D

 46 54  0  0  0  0  0  0  0  0999 V2000
    1.5482   -0.3111   41.9233 C   0  0  0  0  0  0  0  0  0  0  0  0
    2.7284    0.2018   42.1525 N   0  0  0  0  0  0  0  0  0  0  0  0
    3.7893   -0.3016   42.7005 C   0  0  0  0  0  0  0  0  0  0  0  0
    3.3781   -1.7350   43.0000 C   0  0  0  0  0  0  0  0  0  0  0  0
    2.0339   -1.9619   42.6217 C   0  0  0  0  0  0  0  0  0  0  0  0
    5.0090    0.1219   42.9340 N   0  0  0  0  0  0  0  0  0  0  0  0
    4.2895   -2.4979   43.6707 C   0  0  0  0  0  0  0  0  0  0  0  0
    5.8391   -0.6675   43.6343 C   0  0  0  0  0  0  0  0  0  0  0  0
    6.9849   -0.2377   44.0028 N   0  0  0  0  0  0  0  0  0  0  0  0
    4.0426   -3.8794   44.0832 C   0  0  0  0  0  0  0  0  0  0  0  0
    7.6796   -0.8734   44.9326 C   0  0  0  0  0  0  0  0  0  0  0  0
    1.1064   -2.9576   42.4211 C   0  0  0  0  0  0  0  0  0  0  0  0
    5.5298   -1.9496   44.0315 C   0  0  0  0  0  0  0  0  0  0  0  0
    3.8954   -4.1817   45.4718 C   0  0  0  0  0  0  0  0  0  0  0  0
    0.6765   -3.5480   43.4006 C   0  0  1  0  0  0  0  0  0  0  0  0
    0.5804   -3.2191   41.1635 C   0  0  0  0  0  0  0  0  0  0  0  0
    2.8083   -4.8227   45.9203 N   0  0  0  0  0  0  0  0  0  0  0  0
   -0.1574   -4.5754   42.9329 N   0  0  0  0  0  0  0  0  0  0  0  0
    6.5271   -2.5531   44.9677 C   0  0  0  0  0  0  0  0  0  0  0  0
   -0.2272   -4.3703   41.5137 C   0  0  0  0  0  0  0  0  0  0  0  0
    7.5095   -2.0029   45.3993 C   0  0  0  0  0  0  0  0  0  0  0  0
    8.2550   -2.6982   46.3988 C   0  0  2  0  0  0  0  0  0  0  0  0
    8.8975   -0.3029   45.3267 O   0  0  0  0  0  0  0  0  0  0  0  0
    4.8299   -4.4637   46.4212 C   0  0  0  0  0  0  0  0  0  0  0  0
    4.2707   -4.9248   47.6295 N   0  0  0  0  0  0  0  0  0  0  0  0
    3.2045   -5.2092   47.1521 C   0  0  0  0  0  0  0  0  0  0  0  0
    1.4482   -4.6186   45.4134 C   0  0  2  0  0  0  0  0  0  0  0  0
    1.2398   -3.5043   44.6236 O   0  0  0  0  0  0  0  0  0  0  0  0
    6.3317   -3.9297   46.0870 C   0  0  2  0  0  0  0  0  0  0  0  0
    9.5296   -2.5449   46.9776 C   0  0  0  0  0  0  0  0  0  0  0  0
    9.7921   -1.7530   47.9018 O   0  0  0  0  0  0  0  0  0  0  0  0
    7.4454   -3.8344   46.8035 C   0  0  0  0  0  0  0  0  0  0  0  0
   10.5010   -3.0847   46.3190 O   0  0  0  0  0  0  0  0  0  0  0  0
    0.5569   -4.7693   46.5649 C   0  0  0  0  0  0  0  0  0  0  0  0
   11.7452   -2.8462   46.6234 C   0  0  0  0  0  0  0  0  0  0  0  0
   12.4344   -1.8951   45.7393 C   0  0  0  0  0  0  0  0  0  0  0  0
   12.4612   -3.5429   47.5581 C   0  0  0  0  0  0  0  0  0  0  0  0
   11.7737   -4.5216   48.4115 C   0  0  0  0  0  0  0  0  0  0  0  0
   11.7935   -5.7538   48.0263 C   0  0  0  0  0  0  0  0  0  0  0  0
   13.8063   -3.2053   47.6588 C   0  0  0  0  0  0  0  0  0  0  0  0
   13.7637   -1.6546   45.8843 C   0  0  0  0  0  0  0  0  0  0  0  0
   14.4057   -0.6923   45.0481 C   0  0  0  0  0  0  0  0  0  0  0  0
   14.6389   -3.8708   48.7315 O   0  0  0  0  0  0  0  0  0  0  0  0
   14.4703   -2.3101   46.8961 C   0  0  0  0  0  0  0  0  0  0  0  0
   10.5728   -6.3887   47.6286 C   0  0  0  0  0  0  0  0  0  0  0  0
   10.6034   -7.0492   46.3265 C   0  0  0  0  0  0  0  0  0  0  0  0
  1  2  1  0
  2  3  2  0
  3  4  1  0
  1  5  2  0
  4  5  1  0
  3  6  1  0
  4  7  2  0
  6  8  1  0
  8  9  1  0
  7 10  1  0
  9 11  1  0
  5 12  1  0
  7 13  1  0
  8 13  2  0
 10 14  1  0
 12 15  1  0
 12 16  2  0
 14 17  1  0
 15 18  1  0
 13 19  1  0
 16 20  1  0
 18 20  2  0
 11 21  1  0
 19 21  2  0
 21 22  1  0
 11 23  2  0
 14 24  2  0
 24 25  1  0
 17 26  1  0
 25 26  2  0
 17 27  1  0
 15 28  1  6
 27 28  1  0
 19 29  1  0
 24 29  1  0
 22 30  1  6
 30 31  2  0
 22 32  1  0
 29 32  1  1
 30 33  1  0
 27 34  1  1
 33 35  1  0
 35 36  2  0
 35 37  1  0
 37 38  1  0
 38 39  1  0
 37 40  2  0
 36 41  1  0
 41 42  1  0
 40 43  1  0
 40 44  1  0
 41 44  2  0
 39 45  1  0
 45 46  1  0
M  END
$$$$
O14757_Pocket2Mol_idx-in-all-generaetd-167
     RDKit          3D

 40 47  0  0  0  0  0  0  0  0999 V2000
    1.5482   -0.3111   41.9233 C   0  0  0  0  0  0  0  0  0  0  0  0
    2.7284    0.2018   42.1525 N   0  0  0  0  0  0  0  0  0  0  0  0
    3.7893   -0.3016   42.7005 C   0  0  0  0  0  0  0  0  0  0  0  0
    3.3781   -1.7350   43.0000 C   0  0  0  0  0  0  0  0  0  0  0  0
    2.0339   -1.9619   42.6217 C   0  0  0  0  0  0  0  0  0  0  0  0
    4.1166   -2.4997   43.8458 C   0  0  0  0  0  0  0  0  0  0  0  0
    1.1731   -3.0051   42.5773 C   0  0  0  0  0  0  0  0  0  0  0  0
    0.4701   -3.2344   41.4901 C   0  0  0  0  0  0  0  0  0  0  0  0
    5.3799   -1.7814   44.2691 C   0  0  0  0  0  0  0  0  0  0  0  0
    5.0159   -0.0180   43.1201 N   0  0  0  0  0  0  0  0  0  0  0  0
    5.7693   -0.6937   43.8418 C   0  0  0  0  0  0  0  0  0  0  0  0
    0.8078   -3.6166   43.6782 C   0  0  0  0  0  0  0  0  0  0  0  0
    0.0663   -4.7011   43.7415 N   0  0  0  0  0  0  0  0  0  0  0  0
    6.2223   -2.6843   45.1565 C   0  0  0  0  0  0  0  0  0  0  0  0
    6.9599   -0.2351   44.2608 N   0  0  0  0  0  0  0  0  0  0  0  0
    5.9065   -3.9037   45.7499 N   0  0  0  0  0  0  0  0  0  0  0  0
   -0.5459   -5.1185   42.5870 C   0  0  0  0  0  0  0  0  0  0  0  0
    5.7480   -4.0340   46.9810 C   0  0  0  0  0  0  0  0  0  0  0  0
    7.4448   -1.8511   45.4198 C   0  0  0  0  0  0  0  0  0  0  0  0
    7.7572   -0.7827   45.0128 C   0  0  0  0  0  0  0  0  0  0  0  0
    8.4076   -2.7217   46.4541 C   0  0  0  0  0  0  0  0  0  0  0  0
    9.3167   -2.0988   47.1049 N   0  0  0  0  0  0  0  0  0  0  0  0
   -0.4719   -4.3893   41.5406 C   0  0  0  0  0  0  0  0  0  0  0  0
    8.3667   -4.0284   46.5743 N   0  0  0  0  0  0  0  0  0  0  0  0
    9.5309   -4.3147   47.3094 C   0  0  0  0  0  0  0  0  0  0  0  0
    5.3113   -3.3789   47.8005 O   0  0  0  0  0  0  0  0  0  0  0  0
    9.9022   -5.6301   47.7684 C   0  0  0  0  0  0  0  0  0  0  0  0
    5.4470   -5.5868   47.2096 C   0  0  0  0  0  0  0  0  0  0  0  0
   11.2254   -5.8679   48.0402 C   0  0  0  0  0  0  0  0  0  0  0  0
    8.9736   -6.6532   47.8548 C   0  0  0  0  0  0  0  0  0  0  0  0
   10.0616   -3.0670   47.6360 C   0  0  0  0  0  0  0  0  0  0  0  0
    7.5566   -6.3564   47.5477 N   0  0  0  0  0  0  0  0  0  0  0  0
    6.4157   -6.1721   48.0913 C   0  0  0  0  0  0  0  0  0  0  0  0
   12.3275   -4.8510   47.9324 C   0  0  0  0  0  0  0  0  0  0  0  0
    9.4585   -7.9662   48.0726 C   0  0  0  0  0  0  0  0  0  0  0  0
   11.5288   -2.7910   48.1740 C   0  0  0  0  0  0  0  0  0  0  0  0
   10.7288   -8.1991   48.4378 C   0  0  0  0  0  0  0  0  0  0  0  0
   13.5791   -5.4803   48.0269 O   0  0  0  0  0  0  0  0  0  0  0  0
   11.7234   -7.0676   48.3944 C   0  0  0  0  0  0  0  0  0  0  0  0
   12.2479   -3.5654   48.1441 C   0  0  0  0  0  0  0  0  0  0  0  0
  1  2  1  0
  2  3  2  0
  3  4  1  0
  1  5  2  0
  4  5  1  0
  4  6  2  0
  5  7  1  0
  7  8  2  0
  6  9  1  0
  3 10  1  0
  9 11  2  0
 10 11  1  0
  7 12  1  0
 12 13  2  0
  9 14  1  0
 11 15  1  0
 14 16  1  0
 13 17  1  0
 16 18  1  0
 14 19  2  0
 15 20  2  0
 19 20  1  0
 19 21  1  0
 21 22  2  0
  8 23  1  0
 17 23  2  0
 21 24  1  0
 24 25  1  0
 18 26  2  0
 25 27  1  0
 18 28  1  0
 27 29  2  0
 27 30  1  0
 22 31  1  0
 25 31  2  0
 30 32  1  0
 28 33  1  0
 32 33  1  0
 29 34  1  0
 30 35  2  0
 31 36  1  0
 35 37  1  0
 34 38  1  0
 29 39  1  0
 37 39  2  0
 34 40  2  0
 36 40  1  0
M  END
$$$$
O14757_Pocket2Mol_idx-in-all-generaetd-168
     RDKit          3D

 46 52  0  0  0  0  0  0  0  0999 V2000
    5.3420    0.2589   42.8836 O   0  0  0  0  0  0  0  0  0  0  0  0
    5.1627   -0.7554   43.4753 C   0  0  0  0  0  0  0  0  0  0  0  0
    4.0509   -1.4657   43.4177 N   0  0  0  0  0  0  0  0  0  0  0  0
    5.9969   -1.2317   44.6840 C   0  0  0  0  0  0  0  0  0  0  0  0
    2.9618   -1.1021   42.5918 C   0  0  1  0  0  0  0  0  0  0  0  0
    7.3392   -0.8596   44.8412 C   0  0  0  0  0  0  0  0  0  0  0  0
    1.9754   -2.0820   42.2741 C   0  0  0  0  0  0  0  0  0  0  0  0
    5.5910   -2.4282   45.3439 C   0  0  0  0  0  0  0  0  0  0  0  0
    6.5874   -2.9636   46.1581 C   0  0  0  0  0  0  0  0  0  0  0  0
    4.2763   -3.0680   45.0493 N   0  0  0  0  0  0  0  0  0  0  0  0
    3.6188   -2.5886   44.2024 C   0  0  0  0  0  0  0  0  0  0  0  0
    8.1921   -1.4071   45.7505 C   0  0  0  0  0  0  0  0  0  0  0  0
    1.0154   -1.8839   41.2980 C   0  0  0  0  0  0  0  0  0  0  0  0
    2.5720   -3.3564   43.9063 C   0  0  0  0  0  0  0  0  0  0  0  0
    0.2502   -2.8976   41.0751 C   0  0  0  0  0  0  0  0  0  0  0  0
    6.1761   -4.1775   47.0209 C   0  0  0  0  0  0  0  0  0  0  0  0
    1.7266   -3.1047   43.0115 C   0  0  2  0  0  0  0  0  0  0  0  0
    2.3696   -4.5367   44.7536 N   0  0  0  0  0  0  0  0  0  0  0  0
    1.2264   -5.2346   44.4693 C   0  0  0  0  0  0  0  0  0  0  0  0
    0.7187   -3.8955   42.5465 C   0  0  0  0  0  0  0  0  0  0  0  0
    9.4576   -0.8949   46.0327 N   0  0  0  0  0  0  0  0  0  0  0  0
    0.8625   -6.3901   45.2462 C   0  0  0  0  0  0  0  0  0  0  0  0
    7.6467   -2.5139   46.4892 C   0  0  0  0  0  0  0  0  0  0  0  0
   10.4908   -1.5336   45.8242 C   0  0  0  0  0  0  0  0  0  0  0  0
    0.3057   -4.9299   43.2909 C   0  0  0  0  0  0  0  0  0  0  0  0
   11.5916   -1.4291   46.7436 C   0  0  0  0  0  0  0  0  0  0  0  0
   10.5566   -2.3672   44.8649 O   0  0  0  0  0  0  0  0  0  0  0  0
   12.8421   -1.9355   46.2823 C   0  0  0  0  0  0  0  0  0  0  0  0
   13.4833   -2.8582   46.9841 C   0  0  0  0  0  0  0  0  0  0  0  0
   11.4002   -1.1447   48.0540 C   0  0  0  0  0  0  0  0  0  0  0  0
   10.2867   -0.4569   48.4999 O   0  0  0  0  0  0  0  0  0  0  0  0
   12.3327   -1.4798   48.9564 C   0  0  0  0  0  0  0  0  0  0  0  0
   14.7901   -3.3162   46.6439 C   0  0  0  0  0  0  0  0  0  0  0  0
   12.1651   -1.3050   50.3239 O   0  0  0  0  0  0  0  0  0  0  0  0
   15.6765   -2.5740   46.0979 C   0  0  0  0  0  0  0  0  0  0  0  0
   13.4417   -2.4710   48.5369 C   0  0  0  0  0  0  0  0  0  0  0  0
   15.5553   -1.2853   45.8338 C   0  0  0  0  0  0  0  0  0  0  0  0
    2.4633    0.2112   42.8553 C   0  0  0  0  0  0  0  0  0  0  0  0
   15.4040   -0.8809   44.5109 C   0  0  0  0  0  0  0  0  0  0  0  0
   14.8738    0.3113   44.1938 C   0  0  0  0  0  0  0  0  0  0  0  0
   14.7152    1.1803   45.2021 C   0  0  0  0  0  0  0  0  0  0  0  0
   14.9830    0.9587   46.4703 C   0  0  0  0  0  0  0  0  0  0  0  0
   14.6729    1.9187   47.5393 C   0  0  0  0  0  0  0  0  0  0  0  0
   15.4965   -0.3066   46.7749 C   0  0  0  0  0  0  0  0  0  0  0  0
   13.4142    2.2165   47.7341 C   0  0  0  0  0  0  0  0  0  0  0  0
   12.4054    1.7703   46.9882 O   0  0  0  0  0  0  0  0  0  0  0  0
  1  2  2  0
  2  3  1  0
  2  4  1  0
  3  5  1  0
  4  6  2  0
  5  7  1  0
  4  8  1  0
  8  9  2  0
  8 10  1  0
  3 11  1  0
 10 11  2  0
  6 12  1  0
  7 13  2  0
 11 14  1  0
 13 15  1  0
  9 16  1  0
 17  7  1  6
 14 17  1  0
 14 18  2  0
 18 19  1  0
 15 20  2  0
 17 20  1  0
 12 21  1  0
 19 22  1  0
  9 23  1  0
 12 23  2  0
 21 24  1  0
 19 25  2  0
 20 25  1  0
 24 26  1  0
 24 27  2  0
 26 28  2  0
 28 29  1  0
 26 30  1  0
 30 31  1  0
 30 32  2  0
 29 33  1  0
 32 34  1  0
 33 35  2  3
 29 36  2  0
 32 36  1  0
 35 37  1  0
  5 38  1  1
 37 39  2  0
 39 40  1  0
 40 41  2  0
 41 42  1  0
 42 43  1  0
 37 44  1  0
 42 44  2  0
 43 45  2  3
 45 46  1  0
M  END
$$$$
O14757_Pocket2Mol_idx-in-all-generaetd-169
     RDKit          3D

 38 42  0  0  0  0  0  0  0  0999 V2000
    4.5142    0.3543   42.7132 N   0  0  0  0  0  0  0  0  0  0  0  0
    3.5107   -0.4860   42.6298 C   0  0  0  0  0  0  0  0  0  0  0  0
    3.5891   -1.7637   43.2512 N   0  0  0  0  0  0  0  0  0  0  0  0
    5.5470   -0.0112   43.3539 C   0  0  0  0  0  0  0  0  0  0  0  0
    2.1469   -0.1899   41.9512 C   0  0  0  0  0  0  0  0  0  0  0  0
    4.6725   -2.0734   43.8606 C   0  0  0  0  0  0  0  0  0  0  0  0
    5.7749   -1.1829   43.9325 C   0  0  0  0  0  0  0  0  0  0  0  0
    4.7150   -3.3068   44.6440 C   0  0  0  0  0  0  0  0  0  0  0  0
    6.9086   -1.5797   44.6919 C   0  0  0  0  0  0  0  0  0  0  0  0
    3.5691   -4.2517   44.6407 C   0  0  0  0  0  0  0  0  0  0  0  0
    2.3573   -4.0060   44.5430 C   0  0  0  0  0  0  0  0  0  0  0  0
    6.9170   -2.8018   45.4663 C   0  0  0  0  0  0  0  0  0  0  0  0
    5.8006   -3.6152   45.4297 C   0  0  0  0  0  0  0  0  0  0  0  0
    8.0903   -3.1108   46.2193 C   0  0  0  0  0  0  0  0  0  0  0  0
    4.0064   -5.4798   44.1304 O   0  0  0  0  0  0  0  0  0  0  0  0
    1.3499   -4.4927   43.7488 C   0  0  0  0  0  0  0  0  0  0  0  0
    8.9407   -2.1153   46.7855 N   0  0  0  0  0  0  0  0  0  0  0  0
    9.9131   -2.4307   47.6296 C   0  0  0  0  0  0  0  0  0  0  0  0
    9.9401   -2.1931   48.7722 O   0  0  0  0  0  0  0  0  0  0  0  0
    1.6925   -3.8787   45.7737 C   0  0  0  0  0  0  0  0  0  0  0  0
    0.0956   -4.4506   43.8726 C   0  0  0  0  0  0  0  0  0  0  0  0
   -0.4743   -4.1254   44.9651 C   0  0  0  0  0  0  0  0  0  0  0  0
    0.3478   -3.8227   46.0202 C   0  0  0  0  0  0  0  0  0  0  0  0
   10.9717   -3.3044   47.0291 C   0  0  2  0  0  0  0  0  0  0  0  0
   10.8168   -4.5181   46.8298 C   0  0  0  0  0  0  0  0  0  0  0  0
   12.2889   -2.9891   47.7404 N   0  0  0  0  0  0  0  0  0  0  0  0
   13.0416   -1.8355   47.4586 C   0  0  0  0  0  0  0  0  0  0  0  0
   12.2336   -3.1930   49.1667 C   0  0  0  0  0  0  0  0  0  0  0  0
   11.0242   -5.1627   45.6000 C   0  0  0  0  0  0  0  0  0  0  0  0
   10.3651   -5.5894   47.7228 C   0  0  0  0  0  0  0  0  0  0  0  0
   10.2107   -6.9348   47.5874 C   0  0  0  0  0  0  0  0  0  0  0  0
   10.4588   -7.4045   46.2958 C   0  0  0  0  0  0  0  0  0  0  0  0
   10.3147   -8.8014   46.0446 O   0  0  0  0  0  0  0  0  0  0  0  0
   13.5414   -2.8781   49.7861 C   0  0  0  0  0  0  0  0  0  0  0  0
   14.2881   -1.7865   48.0746 C   0  0  0  0  0  0  0  0  0  0  0  0
   10.9277   -6.5615   45.3248 C   0  0  0  0  0  0  0  0  0  0  0  0
   11.3462   -9.5407   45.9502 C   0  0  0  0  0  0  0  0  0  0  0  0
   14.1297   -1.7051   49.5249 O   0  0  0  0  0  0  0  0  0  0  0  0
  1  2  2  0
  2  3  1  0
  1  4  1  0
  2  5  1  0
  3  6  2  0
  4  7  2  0
  6  7  1  0
  6  8  1  0
  7  9  1  0
  8 10  1  0
 10 11  1  0
  9 12  2  0
  8 13  2  0
 12 13  1  0
 12 14  1  0
 10 15  2  0
 11 16  2  0
 14 17  1  0
 17 18  1  0
 18 19  2  0
 11 20  1  0
 16 21  1  0
 21 22  2  0
 20 23  2  0
 22 23  1  0
 18 24  1  0
 24 25  1  0
 24 26  1  1
 26 27  1  0
 26 28  1  0
 25 29  2  0
 25 30  1  0
 30 31  2  0
 31 32  1  0
 32 33  1  0
 28 34  1  0
 27 35  1  0
 29 36  1  0
 32 36  2  0
 33 37  1  0
 34 38  1  0
 35 38  1  0
M  END
$$$$
O14757_Pocket2Mol_idx-in-all-generaetd-170
     RDKit          3D

 45 53  0  0  0  0  0  0  0  0999 V2000
    1.5482   -0.3111   41.9233 C   0  0  0  0  0  0  0  0  0  0  0  0
    2.7284    0.2018   42.1525 N   0  0  0  0  0  0  0  0  0  0  0  0
    3.7893   -0.3016   42.7005 C   0  0  0  0  0  0  0  0  0  0  0  0
    3.3781   -1.7350   43.0000 C   0  0  0  0  0  0  0  0  0  0  0  0
    2.0339   -1.9619   42.6217 C   0  0  0  0  0  0  0  0  0  0  0  0
    5.0090    0.1219   42.9340 N   0  0  0  0  0  0  0  0  0  0  0  0
    4.2895   -2.4979   43.6707 C   0  0  0  0  0  0  0  0  0  0  0  0
    5.8391   -0.6675   43.6343 C   0  0  0  0  0  0  0  0  0  0  0  0
    6.9849   -0.2377   44.0028 N   0  0  0  0  0  0  0  0  0  0  0  0
    4.0426   -3.8794   44.0832 C   0  0  0  0  0  0  0  0  0  0  0  0
    7.6796   -0.8734   44.9326 C   0  0  0  0  0  0  0  0  0  0  0  0
    1.1064   -2.9576   42.4211 C   0  0  0  0  0  0  0  0  0  0  0  0
    5.5298   -1.9496   44.0315 C   0  0  0  0  0  0  0  0  0  0  0  0
    3.8954   -4.1817   45.4718 C   0  0  0  0  0  0  0  0  0  0  0  0
    0.6765   -3.5480   43.4006 C   0  0  1  0  0  0  0  0  0  0  0  0
    0.5804   -3.2191   41.1635 C   0  0  0  0  0  0  0  0  0  0  0  0
    2.8083   -4.8227   45.9203 N   0  0  0  0  0  0  0  0  0  0  0  0
   -0.1574   -4.5754   42.9329 N   0  0  0  0  0  0  0  0  0  0  0  0
    6.5271   -2.5531   44.9677 C   0  0  0  0  0  0  0  0  0  0  0  0
   -0.2272   -4.3703   41.5137 C   0  0  0  0  0  0  0  0  0  0  0  0
    7.5095   -2.0029   45.3993 C   0  0  0  0  0  0  0  0  0  0  0  0
    8.2550   -2.6982   46.3988 C   0  0  0  0  0  0  0  0  0  0  0  0
    8.8975   -0.3029   45.3267 O   0  0  0  0  0  0  0  0  0  0  0  0
    4.8299   -4.4637   46.4212 C   0  0  0  0  0  0  0  0  0  0  0  0
    4.2707   -4.9248   47.6295 N   0  0  0  0  0  0  0  0  0  0  0  0
    3.2045   -5.2092   47.1521 C   0  0  0  0  0  0  0  0  0  0  0  0
    1.4482   -4.6186   45.4134 C   0  0  2  0  0  0  0  0  0  0  0  0
    1.2398   -3.5043   44.6236 O   0  0  0  0  0  0  0  0  0  0  0  0
    6.3317   -3.9297   46.0870 C   0  0  2  0  0  0  0  0  0  0  0  0
    9.5296   -2.5449   46.9776 C   0  0  0  0  0  0  0  0  0  0  0  0
    9.7921   -1.7530   47.9018 O   0  0  0  0  0  0  0  0  0  0  0  0
    7.3972   -3.8130   46.7939 C   0  0  0  0  0  0  0  0  0  0  0  0
   10.4154   -3.4217   46.6883 O   0  0  0  0  0  0  0  0  0  0  0  0
    0.5555   -4.7535   46.5674 C   0  0  0  0  0  0  0  0  0  0  0  0
   11.6497   -3.0596   47.0439 C   0  0  0  0  0  0  0  0  0  0  0  0
   12.3878   -4.1125   47.6990 C   0  0  1  0  0  0  0  0  0  0  0  0
   11.8800   -5.2760   47.5659 O   0  0  0  0  0  0  0  0  0  0  0  0
   12.1402   -1.9273   46.5416 C   0  0  0  0  0  0  0  0  0  0  0  0
   13.7566   -3.9428   47.4635 C   0  0  0  0  0  0  0  0  0  0  0  0
   12.5319   -6.3439   48.1744 C   0  0  0  0  0  0  0  0  0  0  0  0
   14.4239   -2.7244   47.1296 C   0  0  0  0  0  0  0  0  0  0  0  0
   13.5761   -1.7777   46.4789 C   0  0  0  0  0  0  0  0  0  0  0  0
   15.7366   -2.4945   47.0614 C   0  0  0  0  0  0  0  0  0  0  0  0
   16.5426   -3.2109   46.7976 O   0  0  0  0  0  0  0  0  0  0  0  0
   16.0986   -1.1765   47.1535 O   0  0  0  0  0  0  0  0  0  0  0  0
  1  2  1  0
  2  3  2  0
  3  4  1  0
  1  5  2  0
  4  5  1  0
  3  6  1  0
  4  7  2  0
  6  8  1  0
  8  9  1  0
  7 10  1  0
  9 11  1  0
  5 12  1  0
  7 13  1  0
  8 13  2  0
 10 14  1  0
 12 15  1  0
 12 16  2  0
 14 17  1  0
 15 18  1  0
 13 19  1  0
 16 20  1  0
 18 20  2  0
 11 21  1  0
 19 21  2  0
 21 22  1  0
 11 23  2  0
 14 24  2  0
 24 25  1  0
 17 26  1  0
 25 26  2  0
 17 27  1  0
 15 28  1  6
 27 28  1  0
 19 29  1  0
 24 29  1  0
 22 30  1  0
 30 31  2  0
 22 32  2  0
 29 32  1  1
 30 33  1  0
 27 34  1  1
 33 35  1  0
 35 36  1  0
 36 37  1  6
 35 38  2  0
 36 39  1  0
 37 40  1  0
 39 41  1  0
 38 42  1  0
 41 42  2  0
 41 43  1  0
 43 44  2  0
 43 45  1  0
M  END
$$$$
O14757_Pocket2Mol_idx-in-all-generaetd-171
     RDKit          3D

 34 39  0  0  0  0  0  0  0  0999 V2000
    1.5482   -0.3111   41.9233 C   0  0  0  0  0  0  0  0  0  0  0  0
    2.7284    0.2018   42.1525 N   0  0  0  0  0  0  0  0  0  0  0  0
    3.7893   -0.3016   42.7005 C   0  0  0  0  0  0  0  0  0  0  0  0
    3.3781   -1.7350   43.0000 C   0  0  0  0  0  0  0  0  0  0  0  0
    2.0339   -1.9619   42.6217 C   0  0  0  0  0  0  0  0  0  0  0  0
    4.1166   -2.4997   43.8458 C   0  0  0  0  0  0  0  0  0  0  0  0
    1.1731   -3.0051   42.5773 C   0  0  0  0  0  0  0  0  0  0  0  0
    0.4701   -3.2344   41.4901 C   0  0  0  0  0  0  0  0  0  0  0  0
    5.3799   -1.7814   44.2691 C   0  0  0  0  0  0  0  0  0  0  0  0
    5.0159   -0.0180   43.1201 N   0  0  0  0  0  0  0  0  0  0  0  0
    5.7693   -0.6937   43.8418 C   0  0  0  0  0  0  0  0  0  0  0  0
    0.8078   -3.6166   43.6782 C   0  0  0  0  0  0  0  0  0  0  0  0
    0.0663   -4.7011   43.7415 N   0  0  0  0  0  0  0  0  0  0  0  0
    6.2223   -2.6843   45.1565 C   0  0  0  0  0  0  0  0  0  0  0  0
    6.9599   -0.2351   44.2608 N   0  0  0  0  0  0  0  0  0  0  0  0
    5.9065   -3.9037   45.7499 N   0  0  0  0  0  0  0  0  0  0  0  0
   -0.5459   -5.1185   42.5870 C   0  0  0  0  0  0  0  0  0  0  0  0
    5.7480   -4.0340   46.9810 C   0  0  0  0  0  0  0  0  0  0  0  0
    7.4448   -1.8511   45.4198 C   0  0  0  0  0  0  0  0  0  0  0  0
    7.7572   -0.7827   45.0128 C   0  0  0  0  0  0  0  0  0  0  0  0
    8.4076   -2.7217   46.4541 C   0  0  0  0  0  0  0  0  0  0  0  0
    9.3167   -2.0988   47.1049 N   0  0  0  0  0  0  0  0  0  0  0  0
   -0.4719   -4.3893   41.5406 C   0  0  0  0  0  0  0  0  0  0  0  0
    8.3667   -4.0284   46.5743 N   0  0  0  0  0  0  0  0  0  0  0  0
   10.1532   -2.5726   47.9567 C   0  0  0  0  0  0  0  0  0  0  0  0
    7.1666   -4.7114   47.2915 C   0  0  0  0  0  0  0  0  0  0  0  0
   11.4560   -2.5376   47.5873 C   0  0  0  0  0  0  0  0  0  0  0  0
   11.8152   -3.5493   46.6694 C   0  0  0  0  0  0  0  0  0  0  0  0
   12.7174   -3.2253   45.6793 O   0  0  0  0  0  0  0  0  0  0  0  0
   11.1601   -4.5914   46.3617 O   0  0  0  0  0  0  0  0  0  0  0  0
    9.8346   -2.3571   49.3169 C   0  0  0  0  0  0  0  0  0  0  0  0
   12.5492   -2.5825   48.5441 C   0  0  0  0  0  0  0  0  0  0  0  0
   10.8470   -2.1021   50.2861 C   0  0  0  0  0  0  0  0  0  0  0  0
   12.1926   -2.3586   49.9309 C   0  0  0  0  0  0  0  0  0  0  0  0
  1  2  1  0
  2  3  2  0
  3  4  1  0
  1  5  2  0
  4  5  1  0
  4  6  2  0
  5  7  1  0
  7  8  2  0
  6  9  1  0
  3 10  1  0
  9 11  2  0
 10 11  1  0
  7 12  1  0
 12 13  2  0
  9 14  1  0
 11 15  1  0
 14 16  1  0
 13 17  1  0
 16 18  1  0
 14 19  2  0
 15 20  2  0
 19 20  1  0
 19 21  1  0
 21 22  2  3
  8 23  1  0
 17 23  2  0
 21 24  1  0
 22 25  1  0
 18 26  1  0
 24 26  1  0
 25 27  2  0
 27 28  1  0
 28 29  2  0
 28 30  1  0
 25 31  1  0
 27 32  1  0
 31 33  2  0
 32 34  2  0
 33 34  1  0
M  END
$$$$
O14757_Pocket2Mol_idx-in-all-generaetd-172
     RDKit          3D

 28 32  0  0  0  0  0  0  0  0999 V2000
    4.5156    0.0550   42.9895 N   0  0  0  0  0  0  0  0  0  0  0  0
    3.2960    0.1633   42.4470 C   0  0  0  0  0  0  0  0  0  0  0  0
    2.7621   -1.2305   42.4476 C   0  0  0  0  0  0  0  0  0  0  0  0
    5.2005   -0.8099   43.5858 C   0  0  0  0  0  0  0  0  0  0  0  0
    4.4157   -2.0357   43.6745 C   0  0  0  0  0  0  0  0  0  0  0  0
    3.3964   -2.2069   43.1195 C   0  0  0  0  0  0  0  0  0  0  0  0
    2.6107   -3.4636   43.1542 N   0  0  0  0  0  0  0  0  0  0  0  0
    1.4467   -1.2849   41.8335 C   0  0  0  0  0  0  0  0  0  0  0  0
    5.1851   -3.1348   44.4538 N   0  0  0  0  0  0  0  0  0  0  0  0
    6.4172   -0.8203   44.3346 N   0  0  0  0  0  0  0  0  0  0  0  0
    0.8321   -2.5451   41.8394 C   0  0  0  0  0  0  0  0  0  0  0  0
    1.4134   -3.5528   42.5919 C   0  0  0  0  0  0  0  0  0  0  0  0
    6.3428   -2.7074   45.0536 C   0  0  0  0  0  0  0  0  0  0  0  0
    6.8277   -1.4386   44.9522 C   0  0  0  0  0  0  0  0  0  0  0  0
    8.1428   -1.2695   45.6287 C   0  0  0  0  0  0  0  0  0  0  0  0
    6.7295   -3.7948   46.0360 C   0  0  0  0  0  0  0  0  0  0  0  0
    8.0115   -3.5481   46.6450 C   0  0  0  0  0  0  0  0  0  0  0  0
    8.8073   -0.1733   45.6146 O   0  0  0  0  0  0  0  0  0  0  0  0
    8.6405   -2.2670   46.5404 C   0  0  0  0  0  0  0  0  0  0  0  0
    9.8709   -1.9854   47.0853 O   0  0  0  0  0  0  0  0  0  0  0  0
   10.8299   -2.9834   47.0851 C   0  0  0  0  0  0  0  0  0  0  0  0
   11.6846   -2.7679   46.0008 C   0  0  0  0  0  0  0  0  0  0  0  0
   11.0220   -3.9157   47.8544 C   0  0  0  0  0  0  0  0  0  0  0  0
   12.7976   -3.6166   45.8538 C   0  0  0  0  0  0  0  0  0  0  0  0
   10.0496   -4.1267   49.0710 O   0  0  0  0  0  0  0  0  0  0  0  0
    9.9161   -5.4014   49.5332 C   0  0  0  0  0  0  0  0  0  0  0  0
   12.9826   -4.5707   46.7605 C   0  0  0  0  0  0  0  0  0  0  0  0
   12.1598   -4.7774   47.8041 C   0  0  0  0  0  0  0  0  0  0  0  0
  1  2  2  0
  2  3  1  0
  1  4  1  0
  4  5  2  0
  3  6  2  0
  5  6  1  0
  6  7  1  0
  3  8  1  0
  5  9  1  0
  4 10  1  0
  8 11  2  0
  7 12  2  0
 11 12  1  0
  9 13  2  0
 10 14  2  0
 13 14  1  0
 14 15  1  0
 13 16  1  0
 16 17  2  0
 15 18  1  0
 15 19  2  0
 17 19  1  0
 19 20  1  0
 20 21  1  0
 21 22  2  0
 21 23  1  0
 22 24  1  0
 23 25  1  0
 25 26  1  0
 24 27  2  0
 23 28  2  0
 27 28  1  0
M  END
$$$$
O14757_Pocket2Mol_idx-in-all-generaetd-173
     RDKit          3D

 34 38  0  0  0  0  0  0  0  0999 V2000
    5.3420    0.2589   42.8836 O   0  0  0  0  0  0  0  0  0  0  0  0
    5.1627   -0.7554   43.4753 C   0  0  0  0  0  0  0  0  0  0  0  0
    4.0509   -1.4657   43.4177 N   0  0  0  0  0  0  0  0  0  0  0  0
    5.9969   -1.2317   44.6840 C   0  0  0  0  0  0  0  0  0  0  0  0
    2.9618   -1.1021   42.5918 C   0  0  0  0  0  0  0  0  0  0  0  0
    7.3392   -0.8596   44.8412 C   0  0  0  0  0  0  0  0  0  0  0  0
    1.9754   -2.0820   42.2741 C   0  0  0  0  0  0  0  0  0  0  0  0
    5.5910   -2.4282   45.3439 C   0  0  0  0  0  0  0  0  0  0  0  0
    6.5874   -2.9636   46.1581 C   0  0  0  0  0  0  0  0  0  0  0  0
    4.2763   -3.0680   45.0493 N   0  0  0  0  0  0  0  0  0  0  0  0
    3.6188   -2.5886   44.2024 C   0  0  0  0  0  0  0  0  0  0  0  0
    8.1921   -1.4071   45.7505 C   0  0  0  0  0  0  0  0  0  0  0  0
    1.0154   -1.8839   41.2980 C   0  0  0  0  0  0  0  0  0  0  0  0
    2.5720   -3.3564   43.9063 C   0  0  0  0  0  0  0  0  0  0  0  0
    0.2502   -2.8976   41.0751 C   0  0  0  0  0  0  0  0  0  0  0  0
    0.2230   -3.9124   42.0516 C   0  0  0  0  0  0  0  0  0  0  0  0
    2.2879   -4.6260   44.7113 N   0  0  0  0  0  0  0  0  0  0  0  0
    6.1659   -4.2025   47.0113 C   0  0  0  0  0  0  0  0  0  0  0  0
    7.7956   -2.4608   46.4615 C   0  0  0  0  0  0  0  0  0  0  0  0
    2.9712    0.0201   42.0096 O   0  0  0  0  0  0  0  0  0  0  0  0
    1.7132   -3.1838   42.9787 C   0  0  2  0  0  0  0  0  0  0  0  0
    8.6828   -3.0330   47.4960 O   0  0  0  0  0  0  0  0  0  0  0  0
    1.1703   -5.2709   44.7618 O   0  0  0  0  0  0  0  0  0  0  0  0
    9.9111   -3.2041   47.1216 C   0  0  0  0  0  0  0  0  0  0  0  0
    0.5515   -5.1401   45.9479 C   0  0  0  0  0  0  0  0  0  0  0  0
   10.2088   -4.3574   46.5630 C   0  0  0  0  0  0  0  0  0  0  0  0
   10.8619   -2.2052   47.3191 C   0  0  0  0  0  0  0  0  0  0  0  0
   11.5450   -4.6712   46.2149 C   0  0  0  0  0  0  0  0  0  0  0  0
   11.8381   -5.9385   45.7054 O   0  0  0  0  0  0  0  0  0  0  0  0
   12.9206   -6.4824   45.9521 C   0  0  0  0  0  0  0  0  0  0  0  0
   12.2258   -2.4659   46.8897 C   0  0  0  0  0  0  0  0  0  0  0  0
   13.2717   -1.4948   47.0499 O   0  0  0  0  0  0  0  0  0  0  0  0
   12.4971   -3.7256   46.3838 C   0  0  0  0  0  0  0  0  0  0  0  0
   13.1598   -0.3985   46.1687 C   0  0  0  0  0  0  0  0  0  0  0  0
  1  2  2  0
  2  3  1  0
  2  4  1  0
  3  5  1  0
  4  6  2  0
  5  7  1  0
  4  8  1  0
  8  9  2  0
  8 10  1  0
  3 11  1  0
 10 11  2  0
  6 12  1  0
  7 13  2  0
 11 14  1  0
 13 15  1  0
 15 16  2  0
 14 17  2  3
  9 18  1  0
  9 19  1  0
 12 19  2  0
  5 20  2  0
  7 21  1  0
 14 21  1  0
 21 16  1  6
 19 22  1  0
 17 23  1  0
 22 24  1  0
 23 25  1  0
 24 26  2  0
 24 27  1  0
 26 28  1  0
 28 29  1  0
 29 30  1  0
 27 31  2  0
 31 32  1  0
 28 33  2  0
 31 33  1  0
 32 34  1  0
M  END
$$$$
O14757_Pocket2Mol_idx-in-all-generaetd-174
     RDKit          3D

 35 42  0  0  0  0  0  0  0  0999 V2000
    1.5482   -0.3111   41.9233 C   0  0  0  0  0  0  0  0  0  0  0  0
    2.7284    0.2018   42.1525 N   0  0  0  0  0  0  0  0  0  0  0  0
    3.7893   -0.3016   42.7005 C   0  0  0  0  0  0  0  0  0  0  0  0
    3.3781   -1.7350   43.0000 C   0  0  0  0  0  0  0  0  0  0  0  0
    2.0339   -1.9619   42.6217 C   0  0  0  0  0  0  0  0  0  0  0  0
    5.0090    0.1219   42.9340 N   0  0  0  0  0  0  0  0  0  0  0  0
    4.2895   -2.4979   43.6707 C   0  0  0  0  0  0  0  0  0  0  0  0
    5.8391   -0.6675   43.6343 C   0  0  0  0  0  0  0  0  0  0  0  0
    6.9849   -0.2377   44.0028 N   0  0  0  0  0  0  0  0  0  0  0  0
    4.0426   -3.8794   44.0832 C   0  0  0  0  0  0  0  0  0  0  0  0
    7.6796   -0.8734   44.9326 C   0  0  0  0  0  0  0  0  0  0  0  0
    1.1064   -2.9576   42.4211 C   0  0  0  0  0  0  0  0  0  0  0  0
    5.5298   -1.9496   44.0315 C   0  0  0  0  0  0  0  0  0  0  0  0
    3.8954   -4.1817   45.4718 C   0  0  0  0  0  0  0  0  0  0  0  0
    0.6765   -3.5480   43.4006 C   0  0  1  0  0  0  0  0  0  0  0  0
    0.5804   -3.2191   41.1635 C   0  0  0  0  0  0  0  0  0  0  0  0
    2.8083   -4.8227   45.9203 N   0  0  0  0  0  0  0  0  0  0  0  0
   -0.1574   -4.5754   42.9329 N   0  0  0  0  0  0  0  0  0  0  0  0
    6.5271   -2.5531   44.9677 C   0  0  0  0  0  0  0  0  0  0  0  0
   -0.2272   -4.3703   41.5137 C   0  0  0  0  0  0  0  0  0  0  0  0
    7.5095   -2.0029   45.3993 C   0  0  0  0  0  0  0  0  0  0  0  0
    8.2550   -2.6982   46.3988 C   0  0  0  0  0  0  0  0  0  0  0  0
    8.8975   -0.3029   45.3267 O   0  0  0  0  0  0  0  0  0  0  0  0
    4.8299   -4.4637   46.4212 C   0  0  0  0  0  0  0  0  0  0  0  0
    4.2707   -4.9248   47.6295 N   0  0  0  0  0  0  0  0  0  0  0  0
    3.2045   -5.2092   47.1521 C   0  0  0  0  0  0  0  0  0  0  0  0
    1.4482   -4.6186   45.4134 C   0  0  1  0  0  0  0  0  0  0  0  0
    1.2398   -3.5043   44.6236 O   0  0  0  0  0  0  0  0  0  0  0  0
    6.3317   -3.9297   46.0870 C   0  0  2  0  0  0  0  0  0  0  0  0
    9.5296   -2.5449   46.9776 C   0  0  0  0  0  0  0  0  0  0  0  0
    9.7921   -1.7530   47.9018 O   0  0  0  0  0  0  0  0  0  0  0  0
    7.3972   -3.8130   46.7939 C   0  0  0  0  0  0  0  0  0  0  0  0
    1.2392   -5.7793   44.5610 C   0  0  0  0  0  0  0  0  0  0  0  0
   10.4982   -3.2564   46.4837 O   0  0  0  0  0  0  0  0  0  0  0  0
   11.4905   -2.6169   45.9015 C   0  0  0  0  0  0  0  0  0  0  0  0
  1  2  1  0
  2  3  2  0
  3  4  1  0
  1  5  2  0
  4  5  1  0
  3  6  1  0
  4  7  2  0
  6  8  1  0
  8  9  1  0
  7 10  1  0
  9 11  1  0
  5 12  1  0
  7 13  1  0
  8 13  2  0
 10 14  1  0
 12 15  1  0
 12 16  2  0
 14 17  1  0
 15 18  1  0
 13 19  1  0
 16 20  1  0
 18 20  2  0
 11 21  1  0
 19 21  2  0
 21 22  1  0
 11 23  2  0
 14 24  2  0
 24 25  1  0
 17 26  1  0
 25 26  2  0
 17 27  1  0
 15 28  1  6
 27 28  1  0
 19 29  1  0
 24 29  1  0
 22 30  1  0
 30 31  2  0
 22 32  2  0
 29 32  1  1
 27 33  1  6
 30 34  1  0
 34 35  1  0
M  END
$$$$
O14757_Pocket2Mol_idx-in-all-generaetd-175
     RDKit          3D

 32 37  0  0  0  0  0  0  0  0999 V2000
    4.5156    0.0550   42.9895 N   0  0  0  0  0  0  0  0  0  0  0  0
    5.0618   -0.8645   43.5295 C   0  0  0  0  0  0  0  0  0  0  0  0
    4.4350   -2.0604   43.7783 C   0  0  0  0  0  0  0  0  0  0  0  0
    4.9987   -3.0994   44.5839 C   0  0  0  0  0  0  0  0  0  0  0  0
    3.2714   -1.8664   43.0632 C   0  0  0  0  0  0  0  0  0  0  0  0
    6.4064   -0.5942   44.3204 N   0  0  0  0  0  0  0  0  0  0  0  0
    4.3422   -4.3256   44.7203 C   0  0  0  0  0  0  0  0  0  0  0  0
    2.1845   -2.6668   42.8270 N   0  0  0  0  0  0  0  0  0  0  0  0
    3.3305   -0.5395   42.5465 N   0  0  0  0  0  0  0  0  0  0  0  0
    1.9502   -3.8972   43.4076 C   0  0  0  0  0  0  0  0  0  0  0  0
    2.7156   -4.1184   44.6954 N   0  0  0  0  0  0  0  0  0  0  0  0
    6.8581   -1.5862   45.1101 C   0  0  0  0  0  0  0  0  0  0  0  0
    6.1801   -2.8430   45.2383 C   0  0  0  0  0  0  0  0  0  0  0  0
    2.1454   -5.1901   45.5771 C   0  0  0  0  0  0  0  0  0  0  0  0
    8.0137   -1.3946   45.8526 C   0  0  0  0  0  0  0  0  0  0  0  0
    0.9733   -4.5725   43.2066 O   0  0  0  0  0  0  0  0  0  0  0  0
    2.2437    0.0035   41.8733 C   0  0  0  0  0  0  0  0  0  0  0  0
    1.3210   -2.2077   41.7009 C   0  0  0  0  0  0  0  0  0  0  0  0
    8.6047   -2.2876   46.6923 C   0  0  0  0  0  0  0  0  0  0  0  0
    7.9141   -3.5157   46.8869 C   0  0  0  0  0  0  0  0  0  0  0  0
    1.0501   -0.8658   41.6612 C   0  0  0  0  0  0  0  0  0  0  0  0
    6.7278   -3.7718   46.2525 C   0  0  0  0  0  0  0  0  0  0  0  0
    9.8280   -2.0492   47.3361 C   0  0  0  0  0  0  0  0  0  0  0  0
    9.8262   -1.5735   48.5432 C   0  0  0  0  0  0  0  0  0  0  0  0
   11.0745   -2.0905   46.6735 C   0  0  0  0  0  0  0  0  0  0  0  0
    8.5798   -1.4294   49.3788 F   0  0  0  0  0  0  0  0  0  0  0  0
   10.9035   -1.3906   49.1995 C   0  0  0  0  0  0  0  0  0  0  0  0
   11.1251   -2.4931   45.1635 C   0  0  0  0  0  0  0  0  0  0  0  0
   12.2246   -1.5164   48.5319 C   0  0  0  0  0  0  0  0  0  0  0  0
   13.4301   -1.2769   49.2567 F   0  0  0  0  0  0  0  0  0  0  0  0
   12.2415   -1.8505   47.3209 C   0  0  0  0  0  0  0  0  0  0  0  0
   13.4585   -2.0068   46.6306 O   0  0  0  0  0  0  0  0  0  0  0  0
  1  2  2  0
  2  3  1  0
  3  4  1  0
  3  5  2  0
  2  6  1  0
  4  7  1  0
  5  8  1  0
  1  9  1  0
  5  9  1  0
  8 10  1  0
  7 11  1  0
 10 11  1  0
  6 12  2  0
  4 13  2  0
 12 13  1  0
 11 14  1  0
 12 15  1  0
 10 16  2  0
  9 17  1  0
  8 18  1  0
 15 19  2  0
 19 20  1  0
 17 21  1  0
 18 21  1  0
 13 22  1  0
 20 22  2  0
 19 23  1  0
 23 24  2  0
 23 25  1  0
 24 26  1  0
 24 27  1  0
 25 28  1  0
 27 29  2  0
 29 30  1  0
 25 31  2  0
 29 31  1  0
 31 32  1  0
M  END
$$$$
O14757_Pocket2Mol_idx-in-all-generaetd-176
     RDKit          3D

 35 41  0  0  0  0  0  0  0  0999 V2000
    4.8173    0.2791   42.6993 N   0  0  0  0  0  0  0  0  0  0  0  0
    5.3297   -0.7477   43.3688 C   0  0  0  0  0  0  0  0  0  0  0  0
    3.4732   -0.2235   42.4530 C   0  0  0  0  0  0  0  0  0  0  0  0
    4.4984   -1.7876   43.6214 C   0  0  0  0  0  0  0  0  0  0  0  0
    3.3438   -1.5190   42.9379 C   0  0  0  0  0  0  0  0  0  0  0  0
    2.1381   -2.3401   42.8254 C   0  0  0  0  0  0  0  0  0  0  0  0
    2.3894    0.3572   41.9843 N   0  0  0  0  0  0  0  0  0  0  0  0
    4.9180   -3.0430   44.3829 C   0  0  0  0  0  0  0  0  0  0  0  0
    5.9444   -2.9314   45.3934 C   0  0  0  0  0  0  0  0  0  0  0  0
    4.2808   -4.1329   44.3252 C   0  0  0  0  0  0  0  0  0  0  0  0
    3.1588   -4.4221   43.4852 O   0  0  0  0  0  0  0  0  0  0  0  0
    4.5704   -5.2518   45.1995 C   0  0  0  0  0  0  0  0  0  0  0  0
    1.9853   -3.6792   43.3495 C   0  0  0  0  0  0  0  0  0  0  0  0
    0.9181   -4.3294   43.4638 C   0  0  0  0  0  0  0  0  0  0  0  0
    6.7403   -1.6226   45.5272 C   0  0  0  0  0  0  0  0  0  0  0  0
    0.9752   -1.7845   42.3366 C   0  0  0  0  0  0  0  0  0  0  0  0
    6.2516   -3.7287   46.2722 C   0  0  0  0  0  0  0  0  0  0  0  0
    7.2567   -3.6098   47.2134 C   0  0  0  0  0  0  0  0  0  0  0  0
    5.3220   -4.9461   46.1208 C   0  0  0  0  0  0  0  0  0  0  0  0
    7.8604   -1.5907   46.3326 C   0  0  0  0  0  0  0  0  0  0  0  0
    0.9986   -0.4089   41.6951 C   0  0  0  0  0  0  0  0  0  0  0  0
   -0.2195   -2.3895   42.2855 C   0  0  0  0  0  0  0  0  0  0  0  0
   -0.2661   -3.6763   42.8028 C   0  0  0  0  0  0  0  0  0  0  0  0
    8.0637   -2.6796   47.2569 C   0  0  0  0  0  0  0  0  0  0  0  0
    9.1531   -2.5404   48.1681 C   0  0  0  0  0  0  0  0  0  0  0  0
   10.4001   -2.5703   47.7508 N   0  0  0  0  0  0  0  0  0  0  0  0
    9.0393   -2.9432   49.4354 O   0  0  0  0  0  0  0  0  0  0  0  0
   11.6039   -2.5309   48.5453 C   0  0  0  0  0  0  0  0  0  0  0  0
   10.6209   -1.8823   46.4116 C   0  0  0  0  0  0  0  0  0  0  0  0
   11.8864   -2.6532   45.8155 C   0  0  0  0  0  0  0  0  0  0  0  0
   12.7334   -2.5793   48.0140 C   0  0  0  0  0  0  0  0  0  0  0  0
   12.9476   -2.0480   46.6541 N   0  0  0  0  0  0  0  0  0  0  0  0
   13.9932   -1.2862   46.1509 C   0  0  0  0  0  0  0  0  0  0  0  0
   13.8958   -0.9827   44.9266 O   0  0  0  0  0  0  0  0  0  0  0  0
   14.6884   -0.5899   47.0569 O   0  0  0  0  0  0  0  0  0  0  0  0
  1  2  2  0
  1  3  1  0
  2  4  1  0
  3  5  1  0
  4  5  2  0
  5  6  1  0
  3  7  2  0
  4  8  1  0
  8  9  1  0
  8 10  2  0
 10 11  1  0
 10 12  1  0
  6 13  1  0
 11 13  1  0
 13 14  2  0
  9 15  2  0
  6 16  2  0
  9 17  1  0
 17 18  2  0
 12 19  2  0
 17 19  1  0
 15 20  1  0
  7 21  1  0
 16 21  1  0
 16 22  1  0
 14 23  1  0
 22 23  2  0
 18 24  1  0
 20 24  2  0
 24 25  1  0
 25 26  1  0
 25 27  2  0
 26 28  1  0
 26 29  1  0
 29 30  1  0
 28 31  1  0
 30 32  1  0
 31 32  1  0
 32 33  1  0
 33 34  2  0
 33 35  1  0
M  END
$$$$
O14757_Pocket2Mol_idx-in-all-generaetd-177
     RDKit          3D

 28 32  0  0  0  0  0  0  0  0999 V2000
    5.3420    0.2589   42.8836 O   0  0  0  0  0  0  0  0  0  0  0  0
    5.1627   -0.7554   43.4753 C   0  0  0  0  0  0  0  0  0  0  0  0
    4.0509   -1.4657   43.4177 N   0  0  0  0  0  0  0  0  0  0  0  0
    5.9969   -1.2317   44.6840 C   0  0  0  0  0  0  0  0  0  0  0  0
    2.9618   -1.1021   42.5918 C   0  0  0  0  0  0  0  0  0  0  0  0
    7.3392   -0.8596   44.8412 C   0  0  0  0  0  0  0  0  0  0  0  0
    1.9754   -2.0820   42.2741 C   0  0  0  0  0  0  0  0  0  0  0  0
    5.5910   -2.4282   45.3439 C   0  0  0  0  0  0  0  0  0  0  0  0
    6.5874   -2.9636   46.1581 C   0  0  0  0  0  0  0  0  0  0  0  0
    4.2763   -3.0680   45.0493 N   0  0  0  0  0  0  0  0  0  0  0  0
    3.6188   -2.5886   44.2024 C   0  0  0  0  0  0  0  0  0  0  0  0
    8.1921   -1.4071   45.7505 C   0  0  0  0  0  0  0  0  0  0  0  0
    1.0154   -1.8839   41.2980 C   0  0  0  0  0  0  0  0  0  0  0  0
    2.5720   -3.3564   43.9063 C   0  0  0  0  0  0  0  0  0  0  0  0
    0.2502   -2.8976   41.0751 C   0  0  0  0  0  0  0  0  0  0  0  0
    0.2230   -3.9124   42.0516 C   0  0  0  0  0  0  0  0  0  0  0  0
    2.2879   -4.6260   44.7113 N   0  0  0  0  0  0  0  0  0  0  0  0
    1.7585   -3.1585   42.9749 N   0  0  0  0  0  0  0  0  0  0  0  0
    7.7776   -2.5440   46.4766 C   0  0  0  0  0  0  0  0  0  0  0  0
    0.8620   -4.0153   42.9214 C   0  0  0  0  0  0  0  0  0  0  0  0
    2.9942   -0.0014   41.9856 O   0  0  0  0  0  0  0  0  0  0  0  0
    8.6110   -3.0684   47.3244 O   0  0  0  0  0  0  0  0  0  0  0  0
    9.5514   -2.3818   47.9544 C   0  0  0  0  0  0  0  0  0  0  0  0
    1.1022   -4.9727   43.9628 C   0  0  0  0  0  0  0  0  0  0  0  0
   10.7061   -2.4346   47.2572 C   0  0  0  0  0  0  0  0  0  0  0  0
   11.4055   -3.4078   47.0158 O   0  0  0  0  0  0  0  0  0  0  0  0
   11.2268   -1.1999   46.7336 O   0  0  0  0  0  0  0  0  0  0  0  0
   12.5311   -1.2446   46.1987 C   0  0  0  0  0  0  0  0  0  0  0  0
  1  2  2  0
  2  3  1  0
  2  4  1  0
  3  5  1  0
  4  6  2  0
  5  7  1  0
  4  8  1  0
  8  9  2  0
  8 10  1  0
  3 11  1  0
 10 11  2  0
  6 12  1  0
  7 13  2  0
 11 14  1  0
 13 15  1  0
 15 16  2  0
 14 17  2  0
  7 18  1  0
 14 18  1  0
  9 19  1  0
 12 19  2  0
 16 20  1  0
 18 20  1  0
  5 21  2  0
 19 22  1  0
 22 23  1  0
 17 24  1  0
 20 24  2  0
 23 25  1  0
 25 26  2  0
 25 27  1  0
 27 28  1  0
M  END
$$$$
O14757_Pocket2Mol_idx-in-all-generaetd-178
     RDKit          3D

 40 48  0  0  0  0  0  0  0  0999 V2000
    4.8173    0.2791   42.6993 N   0  0  0  0  0  0  0  0  0  0  0  0
    5.3297   -0.7477   43.3688 C   0  0  0  0  0  0  0  0  0  0  0  0
    3.4732   -0.2235   42.4530 C   0  0  0  0  0  0  0  0  0  0  0  0
    4.4984   -1.7876   43.6214 C   0  0  0  0  0  0  0  0  0  0  0  0
    3.3438   -1.5190   42.9379 C   0  0  0  0  0  0  0  0  0  0  0  0
    2.1381   -2.3401   42.8254 C   0  0  0  0  0  0  0  0  0  0  0  0
    2.3894    0.3572   41.9843 N   0  0  0  0  0  0  0  0  0  0  0  0
    4.9180   -3.0430   44.3829 C   0  0  0  0  0  0  0  0  0  0  0  0
    5.9444   -2.9314   45.3934 C   0  0  0  0  0  0  0  0  0  0  0  0
    4.2808   -4.1329   44.3252 C   0  0  0  0  0  0  0  0  0  0  0  0
    3.1588   -4.4221   43.4852 O   0  0  0  0  0  0  0  0  0  0  0  0
    4.5704   -5.2518   45.1995 C   0  0  0  0  0  0  0  0  0  0  0  0
    1.9853   -3.6792   43.3495 C   0  0  0  0  0  0  0  0  0  0  0  0
    0.9181   -4.3294   43.4638 C   0  0  0  0  0  0  0  0  0  0  0  0
    6.7403   -1.6226   45.5272 C   0  0  2  0  0  0  0  0  0  0  0  0
    0.9752   -1.7845   42.3366 C   0  0  0  0  0  0  0  0  0  0  0  0
    6.2516   -3.7287   46.2722 C   0  0  0  0  0  0  0  0  0  0  0  0
   -0.2404   -2.4179   42.2529 C   0  0  0  0  0  0  0  0  0  0  0  0
   -1.3835   -1.8904   41.6559 N   0  0  0  0  0  0  0  0  0  0  0  0
    3.8706   -6.4216   45.1394 O   0  0  0  0  0  0  0  0  0  0  0  0
    0.9456   -0.2789   41.7649 C   0  0  0  0  0  0  0  0  0  0  0  0
   -0.2678   -3.6969   42.7575 C   0  0  0  0  0  0  0  0  0  0  0  0
    6.3913   -0.7000   44.3807 N   0  0  0  0  0  0  0  0  0  0  0  0
    7.9391   -1.5867   46.0069 C   0  0  0  0  0  0  0  0  0  0  0  0
    8.7787   -0.4879   45.9761 O   0  0  0  0  0  0  0  0  0  0  0  0
    5.3853   -5.1216   46.3780 C   0  0  0  0  0  0  0  0  0  0  0  0
    8.4504   -2.7517   46.6262 N   0  0  0  0  0  0  0  0  0  0  0  0
    7.4807   -3.7374   47.0380 C   0  0  0  0  0  0  0  0  0  0  0  0
    9.7442   -2.7944   46.9091 C   0  0  0  0  0  0  0  0  0  0  0  0
   10.5425   -3.4426   45.9689 C   0  0  0  0  0  0  0  0  0  0  0  0
   10.3017   -2.2524   47.9671 C   0  0  0  0  0  0  0  0  0  0  0  0
    9.4843   -1.5208   48.9551 C   0  0  0  0  0  0  0  0  0  0  0  0
   11.9725   -3.4596   46.1303 C   0  0  0  0  0  0  0  0  0  0  0  0
   11.7296   -2.3286   48.1612 C   0  0  0  0  0  0  0  0  0  0  0  0
   12.2963   -1.7544   49.3978 O   0  0  0  0  0  0  0  0  0  0  0  0
   12.5592   -2.9761   47.3323 C   0  0  0  0  0  0  0  0  0  0  0  0
   11.5359   -0.8340   49.9214 C   0  0  2  0  0  0  0  0  0  0  0  0
   12.2527   -0.4583   51.2093 C   0  0  0  0  0  0  0  0  0  0  0  0
   11.4716    0.3642   52.0549 O   0  0  0  0  0  0  0  0  0  0  0  0
   10.1988   -0.8830   50.0796 C   0  0  0  0  0  0  0  0  0  0  0  0
  1  2  2  0
  1  3  1  0
  2  4  1  0
  3  5  1  0
  4  5  2  0
  5  6  1  0
  3  7  2  0
  4  8  1  0
  8  9  1  0
  8 10  2  0
 10 11  1  0
 10 12  1  0
  6 13  1  0
 11 13  1  0
 13 14  2  0
  9 15  1  0
  6 16  2  0
  9 17  2  0
 16 18  1  0
 18 19  1  0
 12 20  1  0
  7 21  1  0
 16 21  1  0
 14 22  1  0
 18 22  2  0
  2 23  1  0
 15 23  1  6
 15 24  1  0
 24 25  2  0
 12 26  2  0
 17 26  1  0
 24 27  1  0
 17 28  1  0
 27 28  1  0
 27 29  1  0
 29 30  2  0
 29 31  1  0
 31 32  1  0
 30 33  1  0
 31 34  2  0
 34 35  1  0
 33 36  2  0
 34 36  1  0
 35 37  1  0
 37 38  1  1
 38 39  1  0
 32 40  1  0
 37 40  1  0
M  END
$$$$
O14757_Pocket2Mol_idx-in-all-generaetd-179
     RDKit          3D

 27 31  0  0  0  0  0  0  0  0999 V2000
    4.5156    0.0550   42.9895 N   0  0  0  0  0  0  0  0  0  0  0  0
    5.0618   -0.8645   43.5295 C   0  0  0  0  0  0  0  0  0  0  0  0
    4.4350   -2.0604   43.7783 C   0  0  0  0  0  0  0  0  0  0  0  0
    4.9987   -3.0994   44.5839 C   0  0  0  0  0  0  0  0  0  0  0  0
    3.2714   -1.8664   43.0632 C   0  0  0  0  0  0  0  0  0  0  0  0
    6.4064   -0.5942   44.3204 N   0  0  0  0  0  0  0  0  0  0  0  0
    4.3422   -4.3256   44.7203 C   0  0  0  0  0  0  0  0  0  0  0  0
    2.1845   -2.6668   42.8270 N   0  0  0  0  0  0  0  0  0  0  0  0
    3.3305   -0.5395   42.5465 N   0  0  0  0  0  0  0  0  0  0  0  0
    1.9502   -3.8972   43.4076 C   0  0  0  0  0  0  0  0  0  0  0  0
    2.7156   -4.1184   44.6954 N   0  0  0  0  0  0  0  0  0  0  0  0
    6.8581   -1.5862   45.1101 C   0  0  0  0  0  0  0  0  0  0  0  0
    6.1801   -2.8430   45.2383 C   0  0  0  0  0  0  0  0  0  0  0  0
    2.1454   -5.1901   45.5771 C   0  0  0  0  0  0  0  0  0  0  0  0
    8.0137   -1.3946   45.8526 C   0  0  0  0  0  0  0  0  0  0  0  0
    0.9733   -4.5725   43.2066 O   0  0  0  0  0  0  0  0  0  0  0  0
    2.2437    0.0035   41.8733 C   0  0  0  0  0  0  0  0  0  0  0  0
    1.3210   -2.2077   41.7009 C   0  0  0  0  0  0  0  0  0  0  0  0
    8.6047   -2.2876   46.6923 C   0  0  0  0  0  0  0  0  0  0  0  0
    7.9141   -3.5157   46.8869 C   0  0  0  0  0  0  0  0  0  0  0  0
    1.0501   -0.8658   41.6612 C   0  0  0  0  0  0  0  0  0  0  0  0
    6.7278   -3.7718   46.2525 C   0  0  0  0  0  0  0  0  0  0  0  0
    9.8280   -2.0492   47.3361 C   0  0  2  0  0  0  0  0  0  0  0  0
    9.8262   -1.5735   48.5432 C   0  0  0  0  0  0  0  0  0  0  0  0
    8.6357   -1.3192   49.2946 O   0  0  0  0  0  0  0  0  0  0  0  0
   10.7768   -1.2409   46.5192 C   0  0  0  0  0  0  0  0  0  0  0  0
   10.8359   -1.0058   49.1332 O   0  0  0  0  0  0  0  0  0  0  0  0
  1  2  2  0
  2  3  1  0
  3  4  1  0
  3  5  2  0
  2  6  1  0
  4  7  1  0
  5  8  1  0
  1  9  1  0
  5  9  1  0
  8 10  1  0
  7 11  1  0
 10 11  1  0
  6 12  2  0
  4 13  2  0
 12 13  1  0
 11 14  1  0
 12 15  1  0
 10 16  2  0
  9 17  1  0
  8 18  1  0
 15 19  2  0
 19 20  1  0
 17 21  1  0
 18 21  1  0
 13 22  1  0
 20 22  2  0
 19 23  1  0
 23 24  1  0
 24 25  1  0
 23 26  1  6
 24 27  2  0
M  END
$$$$
O14757_Pocket2Mol_idx-in-all-generaetd-180
     RDKit          3D

 44 52  0  0  0  0  0  0  0  0999 V2000
    1.5482   -0.3111   41.9233 C   0  0  0  0  0  0  0  0  0  0  0  0
    2.7284    0.2018   42.1525 N   0  0  0  0  0  0  0  0  0  0  0  0
    3.7893   -0.3016   42.7005 C   0  0  0  0  0  0  0  0  0  0  0  0
    3.3781   -1.7350   43.0000 C   0  0  0  0  0  0  0  0  0  0  0  0
    2.0339   -1.9619   42.6217 C   0  0  0  0  0  0  0  0  0  0  0  0
    5.0090    0.1219   42.9340 N   0  0  0  0  0  0  0  0  0  0  0  0
    4.2895   -2.4979   43.6707 C   0  0  0  0  0  0  0  0  0  0  0  0
    5.8391   -0.6675   43.6343 C   0  0  0  0  0  0  0  0  0  0  0  0
    6.9849   -0.2377   44.0028 N   0  0  0  0  0  0  0  0  0  0  0  0
    4.0426   -3.8794   44.0832 C   0  0  0  0  0  0  0  0  0  0  0  0
    7.6796   -0.8734   44.9326 C   0  0  0  0  0  0  0  0  0  0  0  0
    1.1064   -2.9576   42.4211 C   0  0  0  0  0  0  0  0  0  0  0  0
    5.5298   -1.9496   44.0315 C   0  0  0  0  0  0  0  0  0  0  0  0
    3.8954   -4.1817   45.4718 C   0  0  0  0  0  0  0  0  0  0  0  0
    0.6765   -3.5480   43.4006 C   0  0  1  0  0  0  0  0  0  0  0  0
    0.5804   -3.2191   41.1635 C   0  0  0  0  0  0  0  0  0  0  0  0
    2.8083   -4.8227   45.9203 N   0  0  0  0  0  0  0  0  0  0  0  0
   -0.1574   -4.5754   42.9329 N   0  0  0  0  0  0  0  0  0  0  0  0
    6.5271   -2.5531   44.9677 C   0  0  0  0  0  0  0  0  0  0  0  0
   -0.2272   -4.3703   41.5137 C   0  0  0  0  0  0  0  0  0  0  0  0
    7.5095   -2.0029   45.3993 C   0  0  0  0  0  0  0  0  0  0  0  0
    8.2550   -2.6982   46.3988 C   0  0  0  0  0  0  0  0  0  0  0  0
    8.8975   -0.3029   45.3267 O   0  0  0  0  0  0  0  0  0  0  0  0
    4.8299   -4.4637   46.4212 C   0  0  0  0  0  0  0  0  0  0  0  0
    4.2707   -4.9248   47.6295 N   0  0  0  0  0  0  0  0  0  0  0  0
    3.2045   -5.2092   47.1521 C   0  0  0  0  0  0  0  0  0  0  0  0
    1.4482   -4.6186   45.4134 C   0  0  1  0  0  0  0  0  0  0  0  0
    1.2398   -3.5043   44.6236 O   0  0  0  0  0  0  0  0  0  0  0  0
    7.8521   -3.9584   46.8773 C   0  0  0  0  0  0  0  0  0  0  0  0
    8.4079   -4.7553   47.7407 C   0  0  0  0  0  0  0  0  0  0  0  0
    5.9516   -3.8110   45.9146 C   0  0  0  0  0  0  0  0  0  0  0  0
    6.6436   -4.3892   46.6649 C   0  0  0  0  0  0  0  0  0  0  0  0
    9.5111   -5.5246   47.2994 O   0  0  0  0  0  0  0  0  0  0  0  0
   10.6238   -5.0197   46.8534 C   0  0  0  0  0  0  0  0  0  0  0  0
   11.5866   -4.7361   47.6189 C   0  0  0  0  0  0  0  0  0  0  0  0
    1.2153   -5.7944   44.5753 C   0  0  0  0  0  0  0  0  0  0  0  0
   10.7023   -4.6532   45.4361 C   0  0  0  0  0  0  0  0  0  0  0  0
   12.8078   -4.2193   47.0828 C   0  0  0  0  0  0  0  0  0  0  0  0
   11.7380   -4.2754   44.9534 C   0  0  0  0  0  0  0  0  0  0  0  0
   12.8675   -3.9423   45.7806 C   0  0  0  0  0  0  0  0  0  0  0  0
   14.2157   -3.2809   45.2573 C   0  0  0  0  0  0  0  0  0  0  0  0
   15.3080   -3.7878   45.5474 O   0  0  0  0  0  0  0  0  0  0  0  0
   14.0227   -2.1540   44.6149 N   0  0  0  0  0  0  0  0  0  0  0  0
   15.1875   -1.5023   44.0750 C   0  0  0  0  0  0  0  0  0  0  0  0
  1  2  1  0
  2  3  2  0
  3  4  1  0
  1  5  2  0
  4  5  1  0
  3  6  1  0
  4  7  2  0
  6  8  1  0
  8  9  1  0
  7 10  1  0
  9 11  1  0
  5 12  1  0
  7 13  1  0
  8 13  2  0
 10 14  1  0
 12 15  1  0
 12 16  2  0
 14 17  1  0
 15 18  1  0
 13 19  1  0
 16 20  1  0
 18 20  2  0
 11 21  1  0
 19 21  2  0
 21 22  1  0
 11 23  2  0
 14 24  2  0
 24 25  1  0
 17 26  1  0
 25 26  2  0
 17 27  1  0
 15 28  1  6
 27 28  1  0
 22 29  2  0
 29 30  1  0
 19 31  1  0
 24 31  1  0
 29 32  1  0
 31 32  2  0
 30 33  1  0
 33 34  1  0
 34 35  2  0
 27 36  1  6
 34 37  1  0
 35 38  1  0
 37 39  2  0
 38 40  2  0
 39 40  1  0
 40 41  1  0
 41 42  2  0
 41 43  1  0
 43 44  1  0
M  END
$$$$
O14757_Pocket2Mol_idx-in-all-generaetd-181
     RDKit          3D

 33 38  0  0  0  0  0  0  0  0999 V2000
    4.5156    0.0550   42.9895 N   0  0  0  0  0  0  0  0  0  0  0  0
    5.0618   -0.8645   43.5295 C   0  0  0  0  0  0  0  0  0  0  0  0
    4.4350   -2.0604   43.7783 C   0  0  0  0  0  0  0  0  0  0  0  0
    4.9987   -3.0994   44.5839 C   0  0  0  0  0  0  0  0  0  0  0  0
    3.2714   -1.8664   43.0632 C   0  0  0  0  0  0  0  0  0  0  0  0
    6.4064   -0.5942   44.3204 N   0  0  0  0  0  0  0  0  0  0  0  0
    4.3422   -4.3256   44.7203 C   0  0  0  0  0  0  0  0  0  0  0  0
    2.1845   -2.6668   42.8270 N   0  0  0  0  0  0  0  0  0  0  0  0
    3.3305   -0.5395   42.5465 N   0  0  0  0  0  0  0  0  0  0  0  0
    1.9502   -3.8972   43.4076 C   0  0  0  0  0  0  0  0  0  0  0  0
    2.7156   -4.1184   44.6954 N   0  0  0  0  0  0  0  0  0  0  0  0
    6.8581   -1.5862   45.1101 C   0  0  0  0  0  0  0  0  0  0  0  0
    6.1801   -2.8430   45.2383 C   0  0  0  0  0  0  0  0  0  0  0  0
    2.1454   -5.1901   45.5771 C   0  0  0  0  0  0  0  0  0  0  0  0
    8.0137   -1.3946   45.8526 C   0  0  0  0  0  0  0  0  0  0  0  0
    0.9733   -4.5725   43.2066 O   0  0  0  0  0  0  0  0  0  0  0  0
    2.2437    0.0035   41.8733 C   0  0  0  0  0  0  0  0  0  0  0  0
    1.3210   -2.2077   41.7009 C   0  0  0  0  0  0  0  0  0  0  0  0
    8.6047   -2.2876   46.6923 C   0  0  0  0  0  0  0  0  0  0  0  0
    7.9141   -3.5157   46.8869 C   0  0  0  0  0  0  0  0  0  0  0  0
    1.0501   -0.8658   41.6612 C   0  0  0  0  0  0  0  0  0  0  0  0
    6.7278   -3.7718   46.2525 C   0  0  0  0  0  0  0  0  0  0  0  0
    9.8280   -2.0492   47.3361 C   0  0  0  0  0  0  0  0  0  0  0  0
    9.8262   -1.5735   48.5432 C   0  0  0  0  0  0  0  0  0  0  0  0
   11.0745   -2.0905   46.6735 C   0  0  0  0  0  0  0  0  0  0  0  0
    8.5798   -1.4294   49.3788 F   0  0  0  0  0  0  0  0  0  0  0  0
   10.9035   -1.3906   49.1995 C   0  0  0  0  0  0  0  0  0  0  0  0
   11.1251   -2.4931   45.1635 C   0  0  0  0  0  0  0  0  0  0  0  0
   11.3408   -3.5669   44.8995 O   0  0  0  0  0  0  0  0  0  0  0  0
   11.6636   -1.4942   44.3589 O   0  0  0  0  0  0  0  0  0  0  0  0
   10.8595   -0.9852   50.6565 F   0  0  0  0  0  0  0  0  0  0  0  0
   12.2245   -1.8113   47.4274 C   0  0  0  0  0  0  0  0  0  0  0  0
   12.1965   -1.4683   48.6968 C   0  0  0  0  0  0  0  0  0  0  0  0
  1  2  2  0
  2  3  1  0
  3  4  1  0
  3  5  2  0
  2  6  1  0
  4  7  1  0
  5  8  1  0
  1  9  1  0
  5  9  1  0
  8 10  1  0
  7 11  1  0
 10 11  1  0
  6 12  2  0
  4 13  2  0
 12 13  1  0
 11 14  1  0
 12 15  1  0
 10 16  2  0
  9 17  1  0
  8 18  1  0
 15 19  2  0
 19 20  1  0
 17 21  1  0
 18 21  1  0
 13 22  1  0
 20 22  2  0
 19 23  1  0
 23 24  2  0
 23 25  1  0
 24 26  1  0
 24 27  1  0
 25 28  1  0
 28 29  2  0
 28 30  1  0
 27 31  1  0
 25 32  2  0
 27 33  2  0
 32 33  1  0
M  END
$$$$
O14757_Pocket2Mol_idx-in-all-generaetd-182
     RDKit          3D

 46 55  0  0  0  0  0  0  0  0999 V2000
    1.5482   -0.3111   41.9233 C   0  0  0  0  0  0  0  0  0  0  0  0
    2.7284    0.2018   42.1525 N   0  0  0  0  0  0  0  0  0  0  0  0
    3.7893   -0.3016   42.7005 C   0  0  0  0  0  0  0  0  0  0  0  0
    3.3781   -1.7350   43.0000 C   0  0  0  0  0  0  0  0  0  0  0  0
    2.0339   -1.9619   42.6217 C   0  0  0  0  0  0  0  0  0  0  0  0
    5.0090    0.1219   42.9340 N   0  0  0  0  0  0  0  0  0  0  0  0
    4.2895   -2.4979   43.6707 C   0  0  0  0  0  0  0  0  0  0  0  0
    5.8391   -0.6675   43.6343 C   0  0  0  0  0  0  0  0  0  0  0  0
    6.9849   -0.2377   44.0028 N   0  0  0  0  0  0  0  0  0  0  0  0
    4.0426   -3.8794   44.0832 C   0  0  0  0  0  0  0  0  0  0  0  0
    7.6796   -0.8734   44.9326 C   0  0  0  0  0  0  0  0  0  0  0  0
    1.1064   -2.9576   42.4211 C   0  0  0  0  0  0  0  0  0  0  0  0
    5.5298   -1.9496   44.0315 C   0  0  0  0  0  0  0  0  0  0  0  0
    3.8954   -4.1817   45.4718 C   0  0  0  0  0  0  0  0  0  0  0  0
    0.6765   -3.5480   43.4006 C   0  0  1  0  0  0  0  0  0  0  0  0
    0.5804   -3.2191   41.1635 C   0  0  0  0  0  0  0  0  0  0  0  0
    2.8083   -4.8227   45.9203 N   0  0  0  0  0  0  0  0  0  0  0  0
   -0.1574   -4.5754   42.9329 N   0  0  0  0  0  0  0  0  0  0  0  0
    6.5271   -2.5531   44.9677 C   0  0  0  0  0  0  0  0  0  0  0  0
   -0.2272   -4.3703   41.5137 C   0  0  0  0  0  0  0  0  0  0  0  0
    7.5095   -2.0029   45.3993 C   0  0  0  0  0  0  0  0  0  0  0  0
    8.2550   -2.6982   46.3988 C   0  0  0  0  0  0  0  0  0  0  0  0
    8.8975   -0.3029   45.3267 O   0  0  0  0  0  0  0  0  0  0  0  0
    4.8299   -4.4637   46.4212 C   0  0  0  0  0  0  0  0  0  0  0  0
    4.2707   -4.9248   47.6295 N   0  0  0  0  0  0  0  0  0  0  0  0
    3.2045   -5.2092   47.1521 C   0  0  0  0  0  0  0  0  0  0  0  0
    1.4482   -4.6186   45.4134 C   0  0  1  0  0  0  0  0  0  0  0  0
    1.2398   -3.5043   44.6236 O   0  0  0  0  0  0  0  0  0  0  0  0
    6.3317   -3.9297   46.0870 C   0  0  2  0  0  0  0  0  0  0  0  0
    9.5296   -2.5449   46.9776 C   0  0  0  0  0  0  0  0  0  0  0  0
    9.7921   -1.7530   47.9018 O   0  0  0  0  0  0  0  0  0  0  0  0
    7.3972   -3.8130   46.7939 C   0  0  0  0  0  0  0  0  0  0  0  0
    1.2392   -5.7793   44.5610 C   0  0  0  0  0  0  0  0  0  0  0  0
   10.4934   -3.0755   46.3117 O   0  0  0  0  0  0  0  0  0  0  0  0
   10.9462   -4.1456   46.8830 C   0  0  0  0  0  0  0  0  0  0  0  0
   12.2796   -4.1987   47.0522 C   0  0  0  0  0  0  0  0  0  0  0  0
   12.9062   -5.3205   47.0633 C   0  0  0  0  0  0  0  0  0  0  0  0
   14.4025   -5.4237   47.2465 C   0  0  0  0  0  0  0  0  0  0  0  0
   12.2726   -6.4947   46.5456 C   0  0  0  0  0  0  0  0  0  0  0  0
   12.9587   -7.7334   46.4794 C   0  0  0  0  0  0  0  0  0  0  0  0
   14.2946   -7.7274   46.5128 C   0  0  0  0  0  0  0  0  0  0  0  0
   10.9367   -6.2098   46.3940 C   0  0  0  0  0  0  0  0  0  0  0  0
   10.3751   -5.0472   46.4591 C   0  0  0  0  0  0  0  0  0  0  0  0
   15.0201   -9.0157   46.4135 O   0  0  0  0  0  0  0  0  0  0  0  0
   15.1619   -4.3379   47.6177 O   0  0  0  0  0  0  0  0  0  0  0  0
   15.0402   -6.6518   47.0086 C   0  0  0  0  0  0  0  0  0  0  0  0
  1  2  1  0
  2  3  2  0
  3  4  1  0
  1  5  2  0
  4  5  1  0
  3  6  1  0
  4  7  2  0
  6  8  1  0
  8  9  1  0
  7 10  1  0
  9 11  1  0
  5 12  1  0
  7 13  1  0
  8 13  2  0
 10 14  1  0
 12 15  1  0
 12 16  2  0
 14 17  1  0
 15 18  1  0
 13 19  1  0
 16 20  1  0
 18 20  2  0
 11 21  1  0
 19 21  2  0
 21 22  1  0
 11 23  2  0
 14 24  2  0
 24 25  1  0
 17 26  1  0
 25 26  2  0
 17 27  1  0
 15 28  1  6
 27 28  1  0
 19 29  1  0
 24 29  1  0
 22 30  1  0
 30 31  2  0
 22 32  2  0
 29 32  1  1
 27 33  1  6
 30 34  1  0
 34 35  1  0
 35 36  2  0
 36 37  1  0
 37 38  2  0
 37 39  1  0
 39 40  2  0
 40 41  1  0
 39 42  1  0
 35 43  1  0
 42 43  2  0
 41 44  1  0
 38 45  1  0
 38 46  1  0
 41 46  2  0
M  END
$$$$
O14757_Pocket2Mol_idx-in-all-generaetd-183
     RDKit          3D

 27 29  0  0  0  0  0  0  0  0999 V2000
    4.5142    0.3543   42.7132 N   0  0  0  0  0  0  0  0  0  0  0  0
    3.5107   -0.4860   42.6298 C   0  0  0  0  0  0  0  0  0  0  0  0
    3.5891   -1.7637   43.2512 N   0  0  0  0  0  0  0  0  0  0  0  0
    5.5470   -0.0112   43.3539 C   0  0  0  0  0  0  0  0  0  0  0  0
    2.1469   -0.1899   41.9512 C   0  0  0  0  0  0  0  0  0  0  0  0
    4.6725   -2.0734   43.8606 C   0  0  0  0  0  0  0  0  0  0  0  0
    5.7749   -1.1829   43.9325 C   0  0  0  0  0  0  0  0  0  0  0  0
    4.7150   -3.3068   44.6440 C   0  0  0  0  0  0  0  0  0  0  0  0
    6.9086   -1.5797   44.6919 C   0  0  0  0  0  0  0  0  0  0  0  0
    3.5691   -4.2517   44.6407 C   0  0  0  0  0  0  0  0  0  0  0  0
    2.3573   -4.0060   44.5430 C   0  0  0  0  0  0  0  0  0  0  0  0
    6.9170   -2.8018   45.4663 C   0  0  0  0  0  0  0  0  0  0  0  0
    5.8006   -3.6152   45.4297 C   0  0  0  0  0  0  0  0  0  0  0  0
    8.0903   -3.1108   46.2193 C   0  0  0  0  0  0  0  0  0  0  0  0
    4.0064   -5.4798   44.1304 O   0  0  0  0  0  0  0  0  0  0  0  0
    1.3499   -4.4927   43.7488 C   0  0  0  0  0  0  0  0  0  0  0  0
    8.9407   -2.1153   46.7855 N   0  0  0  0  0  0  0  0  0  0  0  0
    9.9131   -2.4307   47.6296 C   0  0  0  0  0  0  0  0  0  0  0  0
    9.9401   -2.1931   48.7722 O   0  0  0  0  0  0  0  0  0  0  0  0
    1.6925   -3.8787   45.7737 C   0  0  0  0  0  0  0  0  0  0  0  0
    0.0956   -4.4506   43.8726 C   0  0  0  0  0  0  0  0  0  0  0  0
   -0.4743   -4.1254   44.9651 C   0  0  0  0  0  0  0  0  0  0  0  0
   11.1474   -2.9718   46.9683 C   0  0  0  0  0  0  0  0  0  0  0  0
    0.1760   -3.8909   45.9333 C   0  0  0  0  0  0  0  0  0  0  0  0
   11.9742   -2.0588   46.3639 C   0  0  0  0  0  0  0  0  0  0  0  0
   12.5731   -2.3782   45.1763 O   0  0  0  0  0  0  0  0  0  0  0  0
   12.0042   -0.7350   46.4714 O   0  0  0  0  0  0  0  0  0  0  0  0
  1  2  2  0
  2  3  1  0
  1  4  1  0
  2  5  1  0
  3  6  2  0
  4  7  2  0
  6  7  1  0
  6  8  1  0
  7  9  1  0
  8 10  1  0
 10 11  1  0
  9 12  2  0
  8 13  2  0
 12 13  1  0
 12 14  1  0
 10 15  2  0
 11 16  2  0
 14 17  1  0
 17 18  1  0
 18 19  2  0
 11 20  1  0
 16 21  1  0
 21 22  2  0
 18 23  1  0
 20 24  2  0
 22 24  1  0
 23 25  1  0
 25 26  2  0
 25 27  1  0
M  END
$$$$
O14757_Pocket2Mol_idx-in-all-generaetd-184
     RDKit          3D

 29 32  0  0  0  0  0  0  0  0999 V2000
    3.7044    0.1389   42.5158 N   0  0  0  0  0  0  0  0  0  0  0  0
    3.0206   -1.0018   42.4929 C   0  0  0  0  0  0  0  0  0  0  0  0
    3.4791   -2.0817   43.2077 C   0  0  0  0  0  0  0  0  0  0  0  0
    4.8540    0.3862   43.0582 N   0  0  0  0  0  0  0  0  0  0  0  0
    5.1377   -0.9552   43.7144 C   0  0  0  0  0  0  0  0  0  0  0  0
    1.5846   -1.0753   41.7644 C   0  0  0  0  0  0  0  0  0  0  0  0
    4.6026   -2.0358   43.8129 C   0  0  0  0  0  0  0  0  0  0  0  0
    5.1584   -3.1511   44.6069 C   0  0  0  0  0  0  0  0  0  0  0  0
    6.6094   -0.7911   44.3696 N   0  0  0  0  0  0  0  0  0  0  0  0
    4.4744   -4.3270   44.8472 C   0  0  0  0  0  0  0  0  0  0  0  0
    6.9275   -1.8713   45.2437 C   0  0  0  0  0  0  0  0  0  0  0  0
    8.2702   -1.7750   45.8768 C   0  0  0  0  0  0  0  0  0  0  0  0
    0.9365   -0.0867   41.7346 O   0  0  0  0  0  0  0  0  0  0  0  0
    6.2322   -3.0484   45.3118 C   0  0  0  0  0  0  0  0  0  0  0  0
    6.7747   -4.0433   46.1202 N   0  0  0  0  0  0  0  0  0  0  0  0
    1.2161   -2.2739   41.2518 N   0  0  0  0  0  0  0  0  0  0  0  0
    9.0373   -0.5649   45.9132 O   0  0  0  0  0  0  0  0  0  0  0  0
    3.8907   -5.0906   43.9511 O   0  0  0  0  0  0  0  0  0  0  0  0
    4.3454   -4.8388   46.1621 N   0  0  0  0  0  0  0  0  0  0  0  0
    3.4531   -5.8952   46.4159 C   0  0  0  0  0  0  0  0  0  0  0  0
    8.6904   -2.8983   46.6073 N   0  0  0  0  0  0  0  0  0  0  0  0
    7.9257   -3.9393   46.7384 C   0  0  0  0  0  0  0  0  0  0  0  0
    8.4765   -4.8975   47.5307 O   0  0  0  0  0  0  0  0  0  0  0  0
   10.0100   -2.6771   47.3464 C   0  0  0  0  0  0  0  0  0  0  0  0
   10.0326   -1.8380   48.3764 C   0  0  0  0  0  0  0  0  0  0  0  0
   11.1123   -3.0851   46.6870 C   0  0  0  0  0  0  0  0  0  0  0  0
   11.1660   -1.6870   48.9664 C   0  0  0  0  0  0  0  0  0  0  0  0
   12.4032   -2.1415   48.4885 C   0  0  0  0  0  0  0  0  0  0  0  0
   12.4069   -2.7775   47.2660 C   0  0  0  0  0  0  0  0  0  0  0  0
  1  2  2  0
  2  3  1  0
  1  4  1  0
  4  5  2  0
  2  6  1  0
  3  7  2  0
  5  7  1  0
  7  8  1  0
  5  9  1  0
  8 10  1  0
  9 11  2  0
 11 12  1  0
  6 13  2  0
  8 14  2  0
 11 14  1  0
 14 15  1  0
  6 16  1  0
 12 17  2  0
 10 18  2  0
 10 19  1  0
 19 20  1  0
 12 21  1  0
 15 22  1  0
 21 22  1  0
 22 23  2  0
 21 24  1  0
 24 25  2  0
 24 26  1  0
 25 27  1  0
 27 28  2  0
 26 29  2  0
 28 29  1  0
M  END
$$$$
O14757_Pocket2Mol_idx-in-all-generaetd-185
     RDKit          3D

 38 43  0  0  0  0  0  0  0  0999 V2000
    1.5482   -0.3111   41.9233 C   0  0  0  0  0  0  0  0  0  0  0  0
    2.7284    0.2018   42.1525 N   0  0  0  0  0  0  0  0  0  0  0  0
    3.7893   -0.3016   42.7005 C   0  0  0  0  0  0  0  0  0  0  0  0
    3.3781   -1.7350   43.0000 C   0  0  0  0  0  0  0  0  0  0  0  0
    2.0339   -1.9619   42.6217 C   0  0  0  0  0  0  0  0  0  0  0  0
    4.1166   -2.4997   43.8458 C   0  0  0  0  0  0  0  0  0  0  0  0
    1.1731   -3.0051   42.5773 C   0  0  0  0  0  0  0  0  0  0  0  0
    0.4701   -3.2344   41.4901 C   0  0  0  0  0  0  0  0  0  0  0  0
    5.3799   -1.7814   44.2691 C   0  0  0  0  0  0  0  0  0  0  0  0
    5.0159   -0.0180   43.1201 N   0  0  0  0  0  0  0  0  0  0  0  0
    5.7693   -0.6937   43.8418 C   0  0  0  0  0  0  0  0  0  0  0  0
    0.8078   -3.6166   43.6782 C   0  0  0  0  0  0  0  0  0  0  0  0
    0.0663   -4.7011   43.7415 N   0  0  0  0  0  0  0  0  0  0  0  0
    6.2223   -2.6843   45.1565 C   0  0  0  0  0  0  0  0  0  0  0  0
    6.9599   -0.2351   44.2608 N   0  0  0  0  0  0  0  0  0  0  0  0
    5.9065   -3.9037   45.7499 N   0  0  0  0  0  0  0  0  0  0  0  0
   -0.5459   -5.1185   42.5870 C   0  0  0  0  0  0  0  0  0  0  0  0
    5.7480   -4.0340   46.9810 C   0  0  0  0  0  0  0  0  0  0  0  0
    7.4448   -1.8511   45.4198 C   0  0  0  0  0  0  0  0  0  0  0  0
    7.7572   -0.7827   45.0128 C   0  0  0  0  0  0  0  0  0  0  0  0
    8.4076   -2.7217   46.4541 C   0  0  0  0  0  0  0  0  0  0  0  0
    9.3167   -2.0988   47.1049 N   0  0  0  0  0  0  0  0  0  0  0  0
   -0.4719   -4.3893   41.5406 C   0  0  0  0  0  0  0  0  0  0  0  0
    8.3667   -4.0284   46.5743 N   0  0  0  0  0  0  0  0  0  0  0  0
    9.5309   -4.3147   47.3094 C   0  0  0  0  0  0  0  0  0  0  0  0
    5.3113   -3.3789   47.8005 O   0  0  0  0  0  0  0  0  0  0  0  0
    9.9022   -5.6301   47.7684 C   0  0  0  0  0  0  0  0  0  0  0  0
    5.4470   -5.5868   47.2096 C   0  0  0  0  0  0  0  0  0  0  0  0
   11.2254   -5.8679   48.0402 C   0  0  0  0  0  0  0  0  0  0  0  0
    8.9736   -6.6532   47.8548 C   0  0  0  0  0  0  0  0  0  0  0  0
   10.0616   -3.0670   47.6360 C   0  0  0  0  0  0  0  0  0  0  0  0
    9.2755   -7.8884   48.2076 C   0  0  0  0  0  0  0  0  0  0  0  0
   12.3151   -4.8393   47.9221 O   0  0  0  0  0  0  0  0  0  0  0  0
    8.2519   -8.9331   48.3446 C   0  0  0  0  0  0  0  0  0  0  0  0
    7.7918   -9.2569   47.1381 O   0  0  0  0  0  0  0  0  0  0  0  0
   13.1704   -5.0912   47.0420 C   0  0  0  0  0  0  0  0  0  0  0  0
   10.5272   -8.0817   48.4524 N   0  0  0  0  0  0  0  0  0  0  0  0
   11.5246   -7.0831   48.3704 C   0  0  0  0  0  0  0  0  0  0  0  0
  1  2  1  0
  2  3  2  0
  3  4  1  0
  1  5  2  0
  4  5  1  0
  4  6  2  0
  5  7  1  0
  7  8  2  0
  6  9  1  0
  3 10  1  0
  9 11  2  0
 10 11  1  0
  7 12  1  0
 12 13  2  0
  9 14  1  0
 11 15  1  0
 14 16  1  0
 13 17  1  0
 16 18  1  0
 14 19  2  0
 15 20  2  0
 19 20  1  0
 19 21  1  0
 21 22  2  0
  8 23  1  0
 17 23  2  0
 21 24  1  0
 24 25  1  0
 18 26  2  0
 25 27  1  0
 18 28  1  0
 27 29  2  0
 27 30  1  0
 22 31  1  0
 25 31  2  0
 30 32  2  0
 29 33  1  0
 32 34  1  0
 34 35  1  0
 33 36  1  0
 32 37  1  0
 29 38  1  0
 37 38  2  0
M  END
$$$$
O14757_Pocket2Mol_idx-in-all-generaetd-186
     RDKit          3D

 31 35  0  0  0  0  0  0  0  0999 V2000
    3.7044    0.1389   42.5158 N   0  0  0  0  0  0  0  0  0  0  0  0
    3.0206   -1.0018   42.4929 C   0  0  0  0  0  0  0  0  0  0  0  0
    3.4791   -2.0817   43.2077 C   0  0  0  0  0  0  0  0  0  0  0  0
    4.8540    0.3862   43.0582 N   0  0  0  0  0  0  0  0  0  0  0  0
    5.1377   -0.9552   43.7144 C   0  0  0  0  0  0  0  0  0  0  0  0
    1.5846   -1.0753   41.7644 C   0  0  0  0  0  0  0  0  0  0  0  0
    4.6026   -2.0358   43.8129 C   0  0  0  0  0  0  0  0  0  0  0  0
    5.1584   -3.1511   44.6069 C   0  0  0  0  0  0  0  0  0  0  0  0
    6.6094   -0.7911   44.3696 N   0  0  0  0  0  0  0  0  0  0  0  0
    4.4744   -4.3270   44.8472 C   0  0  0  0  0  0  0  0  0  0  0  0
    6.9275   -1.8713   45.2437 C   0  0  0  0  0  0  0  0  0  0  0  0
    8.2702   -1.7750   45.8768 C   0  0  0  0  0  0  0  0  0  0  0  0
    0.9365   -0.0867   41.7346 O   0  0  0  0  0  0  0  0  0  0  0  0
    6.2322   -3.0484   45.3118 C   0  0  0  0  0  0  0  0  0  0  0  0
    6.7747   -4.0433   46.1202 N   0  0  0  0  0  0  0  0  0  0  0  0
    1.2161   -2.2739   41.2518 N   0  0  0  0  0  0  0  0  0  0  0  0
    9.0373   -0.5649   45.9132 O   0  0  0  0  0  0  0  0  0  0  0  0
    3.8907   -5.0906   43.9511 O   0  0  0  0  0  0  0  0  0  0  0  0
    4.3454   -4.8388   46.1621 N   0  0  0  0  0  0  0  0  0  0  0  0
    3.4531   -5.8952   46.4159 C   0  0  0  0  0  0  0  0  0  0  0  0
    8.7091   -2.8031   46.6693 N   0  0  0  0  0  0  0  0  0  0  0  0
    5.4910   -4.7959   46.9467 C   0  0  0  0  0  0  0  0  0  0  0  0
    7.8496   -3.9145   46.8373 C   0  0  0  0  0  0  0  0  0  0  0  0
    8.5639   -5.1140   47.3215 O   0  0  0  0  0  0  0  0  0  0  0  0
    9.9254   -2.6675   47.4187 C   0  0  0  0  0  0  0  0  0  0  0  0
    9.8657   -1.8897   48.5483 C   0  0  0  0  0  0  0  0  0  0  0  0
   11.0142   -2.1407   46.5238 C   0  0  0  0  0  0  0  0  0  0  0  0
   12.3267   -2.5211   46.9519 C   0  0  0  0  0  0  0  0  0  0  0  0
   11.1820   -2.0774   49.4108 C   0  0  0  0  0  0  0  0  0  0  0  0
   12.3974   -1.7361   48.4439 N   0  0  0  0  0  0  0  0  0  0  0  0
   12.6099   -0.3681   48.4290 C   0  0  0  0  0  0  0  0  0  0  0  0
  1  2  2  0
  2  3  1  0
  1  4  1  0
  4  5  2  0
  2  6  1  0
  3  7  2  0
  5  7  1  0
  7  8  1  0
  5  9  1  0
  8 10  1  0
  9 11  2  0
 11 12  1  0
  6 13  2  0
  8 14  2  0
 11 14  1  0
 14 15  1  0
  6 16  1  0
 12 17  2  0
 10 18  2  0
 10 19  1  0
 19 20  1  0
 12 21  1  0
 15 22  1  0
 19 22  1  0
 15 23  1  0
 21 23  1  0
 23 24  2  0
 21 25  1  0
 25 26  1  0
 25 27  1  0
 27 28  1  0
 26 29  1  0
 28 30  1  0
 29 30  1  0
 30 31  1  0
M  END
$$$$
O14757_Pocket2Mol_idx-in-all-generaetd-187
     RDKit          3D

 30 35  0  0  0  0  0  0  0  0999 V2000
    5.1775    0.2381   42.7925 N   0  0  0  0  0  0  0  0  0  0  0  0
    3.8485    0.3515   42.4285 N   0  0  0  0  0  0  0  0  0  0  0  0
    5.5201   -0.8216   43.5188 C   0  0  0  0  0  0  0  0  0  0  0  0
    4.5575   -1.7838   43.9113 C   0  0  0  0  0  0  0  0  0  0  0  0
    2.9777   -0.5504   42.6073 C   0  0  0  0  0  0  0  0  0  0  0  0
    4.8521   -2.9209   44.7316 C   0  0  0  0  0  0  0  0  0  0  0  0
    3.2351   -1.5675   43.1903 C   0  0  0  0  0  0  0  0  0  0  0  0
    1.6955   -0.2711   41.8967 C   0  0  0  0  0  0  0  0  0  0  0  0
    0.8864   -1.3663   42.0618 C   0  0  0  0  0  0  0  0  0  0  0  0
    2.3187   -2.7500   43.4543 C   0  0  0  0  0  0  0  0  0  0  0  0
    1.1071   -2.5907   42.7445 C   0  0  0  0  0  0  0  0  0  0  0  0
    6.0979   -2.8249   45.5633 C   0  0  0  0  0  0  0  0  0  0  0  0
    0.0423   -3.6939   42.8205 C   0  0  0  0  0  0  0  0  0  0  0  0
    4.2011   -4.0423   44.9363 C   0  0  0  0  0  0  0  0  0  0  0  0
    4.5424   -5.0339   45.7893 C   0  0  0  0  0  0  0  0  0  0  0  0
   -0.0110   -4.4040   41.6463 N   0  0  0  0  0  0  0  0  0  0  0  0
    2.8431   -3.9954   44.0809 C   0  0  0  0  0  0  0  0  0  0  0  0
    7.0703   -1.6758   45.5388 C   0  0  0  0  0  0  0  0  0  0  0  0
    6.5324   -3.6602   46.4424 C   0  0  0  0  0  0  0  0  0  0  0  0
    5.6842   -4.8828   46.5405 C   0  0  0  0  0  0  0  0  0  0  0  0
    6.7957   -0.7421   44.3455 N   0  0  0  0  0  0  0  0  0  0  0  0
   -0.5371   -3.9067   43.6730 O   0  0  0  0  0  0  0  0  0  0  0  0
    8.1253   -1.3380   46.2529 C   0  0  0  0  0  0  0  0  0  0  0  0
    8.4826   -2.3424   47.1646 C   0  0  0  0  0  0  0  0  0  0  0  0
    7.6160   -3.5262   47.3486 C   0  0  0  0  0  0  0  0  0  0  0  0
    9.6963   -2.1931   47.9970 C   0  0  0  0  0  0  0  0  0  0  0  0
    9.5527   -1.4028   48.9318 O   0  0  0  0  0  0  0  0  0  0  0  0
   10.8447   -2.3815   47.4083 O   0  0  0  0  0  0  0  0  0  0  0  0
   11.6202   -1.5667   46.7242 C   0  0  0  0  0  0  0  0  0  0  0  0
   11.7922   -1.9648   45.3077 C   0  0  0  0  0  0  0  0  0  0  0  0
  1  2  2  0
  1  3  1  0
  3  4  2  0
  2  5  1  0
  4  6  1  0
  4  7  1  0
  5  7  2  0
  5  8  1  0
  8  9  2  0
  7 10  1  0
  9 11  1  0
 10 11  2  0
  6 12  2  0
 11 13  1  0
  6 14  1  0
 14 15  2  0
 13 16  1  0
 10 17  1  0
 14 17  1  0
 12 18  1  0
 12 19  1  0
 15 20  1  0
 19 20  2  0
  3 21  1  0
 18 21  2  0
 13 22  2  0
 18 23  1  0
 23 24  2  0
 19 25  1  0
 24 25  1  0
 24 26  1  0
 26 27  2  0
 26 28  1  0
 28 29  1  0
 29 30  1  0
M  END
$$$$
O14757_Pocket2Mol_idx-in-all-generaetd-188
     RDKit          3D

 34 38  0  0  0  0  0  0  0  0999 V2000
    4.5156    0.0550   42.9895 N   0  0  0  0  0  0  0  0  0  0  0  0
    5.0618   -0.8645   43.5295 C   0  0  0  0  0  0  0  0  0  0  0  0
    4.4350   -2.0604   43.7783 C   0  0  0  0  0  0  0  0  0  0  0  0
    4.9987   -3.0994   44.5839 C   0  0  0  0  0  0  0  0  0  0  0  0
    3.2714   -1.8664   43.0632 C   0  0  0  0  0  0  0  0  0  0  0  0
    6.4064   -0.5942   44.3204 N   0  0  0  0  0  0  0  0  0  0  0  0
    4.3422   -4.3256   44.7203 C   0  0  0  0  0  0  0  0  0  0  0  0
    2.1845   -2.6668   42.8270 N   0  0  0  0  0  0  0  0  0  0  0  0
    6.7872   -1.6740   45.1626 C   0  0  0  0  0  0  0  0  0  0  0  0
    3.3364   -0.5682   42.5216 C   0  0  0  0  0  0  0  0  0  0  0  0
    6.0794   -2.8367   45.2418 C   0  0  0  0  0  0  0  0  0  0  0  0
    2.2080   -0.0040   41.8105 N   0  0  0  0  0  0  0  0  0  0  0  0
    3.5122   -4.5717   45.8882 C   0  0  0  0  0  0  0  0  0  0  0  0
    8.0343   -1.3439   45.8176 C   0  0  0  0  0  0  0  0  0  0  0  0
    8.5676   -2.2678   46.6666 C   0  0  0  0  0  0  0  0  0  0  0  0
    1.2034   -0.9715   41.7505 C   0  0  0  0  0  0  0  0  0  0  0  0
    9.7543   -2.0263   47.4257 C   0  0  1  0  0  0  0  0  0  0  0  0
   10.9435   -2.3462   46.8726 C   0  0  0  0  0  0  0  0  0  0  0  0
    2.0759   -4.8825   45.5393 N   0  0  0  0  0  0  0  0  0  0  0  0
    1.2148   -2.2334   42.1576 C   0  0  0  0  0  0  0  0  0  0  0  0
    9.6982   -0.8148   48.0427 O   0  0  0  0  0  0  0  0  0  0  0  0
   11.0881   -3.3882   46.0717 O   0  0  0  0  0  0  0  0  0  0  0  0
    7.6623   -3.4449   46.9706 C   0  0  0  0  0  0  0  0  0  0  0  0
    6.5323   -3.6370   46.2770 C   0  0  0  0  0  0  0  0  0  0  0  0
    0.0607   -3.1280   41.9172 C   0  0  0  0  0  0  0  0  0  0  0  0
   12.3311   -3.5802   45.4279 C   0  0  0  0  0  0  0  0  0  0  0  0
   11.7186   -1.3261   46.7020 C   0  0  0  0  0  0  0  0  0  0  0  0
   12.1074   -0.6139   47.6871 O   0  0  0  0  0  0  0  0  0  0  0  0
   -0.3863   -3.3709   40.6959 O   0  0  0  0  0  0  0  0  0  0  0  0
    1.7867   -5.7975   44.8928 C   0  0  0  0  0  0  0  0  0  0  0  0
    1.2123   -3.7433   45.4568 C   0  0  0  0  0  0  0  0  0  0  0  0
   -0.1520   -4.2594   45.7463 C   0  0  0  0  0  0  0  0  0  0  0  0
   -0.6168   -3.5725   42.8827 O   0  0  0  0  0  0  0  0  0  0  0  0
   -0.0356   -5.7187   45.5885 C   0  0  0  0  0  0  0  0  0  0  0  0
  1  2  2  0
  2  3  1  0
  3  4  1  0
  3  5  2  0
  2  6  1  0
  4  7  1  0
  5  8  1  0
  6  9  2  0
  1 10  1  0
  5 10  1  0
  4 11  2  0
  9 11  1  0
 10 12  2  0
  7 13  1  0
  9 14  1  0
 14 15  2  0
 12 16  1  0
 15 17  1  0
 17 18  1  0
 13 19  1  0
  8 20  2  0
 16 20  1  0
 17 21  1  6
 18 22  1  0
 15 23  1  0
 11 24  1  0
 23 24  2  0
 20 25  1  0
 22 26  1  0
 18 27  2  3
 27 28  1  0
 25 29  2  0
 19 30  1  0
 19 31  1  0
 31 32  1  0
 25 33  1  0
 30 34  1  0
 32 34  1  0
M  END
$$$$
O14757_Pocket2Mol_idx-in-all-generaetd-189
     RDKit          3D

 32 36  0  0  0  0  0  0  0  0999 V2000
    5.3420    0.2589   42.8836 O   0  0  0  0  0  0  0  0  0  0  0  0
    5.1627   -0.7554   43.4753 C   0  0  0  0  0  0  0  0  0  0  0  0
    4.0509   -1.4657   43.4177 N   0  0  0  0  0  0  0  0  0  0  0  0
    5.9969   -1.2317   44.6840 C   0  0  0  0  0  0  0  0  0  0  0  0
    2.9618   -1.1021   42.5918 C   0  0  0  0  0  0  0  0  0  0  0  0
    7.3392   -0.8596   44.8412 C   0  0  0  0  0  0  0  0  0  0  0  0
    1.9754   -2.0820   42.2741 C   0  0  0  0  0  0  0  0  0  0  0  0
    5.5910   -2.4282   45.3439 C   0  0  0  0  0  0  0  0  0  0  0  0
    6.5874   -2.9636   46.1581 C   0  0  0  0  0  0  0  0  0  0  0  0
    4.2763   -3.0680   45.0493 N   0  0  0  0  0  0  0  0  0  0  0  0
    3.6188   -2.5886   44.2024 C   0  0  0  0  0  0  0  0  0  0  0  0
    8.1921   -1.4071   45.7505 C   0  0  0  0  0  0  0  0  0  0  0  0
    1.0154   -1.8839   41.2980 C   0  0  0  0  0  0  0  0  0  0  0  0
    2.5720   -3.3564   43.9063 C   0  0  0  0  0  0  0  0  0  0  0  0
    0.2502   -2.8976   41.0751 C   0  0  0  0  0  0  0  0  0  0  0  0
    0.2230   -3.9124   42.0516 C   0  0  0  0  0  0  0  0  0  0  0  0
    2.2879   -4.6260   44.7113 N   0  0  0  0  0  0  0  0  0  0  0  0
    6.1659   -4.2025   47.0113 C   0  0  0  0  0  0  0  0  0  0  0  0
    7.7956   -2.4608   46.4615 C   0  0  0  0  0  0  0  0  0  0  0  0
    2.9712    0.0201   42.0096 O   0  0  0  0  0  0  0  0  0  0  0  0
    1.7132   -3.1838   42.9787 C   0  0  2  0  0  0  0  0  0  0  0  0
    8.6828   -3.0330   47.4960 O   0  0  0  0  0  0  0  0  0  0  0  0
    1.1703   -5.2709   44.7618 O   0  0  0  0  0  0  0  0  0  0  0  0
    9.9111   -3.2041   47.1216 C   0  0  0  0  0  0  0  0  0  0  0  0
    0.5515   -5.1401   45.9479 C   0  0  0  0  0  0  0  0  0  0  0  0
   10.2088   -4.3574   46.5630 C   0  0  0  0  0  0  0  0  0  0  0  0
   10.8619   -2.2052   47.3191 C   0  0  0  0  0  0  0  0  0  0  0  0
   11.5450   -4.6712   46.2149 C   0  0  0  0  0  0  0  0  0  0  0  0
   12.5441   -3.5081   46.5242 C   0  0  0  0  0  0  0  0  0  0  0  0
   13.8974   -3.8515   46.0878 O   0  0  0  0  0  0  0  0  0  0  0  0
   12.2194   -2.3518   46.9579 C   0  0  0  0  0  0  0  0  0  0  0  0
   14.8332   -3.0286   46.2368 C   0  0  0  0  0  0  0  0  0  0  0  0
  1  2  2  0
  2  3  1  0
  2  4  1  0
  3  5  1  0
  4  6  2  0
  5  7  1  0
  4  8  1  0
  8  9  2  0
  8 10  1  0
  3 11  1  0
 10 11  2  0
  6 12  1  0
  7 13  2  0
 11 14  1  0
 13 15  1  0
 15 16  2  0
 14 17  2  3
  9 18  1  0
  9 19  1  0
 12 19  2  0
  5 20  2  0
  7 21  1  0
 14 21  1  0
 21 16  1  6
 19 22  1  0
 17 23  1  0
 22 24  1  0
 23 25  1  0
 24 26  2  0
 24 27  1  0
 26 28  1  0
 28 29  2  0
 29 30  1  0
 27 31  2  0
 29 31  1  0
 30 32  1  0
M  END
$$$$
O14757_Pocket2Mol_idx-in-all-generaetd-190
     RDKit          3D

 34 41  0  0  0  0  0  0  0  0999 V2000
    4.8173    0.2791   42.6993 N   0  0  0  0  0  0  0  0  0  0  0  0
    5.3297   -0.7477   43.3688 C   0  0  0  0  0  0  0  0  0  0  0  0
    3.4732   -0.2235   42.4530 C   0  0  0  0  0  0  0  0  0  0  0  0
    4.4984   -1.7876   43.6214 C   0  0  0  0  0  0  0  0  0  0  0  0
    3.3438   -1.5190   42.9379 C   0  0  0  0  0  0  0  0  0  0  0  0
    2.1381   -2.3401   42.8254 C   0  0  0  0  0  0  0  0  0  0  0  0
    2.3894    0.3572   41.9843 N   0  0  0  0  0  0  0  0  0  0  0  0
    4.9180   -3.0430   44.3829 C   0  0  0  0  0  0  0  0  0  0  0  0
    5.9444   -2.9314   45.3934 C   0  0  0  0  0  0  0  0  0  0  0  0
    4.2808   -4.1329   44.3252 C   0  0  0  0  0  0  0  0  0  0  0  0
    3.1588   -4.4221   43.4852 O   0  0  0  0  0  0  0  0  0  0  0  0
    4.5704   -5.2518   45.1995 C   0  0  0  0  0  0  0  0  0  0  0  0
    1.9853   -3.6792   43.3495 C   0  0  0  0  0  0  0  0  0  0  0  0
    0.9181   -4.3294   43.4638 C   0  0  0  0  0  0  0  0  0  0  0  0
    6.7403   -1.6226   45.5272 C   0  0  2  0  0  0  0  0  0  0  0  0
    0.9752   -1.7845   42.3366 C   0  0  0  0  0  0  0  0  0  0  0  0
    6.2516   -3.7287   46.2722 C   0  0  0  0  0  0  0  0  0  0  0  0
   -0.2404   -2.4179   42.2529 C   0  0  0  0  0  0  0  0  0  0  0  0
   -1.3835   -1.8904   41.6559 N   0  0  0  0  0  0  0  0  0  0  0  0
    3.8706   -6.4216   45.1394 O   0  0  0  0  0  0  0  0  0  0  0  0
    0.9456   -0.2789   41.7649 C   0  0  0  0  0  0  0  0  0  0  0  0
   -0.2678   -3.6969   42.7575 C   0  0  0  0  0  0  0  0  0  0  0  0
    6.3913   -0.7000   44.3807 N   0  0  0  0  0  0  0  0  0  0  0  0
    7.9391   -1.5867   46.0069 C   0  0  0  0  0  0  0  0  0  0  0  0
    8.7787   -0.4879   45.9761 O   0  0  0  0  0  0  0  0  0  0  0  0
    5.3853   -5.1216   46.3780 C   0  0  0  0  0  0  0  0  0  0  0  0
    8.4504   -2.7517   46.6262 N   0  0  0  0  0  0  0  0  0  0  0  0
    7.4807   -3.7374   47.0380 C   0  0  0  0  0  0  0  0  0  0  0  0
    9.7261   -2.6138   47.3732 C   0  0  1  0  0  0  0  0  0  0  0  0
    9.9606   -3.7577   48.0581 C   0  0  0  0  0  0  0  0  0  0  0  0
   10.7578   -2.0043   46.5264 C   0  0  0  0  0  0  0  0  0  0  0  0
   11.9850   -3.0056   46.5896 C   0  0  0  0  0  0  0  0  0  0  0  0
   11.5515   -3.8927   47.7117 C   0  0  0  0  0  0  0  0  0  0  0  0
   12.9239   -3.0663   45.9134 O   0  0  0  0  0  0  0  0  0  0  0  0
  1  2  2  0
  1  3  1  0
  2  4  1  0
  3  5  1  0
  4  5  2  0
  5  6  1  0
  3  7  2  0
  4  8  1  0
  8  9  1  0
  8 10  2  0
 10 11  1  0
 10 12  1  0
  6 13  1  0
 11 13  1  0
 13 14  2  0
  9 15  1  0
  6 16  2  0
  9 17  2  0
 16 18  1  0
 18 19  1  0
 12 20  1  0
  7 21  1  0
 16 21  1  0
 14 22  1  0
 18 22  2  0
  2 23  1  0
 15 23  1  6
 15 24  1  0
 24 25  2  0
 12 26  2  0
 17 26  1  0
 24 27  1  0
 17 28  1  0
 27 28  1  0
 29 27  1  6
 29 30  1  0
 29 31  1  0
 31 32  1  0
 30 33  1  0
 32 33  1  0
 32 34  2  0
M  END
$$$$
O14757_Pocket2Mol_idx-in-all-generaetd-191
     RDKit          3D

 28 32  0  0  0  0  0  0  0  0999 V2000
    5.3420    0.2589   42.8836 N   0  0  0  0  0  0  0  0  0  0  0  0
    5.6740   -0.8311   43.5645 C   0  0  0  0  0  0  0  0  0  0  0  0
    4.8288   -1.8236   43.8416 C   0  0  0  0  0  0  0  0  0  0  0  0
    3.6296   -1.5812   43.1756 C   0  0  0  0  0  0  0  0  0  0  0  0
    5.0882   -3.0359   44.6381 C   0  0  0  0  0  0  0  0  0  0  0  0
    6.1485   -2.9700   45.5258 C   0  0  0  0  0  0  0  0  0  0  0  0
    4.2991   -4.0949   44.5899 C   0  0  0  0  0  0  0  0  0  0  0  0
    2.3915   -2.2145   43.0037 C   0  0  0  0  0  0  0  0  0  0  0  0
    3.1185   -4.3300   43.8771 C   0  0  0  0  0  0  0  0  0  0  0  0
    2.6120   -5.5925   44.1861 O   0  0  0  0  0  0  0  0  0  0  0  0
    3.9103   -0.2359   42.6290 C   0  0  0  0  0  0  0  0  0  0  0  0
    2.2344   -3.4540   43.3650 N   0  0  0  0  0  0  0  0  0  0  0  0
    0.8119   -3.8495   43.1300 C   0  0  0  0  0  0  0  0  0  0  0  0
    1.5466   -1.4135   42.2460 C   0  0  0  0  0  0  0  0  0  0  0  0
    0.1571   -1.9641   41.9807 C   0  0  0  0  0  0  0  0  0  0  0  0
    2.1405    0.0322   41.9578 C   0  0  0  0  0  0  0  0  0  0  0  0
    7.1626   -1.9813   45.6899 C   0  0  0  0  0  0  0  0  0  0  0  0
   -0.5832   -1.3301   41.2297 O   0  0  0  0  0  0  0  0  0  0  0  0
    3.1019    0.4438   42.0540 N   0  0  0  0  0  0  0  0  0  0  0  0
    0.0477   -3.0540   42.4504 N   0  0  0  0  0  0  0  0  0  0  0  0
    6.8819   -0.9004   44.6492 C   0  0  0  0  0  0  0  0  0  0  0  0
    8.2297   -1.9892   46.4842 C   0  0  0  0  0  0  0  0  0  0  0  0
    8.5600   -3.0436   47.1661 O   0  0  0  0  0  0  0  0  0  0  0  0
    8.9512   -0.9135   46.5952 O   0  0  0  0  0  0  0  0  0  0  0  0
    9.8780   -0.9196   47.6818 C   0  0  0  0  0  0  0  0  0  0  0  0
   11.2260   -1.5369   47.2105 C   0  0  0  0  0  0  0  0  0  0  0  0
   11.3887   -1.4442   45.8533 O   0  0  0  0  0  0  0  0  0  0  0  0
   12.4032   -2.2776   45.2816 C   0  0  0  0  0  0  0  0  0  0  0  0
  1  2  2  0
  2  3  1  0
  3  4  2  0
  3  5  1  0
  5  6  1  0
  5  7  2  0
  4  8  1  0
  7  9  1  0
  9 10  2  0
  1 11  1  0
  4 11  1  0
  8 12  1  0
  9 12  1  0
 12 13  1  0
  8 14  2  0
 14 15  1  0
 14 16  1  0
  6 17  2  0
 15 18  2  0
 11 19  2  0
 16 19  1  0
 13 20  2  0
 15 20  1  0
  2 21  1  0
 17 21  1  0
 17 22  1  0
 22 23  2  0
 22 24  1  0
 24 25  1  0
 25 26  1  0
 26 27  1  0
 27 28  1  0
M  END
$$$$
O14757_Pocket2Mol_idx-in-all-generaetd-192
     RDKit          3D

 47 55  0  0  0  0  0  0  0  0999 V2000
    1.5482   -0.3111   41.9233 C   0  0  0  0  0  0  0  0  0  0  0  0
    2.7284    0.2018   42.1525 N   0  0  0  0  0  0  0  0  0  0  0  0
    3.7893   -0.3016   42.7005 C   0  0  0  0  0  0  0  0  0  0  0  0
    3.3781   -1.7350   43.0000 C   0  0  0  0  0  0  0  0  0  0  0  0
    2.0339   -1.9619   42.6217 C   0  0  0  0  0  0  0  0  0  0  0  0
    5.0090    0.1219   42.9340 N   0  0  0  0  0  0  0  0  0  0  0  0
    4.2895   -2.4979   43.6707 C   0  0  0  0  0  0  0  0  0  0  0  0
    5.8391   -0.6675   43.6343 C   0  0  0  0  0  0  0  0  0  0  0  0
    6.9849   -0.2377   44.0028 N   0  0  0  0  0  0  0  0  0  0  0  0
    4.0426   -3.8794   44.0832 C   0  0  0  0  0  0  0  0  0  0  0  0
    7.6796   -0.8734   44.9326 C   0  0  0  0  0  0  0  0  0  0  0  0
    1.1064   -2.9576   42.4211 C   0  0  0  0  0  0  0  0  0  0  0  0
    5.5298   -1.9496   44.0315 C   0  0  0  0  0  0  0  0  0  0  0  0
    3.8954   -4.1817   45.4718 C   0  0  0  0  0  0  0  0  0  0  0  0
    0.6765   -3.5480   43.4006 C   0  0  1  0  0  0  0  0  0  0  0  0
    0.5804   -3.2191   41.1635 C   0  0  0  0  0  0  0  0  0  0  0  0
    2.8083   -4.8227   45.9203 N   0  0  0  0  0  0  0  0  0  0  0  0
   -0.1574   -4.5754   42.9329 N   0  0  0  0  0  0  0  0  0  0  0  0
    6.5271   -2.5531   44.9677 C   0  0  0  0  0  0  0  0  0  0  0  0
   -0.2272   -4.3703   41.5137 C   0  0  0  0  0  0  0  0  0  0  0  0
    7.5095   -2.0029   45.3993 C   0  0  0  0  0  0  0  0  0  0  0  0
    8.2550   -2.6982   46.3988 C   0  0  0  0  0  0  0  0  0  0  0  0
    8.8975   -0.3029   45.3267 O   0  0  0  0  0  0  0  0  0  0  0  0
    4.8299   -4.4637   46.4212 C   0  0  0  0  0  0  0  0  0  0  0  0
    4.2707   -4.9248   47.6295 N   0  0  0  0  0  0  0  0  0  0  0  0
    3.2045   -5.2092   47.1521 C   0  0  0  0  0  0  0  0  0  0  0  0
    1.4482   -4.6186   45.4134 C   0  0  1  0  0  0  0  0  0  0  0  0
    1.2398   -3.5043   44.6236 O   0  0  0  0  0  0  0  0  0  0  0  0
    6.3317   -3.9297   46.0870 C   0  0  2  0  0  0  0  0  0  0  0  0
    9.5296   -2.5449   46.9776 C   0  0  0  0  0  0  0  0  0  0  0  0
    9.7921   -1.7530   47.9018 O   0  0  0  0  0  0  0  0  0  0  0  0
    7.3972   -3.8130   46.7939 C   0  0  0  0  0  0  0  0  0  0  0  0
    1.2392   -5.7793   44.5610 C   0  0  0  0  0  0  0  0  0  0  0  0
   10.4982   -3.2564   46.4837 N   0  0  0  0  0  0  0  0  0  0  0  0
   11.8686   -3.0564   46.9374 C   0  0  0  0  0  0  0  0  0  0  0  0
   10.3143   -4.3335   45.5931 C   0  0  0  0  0  0  0  0  0  0  0  0
   10.5171   -5.6681   46.1791 C   0  0  0  0  0  0  0  0  0  0  0  0
   12.8315   -2.7175   45.9073 C   0  0  0  0  0  0  0  0  0  0  0  0
   14.1197   -2.6036   46.2175 C   0  0  0  0  0  0  0  0  0  0  0  0
   12.2567   -3.0142   48.2372 C   0  0  0  0  0  0  0  0  0  0  0  0
   15.1302   -2.3251   45.1521 O   0  0  0  0  0  0  0  0  0  0  0  0
   14.5223   -2.6858   47.5020 C   0  0  0  0  0  0  0  0  0  0  0  0
   15.9083   -2.5233   47.8373 O   0  0  0  0  0  0  0  0  0  0  0  0
   11.3428   -3.2903   49.3303 O   0  0  0  0  0  0  0  0  0  0  0  0
   13.6884   -2.8846   48.6195 C   0  0  0  0  0  0  0  0  0  0  0  0
   14.9411   -1.3116   44.3555 C   0  0  0  0  0  0  0  0  0  0  0  0
   16.4099   -3.1880   48.8067 C   0  0  0  0  0  0  0  0  0  0  0  0
  1  2  1  0
  2  3  2  0
  3  4  1  0
  1  5  2  0
  4  5  1  0
  3  6  1  0
  4  7  2  0
  6  8  1  0
  8  9  1  0
  7 10  1  0
  9 11  1  0
  5 12  1  0
  7 13  1  0
  8 13  2  0
 10 14  1  0
 12 15  1  0
 12 16  2  0
 14 17  1  0
 15 18  1  0
 13 19  1  0
 16 20  1  0
 18 20  2  0
 11 21  1  0
 19 21  2  0
 21 22  1  0
 11 23  2  0
 14 24  2  0
 24 25  1  0
 17 26  1  0
 25 26  2  0
 17 27  1  0
 15 28  1  6
 27 28  1  0
 19 29  1  0
 24 29  1  0
 22 30  1  0
 30 31  2  0
 22 32  2  0
 29 32  1  1
 27 33  1  6
 30 34  1  0
 34 35  1  0
 34 36  1  0
 36 37  1  0
 35 38  2  0
 38 39  1  0
 35 40  1  0
 39 41  1  0
 39 42  2  0
 42 43  1  0
 40 44  1  0
 40 45  2  0
 42 45  1  0
 41 46  1  0
 43 47  1  0
M  END
$$$$
O14757_Pocket2Mol_idx-in-all-generaetd-193
     RDKit          3D

 36 43  0  0  0  0  0  0  0  0999 V2000
    1.5482   -0.3111   41.9233 C   0  0  0  0  0  0  0  0  0  0  0  0
    2.7284    0.2018   42.1525 N   0  0  0  0  0  0  0  0  0  0  0  0
    3.7893   -0.3016   42.7005 C   0  0  0  0  0  0  0  0  0  0  0  0
    3.3781   -1.7350   43.0000 C   0  0  0  0  0  0  0  0  0  0  0  0
    2.0339   -1.9619   42.6217 C   0  0  0  0  0  0  0  0  0  0  0  0
    5.0090    0.1219   42.9340 N   0  0  0  0  0  0  0  0  0  0  0  0
    4.2895   -2.4979   43.6707 C   0  0  0  0  0  0  0  0  0  0  0  0
    5.8391   -0.6675   43.6343 C   0  0  0  0  0  0  0  0  0  0  0  0
    6.9849   -0.2377   44.0028 N   0  0  0  0  0  0  0  0  0  0  0  0
    4.0426   -3.8794   44.0832 C   0  0  0  0  0  0  0  0  0  0  0  0
    7.6796   -0.8734   44.9326 C   0  0  0  0  0  0  0  0  0  0  0  0
    1.1064   -2.9576   42.4211 C   0  0  0  0  0  0  0  0  0  0  0  0
    5.5298   -1.9496   44.0315 C   0  0  0  0  0  0  0  0  0  0  0  0
    3.8954   -4.1817   45.4718 C   0  0  0  0  0  0  0  0  0  0  0  0
    0.6765   -3.5480   43.4006 C   0  0  1  0  0  0  0  0  0  0  0  0
    0.5804   -3.2191   41.1635 C   0  0  0  0  0  0  0  0  0  0  0  0
    2.8083   -4.8227   45.9203 N   0  0  0  0  0  0  0  0  0  0  0  0
   -0.1574   -4.5754   42.9329 N   0  0  0  0  0  0  0  0  0  0  0  0
    6.5271   -2.5531   44.9677 C   0  0  0  0  0  0  0  0  0  0  0  0
   -0.2272   -4.3703   41.5137 C   0  0  0  0  0  0  0  0  0  0  0  0
    7.5095   -2.0029   45.3993 C   0  0  0  0  0  0  0  0  0  0  0  0
    8.2550   -2.6982   46.3988 C   0  0  1  0  0  0  0  0  0  0  0  0
    8.8975   -0.3029   45.3267 O   0  0  0  0  0  0  0  0  0  0  0  0
    4.8299   -4.4637   46.4212 C   0  0  0  0  0  0  0  0  0  0  0  0
    4.2707   -4.9248   47.6295 N   0  0  0  0  0  0  0  0  0  0  0  0
    3.2045   -5.2092   47.1521 C   0  0  0  0  0  0  0  0  0  0  0  0
    1.4482   -4.6186   45.4134 C   0  0  0  0  0  0  0  0  0  0  0  0
    1.3256   -3.7660   44.6394 N   0  0  0  0  0  0  0  0  0  0  0  0
    9.2816   -2.1418   47.1273 N   0  0  0  0  0  0  0  0  0  0  0  0
   10.0629   -3.1324   47.8508 C   0  0  0  0  0  0  0  0  0  0  0  0
    6.3491   -3.8960   46.0844 C   0  0  2  0  0  0  0  0  0  0  0  0
    7.4349   -3.5889   46.9054 C   0  0  0  0  0  0  0  0  0  0  0  0
    0.6207   -5.4448   45.7439 O   0  0  0  0  0  0  0  0  0  0  0  0
   11.3271   -2.6276   47.9131 C   0  0  0  0  0  0  0  0  0  0  0  0
   11.5575   -1.4135   48.2735 O   0  0  0  0  0  0  0  0  0  0  0  0
   12.2686   -3.2585   47.2163 O   0  0  0  0  0  0  0  0  0  0  0  0
  1  2  1  0
  2  3  2  0
  3  4  1  0
  1  5  2  0
  4  5  1  0
  3  6  1  0
  4  7  2  0
  6  8  1  0
  8  9  1  0
  7 10  1  0
  9 11  1  0
  5 12  1  0
  7 13  1  0
  8 13  2  0
 10 14  1  0
 12 15  1  0
 12 16  2  0
 14 17  1  0
 15 18  1  0
 13 19  1  0
 16 20  1  0
 18 20  2  0
 11 21  1  0
 19 21  2  0
 21 22  1  0
 11 23  2  0
 14 24  2  0
 24 25  1  0
 17 26  1  0
 25 26  2  0
 17 27  1  0
 15 28  1  6
 27 28  1  0
 22 29  1  1
 29 30  1  0
 19 31  1  0
 24 31  1  0
 22 32  1  0
 31 32  1  1
 27 33  2  0
 30 34  1  0
 34 35  2  0
 34 36  1  0
M  END
$$$$
O14757_Pocket2Mol_idx-in-all-generaetd-194
     RDKit          3D

 32 36  0  0  0  0  0  0  0  0999 V2000
    1.5482   -0.3111   41.9233 C   0  0  0  0  0  0  0  0  0  0  0  0
    2.7284    0.2018   42.1525 N   0  0  0  0  0  0  0  0  0  0  0  0
    3.7893   -0.3016   42.7005 C   0  0  0  0  0  0  0  0  0  0  0  0
    3.3781   -1.7350   43.0000 C   0  0  0  0  0  0  0  0  0  0  0  0
    2.0339   -1.9619   42.6217 C   0  0  0  0  0  0  0  0  0  0  0  0
    5.0090    0.1219   42.9340 N   0  0  0  0  0  0  0  0  0  0  0  0
    4.2895   -2.4979   43.6707 C   0  0  0  0  0  0  0  0  0  0  0  0
    5.8391   -0.6675   43.6343 C   0  0  0  0  0  0  0  0  0  0  0  0
    6.9849   -0.2377   44.0028 N   0  0  0  0  0  0  0  0  0  0  0  0
    4.0426   -3.8794   44.0832 C   0  0  0  0  0  0  0  0  0  0  0  0
    7.6796   -0.8734   44.9326 C   0  0  0  0  0  0  0  0  0  0  0  0
    1.1064   -2.9576   42.4211 C   0  0  0  0  0  0  0  0  0  0  0  0
    5.5298   -1.9496   44.0315 C   0  0  0  0  0  0  0  0  0  0  0  0
    3.8954   -4.1817   45.4718 C   0  0  0  0  0  0  0  0  0  0  0  0
    0.6765   -3.5480   43.4006 C   0  0  0  0  0  0  0  0  0  0  0  0
    0.5804   -3.2191   41.1635 C   0  0  0  0  0  0  0  0  0  0  0  0
    2.8083   -4.8227   45.9203 N   0  0  0  0  0  0  0  0  0  0  0  0
   -0.1574   -4.5754   42.9329 N   0  0  0  0  0  0  0  0  0  0  0  0
    6.5271   -2.5531   44.9677 C   0  0  0  0  0  0  0  0  0  0  0  0
   -0.2272   -4.3703   41.5137 C   0  0  0  0  0  0  0  0  0  0  0  0
    7.5095   -2.0029   45.3993 C   0  0  0  0  0  0  0  0  0  0  0  0
    8.2550   -2.6982   46.3988 C   0  0  0  0  0  0  0  0  0  0  0  0
    4.4030   -3.3432   46.3770 O   0  0  0  0  0  0  0  0  0  0  0  0
    8.9249   -0.3105   45.3298 O   0  0  0  0  0  0  0  0  0  0  0  0
    8.2469   -4.0750   46.4982 C   0  0  0  0  0  0  0  0  0  0  0  0
    9.0170   -4.6907   47.5426 C   0  0  0  0  0  0  0  0  0  0  0  0
    2.2953   -6.0111   45.3328 C   0  0  0  0  0  0  0  0  0  0  0  0
    9.0530   -6.1418   47.6074 O   0  0  0  0  0  0  0  0  0  0  0  0
    9.1622   -1.9577   47.2554 C   0  0  0  0  0  0  0  0  0  0  0  0
    9.8608   -2.5872   48.2561 C   0  0  0  0  0  0  0  0  0  0  0  0
    9.7962   -3.9959   48.3961 C   0  0  0  0  0  0  0  0  0  0  0  0
    8.6666   -6.7360   48.7130 C   0  0  0  0  0  0  0  0  0  0  0  0
  1  2  1  0
  2  3  2  0
  3  4  1  0
  1  5  2  0
  4  5  1  0
  3  6  1  0
  4  7  2  0
  6  8  1  0
  8  9  1  0
  7 10  1  0
  9 11  1  0
  5 12  1  0
  7 13  1  0
  8 13  2  0
 10 14  1  0
 12 15  1  0
 12 16  2  0
 14 17  1  0
 15 18  1  0
 13 19  1  0
 16 20  1  0
 18 20  2  0
 11 21  1  0
 19 21  2  0
 21 22  1  0
 14 23  2  0
 11 24  2  0
 22 25  2  0
 25 26  1  0
 17 27  1  0
 26 28  1  0
 22 29  1  0
 29 30  2  0
 26 31  2  0
 30 31  1  0
 28 32  1  0
M  END
$$$$
O14757_Pocket2Mol_idx-in-all-generaetd-195
     RDKit          3D

 34 39  0  0  0  0  0  0  0  0999 V2000
    4.5156    0.0550   42.9895 N   0  0  0  0  0  0  0  0  0  0  0  0
    5.0618   -0.8645   43.5295 C   0  0  0  0  0  0  0  0  0  0  0  0
    4.4350   -2.0604   43.7783 C   0  0  0  0  0  0  0  0  0  0  0  0
    4.9987   -3.0994   44.5839 C   0  0  0  0  0  0  0  0  0  0  0  0
    3.2714   -1.8664   43.0632 C   0  0  0  0  0  0  0  0  0  0  0  0
    6.4064   -0.5942   44.3204 N   0  0  0  0  0  0  0  0  0  0  0  0
    4.3422   -4.3256   44.7203 C   0  0  0  0  0  0  0  0  0  0  0  0
    2.1845   -2.6668   42.8270 N   0  0  0  0  0  0  0  0  0  0  0  0
    3.3305   -0.5395   42.5465 N   0  0  0  0  0  0  0  0  0  0  0  0
    1.9502   -3.8972   43.4076 C   0  0  0  0  0  0  0  0  0  0  0  0
    2.7156   -4.1184   44.6954 N   0  0  0  0  0  0  0  0  0  0  0  0
    6.8581   -1.5862   45.1101 C   0  0  0  0  0  0  0  0  0  0  0  0
    6.1801   -2.8430   45.2383 C   0  0  0  0  0  0  0  0  0  0  0  0
    2.1454   -5.1901   45.5771 C   0  0  0  0  0  0  0  0  0  0  0  0
    8.0137   -1.3946   45.8526 C   0  0  0  0  0  0  0  0  0  0  0  0
    0.9733   -4.5725   43.2066 O   0  0  0  0  0  0  0  0  0  0  0  0
    2.2437    0.0035   41.8733 C   0  0  0  0  0  0  0  0  0  0  0  0
    1.3210   -2.2077   41.7009 C   0  0  0  0  0  0  0  0  0  0  0  0
    8.6047   -2.2876   46.6923 C   0  0  0  0  0  0  0  0  0  0  0  0
    7.9141   -3.5157   46.8869 C   0  0  0  0  0  0  0  0  0  0  0  0
    1.0501   -0.8658   41.6612 C   0  0  0  0  0  0  0  0  0  0  0  0
    6.7278   -3.7718   46.2525 C   0  0  0  0  0  0  0  0  0  0  0  0
    9.8280   -2.0492   47.3361 C   0  0  0  0  0  0  0  0  0  0  0  0
    9.8262   -1.5735   48.5432 C   0  0  0  0  0  0  0  0  0  0  0  0
   11.0745   -2.0905   46.6735 C   0  0  0  0  0  0  0  0  0  0  0  0
    8.5798   -1.4294   49.3788 F   0  0  0  0  0  0  0  0  0  0  0  0
   10.9754   -1.2454   49.3173 C   0  0  0  0  0  0  0  0  0  0  0  0
   12.2431   -1.7844   47.3194 C   0  0  0  0  0  0  0  0  0  0  0  0
   12.3027   -1.4029   48.7252 C   0  0  0  0  0  0  0  0  0  0  0  0
   13.5218   -1.9255   46.6542 C   0  0  0  0  0  0  0  0  0  0  0  0
   13.6575   -1.3363   45.4341 C   0  0  0  0  0  0  0  0  0  0  0  0
   13.8328   -0.2255   45.2152 O   0  0  0  0  0  0  0  0  0  0  0  0
   13.5702   -2.0986   44.3851 O   0  0  0  0  0  0  0  0  0  0  0  0
    1.0377   -4.5192   46.3495 C   0  0  0  0  0  0  0  0  0  0  0  0
  1  2  2  0
  2  3  1  0
  3  4  1  0
  3  5  2  0
  2  6  1  0
  4  7  1  0
  5  8  1  0
  1  9  1  0
  5  9  1  0
  8 10  1  0
  7 11  1  0
 10 11  1  0
  6 12  2  0
  4 13  2  0
 12 13  1  0
 11 14  1  0
 12 15  1  0
 10 16  2  0
  9 17  1  0
  8 18  1  0
 15 19  2  0
 19 20  1  0
 17 21  1  0
 18 21  1  0
 13 22  1  0
 20 22  2  0
 19 23  1  0
 23 24  2  0
 23 25  1  0
 24 26  1  0
 24 27  1  0
 25 28  2  0
 27 29  2  0
 28 29  1  0
 28 30  1  0
 30 31  1  0
 31 32  2  0
 31 33  1  0
 14 34  1  0
M  END
$$$$
O14757_Pocket2Mol_idx-in-all-generaetd-196
     RDKit          3D

 46 54  0  0  0  0  0  0  0  0999 V2000
    1.5482   -0.3111   41.9233 C   0  0  0  0  0  0  0  0  0  0  0  0
    2.7284    0.2018   42.1525 N   0  0  0  0  0  0  0  0  0  0  0  0
    3.7893   -0.3016   42.7005 C   0  0  0  0  0  0  0  0  0  0  0  0
    3.3781   -1.7350   43.0000 C   0  0  0  0  0  0  0  0  0  0  0  0
    2.0339   -1.9619   42.6217 C   0  0  0  0  0  0  0  0  0  0  0  0
    5.0090    0.1219   42.9340 N   0  0  0  0  0  0  0  0  0  0  0  0
    4.2895   -2.4979   43.6707 C   0  0  0  0  0  0  0  0  0  0  0  0
    5.8391   -0.6675   43.6343 C   0  0  0  0  0  0  0  0  0  0  0  0
    6.9849   -0.2377   44.0028 N   0  0  0  0  0  0  0  0  0  0  0  0
    4.0426   -3.8794   44.0832 C   0  0  0  0  0  0  0  0  0  0  0  0
    7.6796   -0.8734   44.9326 C   0  0  0  0  0  0  0  0  0  0  0  0
    1.1064   -2.9576   42.4211 C   0  0  0  0  0  0  0  0  0  0  0  0
    5.5298   -1.9496   44.0315 C   0  0  0  0  0  0  0  0  0  0  0  0
    3.8954   -4.1817   45.4718 C   0  0  0  0  0  0  0  0  0  0  0  0
    0.6765   -3.5480   43.4006 C   0  0  1  0  0  0  0  0  0  0  0  0
    0.5804   -3.2191   41.1635 C   0  0  0  0  0  0  0  0  0  0  0  0
    2.8083   -4.8227   45.9203 N   0  0  0  0  0  0  0  0  0  0  0  0
   -0.1574   -4.5754   42.9329 N   0  0  0  0  0  0  0  0  0  0  0  0
    6.5271   -2.5531   44.9677 C   0  0  0  0  0  0  0  0  0  0  0  0
   -0.2272   -4.3703   41.5137 C   0  0  0  0  0  0  0  0  0  0  0  0
    7.5095   -2.0029   45.3993 C   0  0  0  0  0  0  0  0  0  0  0  0
    8.2550   -2.6982   46.3988 C   0  0  2  0  0  0  0  0  0  0  0  0
    8.8975   -0.3029   45.3267 O   0  0  0  0  0  0  0  0  0  0  0  0
    4.8299   -4.4637   46.4212 C   0  0  0  0  0  0  0  0  0  0  0  0
    4.2707   -4.9248   47.6295 N   0  0  0  0  0  0  0  0  0  0  0  0
    3.2045   -5.2092   47.1521 C   0  0  0  0  0  0  0  0  0  0  0  0
    1.4482   -4.6186   45.4134 C   0  0  2  0  0  0  0  0  0  0  0  0
    1.2398   -3.5043   44.6236 O   0  0  0  0  0  0  0  0  0  0  0  0
    6.3317   -3.9297   46.0870 C   0  0  2  0  0  0  0  0  0  0  0  0
    9.5296   -2.5449   46.9776 C   0  0  0  0  0  0  0  0  0  0  0  0
    9.7921   -1.7530   47.9018 O   0  0  0  0  0  0  0  0  0  0  0  0
    7.4454   -3.8344   46.8035 C   0  0  0  0  0  0  0  0  0  0  0  0
   10.5010   -3.0847   46.3190 O   0  0  0  0  0  0  0  0  0  0  0  0
    0.5569   -4.7693   46.5649 C   0  0  0  0  0  0  0  0  0  0  0  0
   11.7452   -2.8462   46.6234 C   0  0  0  0  0  0  0  0  0  0  0  0
   12.4344   -1.8951   45.7393 C   0  0  0  0  0  0  0  0  0  0  0  0
   12.4612   -3.5429   47.5581 C   0  0  0  0  0  0  0  0  0  0  0  0
   11.7737   -4.5216   48.4115 C   0  0  1  0  0  0  0  0  0  0  0  0
   11.7935   -5.7538   48.0263 C   0  0  0  0  0  0  0  0  0  0  0  0
   13.8063   -3.2053   47.6588 C   0  0  0  0  0  0  0  0  0  0  0  0
   13.7637   -1.6546   45.8843 C   0  0  0  0  0  0  0  0  0  0  0  0
   14.4057   -0.6923   45.0481 C   0  0  0  0  0  0  0  0  0  0  0  0
   12.3686   -4.5285   49.7647 O   0  0  0  0  0  0  0  0  0  0  0  0
   14.8461   -1.1206   43.9070 O   0  0  0  0  0  0  0  0  0  0  0  0
   14.9068    0.3007   45.5133 O   0  0  0  0  0  0  0  0  0  0  0  0
   14.4198   -2.3201   46.8836 C   0  0  0  0  0  0  0  0  0  0  0  0
  1  2  1  0
  2  3  2  0
  3  4  1  0
  1  5  2  0
  4  5  1  0
  3  6  1  0
  4  7  2  0
  6  8  1  0
  8  9  1  0
  7 10  1  0
  9 11  1  0
  5 12  1  0
  7 13  1  0
  8 13  2  0
 10 14  1  0
 12 15  1  0
 12 16  2  0
 14 17  1  0
 15 18  1  0
 13 19  1  0
 16 20  1  0
 18 20  2  0
 11 21  1  0
 19 21  2  0
 21 22  1  0
 11 23  2  0
 14 24  2  0
 24 25  1  0
 17 26  1  0
 25 26  2  0
 17 27  1  0
 15 28  1  6
 27 28  1  0
 19 29  1  0
 24 29  1  0
 22 30  1  6
 30 31  2  0
 22 32  1  0
 29 32  1  1
 30 33  1  0
 27 34  1  1
 33 35  1  0
 35 36  2  0
 35 37  1  0
 37 38  1  0
 38 39  1  6
 37 40  2  0
 36 41  1  0
 41 42  1  0
 38 43  1  0
 42 44  2  0
 42 45  1  0
 40 46  1  0
 41 46  2  0
M  END
$$$$
O14757_Pocket2Mol_idx-in-all-generaetd-197
     RDKit          3D

 47 53  0  0  0  0  0  0  0  0999 V2000
    5.3420    0.2589   42.8836 O   0  0  0  0  0  0  0  0  0  0  0  0
    5.1627   -0.7554   43.4753 C   0  0  0  0  0  0  0  0  0  0  0  0
    4.0509   -1.4657   43.4177 N   0  0  0  0  0  0  0  0  0  0  0  0
    5.9969   -1.2317   44.6840 C   0  0  0  0  0  0  0  0  0  0  0  0
    2.9618   -1.1021   42.5918 C   0  0  1  0  0  0  0  0  0  0  0  0
    7.3392   -0.8596   44.8412 C   0  0  0  0  0  0  0  0  0  0  0  0
    1.9754   -2.0820   42.2741 C   0  0  0  0  0  0  0  0  0  0  0  0
    5.5910   -2.4282   45.3439 C   0  0  0  0  0  0  0  0  0  0  0  0
    6.5874   -2.9636   46.1581 C   0  0  0  0  0  0  0  0  0  0  0  0
    4.2763   -3.0680   45.0493 N   0  0  0  0  0  0  0  0  0  0  0  0
    3.6188   -2.5886   44.2024 C   0  0  0  0  0  0  0  0  0  0  0  0
    8.1921   -1.4071   45.7505 C   0  0  0  0  0  0  0  0  0  0  0  0
    1.0154   -1.8839   41.2980 C   0  0  0  0  0  0  0  0  0  0  0  0
    2.5720   -3.3564   43.9063 C   0  0  0  0  0  0  0  0  0  0  0  0
    0.2502   -2.8976   41.0751 C   0  0  0  0  0  0  0  0  0  0  0  0
    6.1761   -4.1775   47.0209 C   0  0  0  0  0  0  0  0  0  0  0  0
    1.7266   -3.1047   43.0115 C   0  0  2  0  0  0  0  0  0  0  0  0
    2.3696   -4.5367   44.7536 N   0  0  0  0  0  0  0  0  0  0  0  0
    1.2264   -5.2346   44.4693 C   0  0  0  0  0  0  0  0  0  0  0  0
    0.7187   -3.8955   42.5465 C   0  0  0  0  0  0  0  0  0  0  0  0
    9.4576   -0.8949   46.0327 N   0  0  0  0  0  0  0  0  0  0  0  0
    0.8625   -6.3901   45.2462 C   0  0  0  0  0  0  0  0  0  0  0  0
    7.6467   -2.5139   46.4892 C   0  0  0  0  0  0  0  0  0  0  0  0
   10.4908   -1.5336   45.8242 C   0  0  0  0  0  0  0  0  0  0  0  0
    0.3057   -4.9299   43.2909 C   0  0  0  0  0  0  0  0  0  0  0  0
   11.5916   -1.4291   46.7436 C   0  0  0  0  0  0  0  0  0  0  0  0
   10.5566   -2.3672   44.8649 O   0  0  0  0  0  0  0  0  0  0  0  0
    2.4730    0.2084   42.8389 O   0  0  0  0  0  0  0  0  0  0  0  0
   11.6027   -2.2081   47.7725 N   0  0  0  0  0  0  0  0  0  0  0  0
   12.6189   -0.5862   46.5415 C   0  0  0  0  0  0  0  0  0  0  0  0
   13.6413   -0.4484   47.4129 C   0  0  0  0  0  0  0  0  0  0  0  0
   10.4764   -3.1097   48.1134 C   0  0  0  0  0  0  0  0  0  0  0  0
    9.5762   -2.4717   49.0753 C   0  0  0  0  0  0  0  0  0  0  0  0
    9.7761   -1.2394   49.5167 C   0  0  0  0  0  0  0  0  0  0  0  0
    8.6397   -3.3252   49.7339 C   0  0  0  0  0  0  0  0  0  0  0  0
    8.9861   -0.7034   50.5819 C   0  0  0  0  0  0  0  0  0  0  0  0
   14.7137    0.5128   47.0925 C   0  0  0  0  0  0  0  0  0  0  0  0
    8.1815   -1.5423   51.2387 C   0  0  0  0  0  0  0  0  0  0  0  0
    8.4156   -4.7176   49.2102 O   0  0  0  0  0  0  0  0  0  0  0  0
   13.6915   -1.2597   48.4795 C   0  0  0  0  0  0  0  0  0  0  0  0
   14.7842   -1.1839   49.3622 C   0  0  0  0  0  0  0  0  0  0  0  0
   12.5774   -2.1710   48.6835 C   0  0  0  0  0  0  0  0  0  0  0  0
   14.8423   -1.9939   50.5370 O   0  0  0  0  0  0  0  0  0  0  0  0
    7.9254   -2.8787   50.8112 C   0  0  0  0  0  0  0  0  0  0  0  0
   14.6734    1.3692   45.9797 O   0  0  0  0  0  0  0  0  0  0  0  0
   15.7515    0.5735   47.7680 O   0  0  0  0  0  0  0  0  0  0  0  0
    8.0726   -5.6138   49.9620 C   0  0  0  0  0  0  0  0  0  0  0  0
  1  2  2  0
  2  3  1  0
  2  4  1  0
  3  5  1  0
  4  6  2  0
  5  7  1  0
  4  8  1  0
  8  9  2  0
  8 10  1  0
  3 11  1  0
 10 11  2  0
  6 12  1  0
  7 13  2  0
 11 14  1  0
 13 15  1  0
  9 16  1  0
 17  7  1  6
 14 17  1  0
 14 18  2  0
 18 19  1  0
 15 20  2  0
 17 20  1  0
 12 21  1  0
 19 22  1  0
  9 23  1  0
 12 23  2  0
 21 24  1  0
 19 25  2  0
 20 25  1  0
 24 26  1  0
 24 27  2  0
  5 28  1  1
 26 29  1  0
 26 30  2  0
 30 31  1  0
 29 32  1  0
 32 33  1  0
 33 34  2  0
 33 35  1  0
 34 36  1  0
 31 37  1  0
 36 38  2  0
 35 39  1  0
 31 40  2  0
 40 41  1  0
 29 42  1  0
 40 42  1  0
 41 43  1  0
 35 44  2  0
 38 44  1  0
 37 45  1  0
 37 46  2  0
 39 47  1  0
M  END
$$$$
O14757_Pocket2Mol_idx-in-all-generaetd-198
     RDKit          3D

 25 28  0  0  0  0  0  0  0  0999 V2000
    0.3497   -2.5592   41.5321 C   0  0  0  0  0  0  0  0  0  0  0  0
    0.7059   -1.3065   41.4152 C   0  0  0  0  0  0  0  0  0  0  0  0
    2.0121   -0.9206   42.0074 C   0  0  0  0  0  0  0  0  0  0  0  0
    2.8273   -1.8583   42.7096 C   0  0  0  0  0  0  0  0  0  0  0  0
   -0.9158   -2.9896   41.0259 O   0  0  0  0  0  0  0  0  0  0  0  0
    2.1785   -3.2182   42.8202 C   0  0  0  0  0  0  0  0  0  0  0  0
    2.9957   -4.0364   43.6549 N   0  0  0  0  0  0  0  0  0  0  0  0
    1.0381   -3.5102   42.3147 C   0  0  0  0  0  0  0  0  0  0  0  0
    4.0501   -1.4436   43.3296 C   0  0  0  0  0  0  0  0  0  0  0  0
    4.2345   -3.7127   44.1966 C   0  0  0  0  0  0  0  0  0  0  0  0
    4.9099   -4.6363   45.0387 N   0  0  0  0  0  0  0  0  0  0  0  0
    4.7563   -2.4299   44.0678 C   0  0  0  0  0  0  0  0  0  0  0  0
    6.0306   -2.0532   44.6670 C   0  0  0  0  0  0  0  0  0  0  0  0
    4.6111   -0.1656   43.0716 N   0  0  0  0  0  0  0  0  0  0  0  0
    6.7834   -2.7598   45.5925 N   0  0  0  0  0  0  0  0  0  0  0  0
    8.0062   -2.3962   46.0654 C   0  0  1  0  0  0  0  0  0  0  0  0
    8.3845   -1.1262   46.4117 C   0  0  0  0  0  0  0  0  0  0  0  0
    6.3026   -0.6817   44.5619 N   0  0  0  0  0  0  0  0  0  0  0  0
    9.7158   -1.1202   46.5501 C   0  0  0  0  0  0  0  0  0  0  0  0
    8.4022   -3.1552   47.2051 C   0  0  0  0  0  0  0  0  0  0  0  0
   -2.1369   -2.6089   41.5214 C   0  0  0  0  0  0  0  0  0  0  0  0
    5.5171    0.0680   43.6112 N   0  0  0  0  0  0  0  0  0  0  0  0
   10.1524   -1.8516   47.7195 C   0  0  0  0  0  0  0  0  0  0  0  0
    9.7575   -3.2114   47.5641 N   0  0  0  0  0  0  0  0  0  0  0  0
   10.0843   -4.0593   48.7476 C   0  0  0  0  0  0  0  0  0  0  0  0
  1  2  2  0
  2  3  1  0
  3  4  2  0
  1  5  1  0
  4  6  1  0
  6  7  1  0
  1  8  1  0
  6  8  2  0
  4  9  1  0
  7 10  2  0
 10 11  1  0
  9 12  2  0
 10 12  1  0
 12 13  1  0
  9 14  1  0
 13 15  1  0
 16 15  1  1
 16 17  1  0
 13 18  2  0
 17 19  1  0
 16 20  1  0
  5 21  1  0
 14 22  2  0
 18 22  1  0
 19 23  1  0
 20 24  1  0
 23 24  1  0
 24 25  1  0
M  END
$$$$
O14757_Pocket2Mol_idx-in-all-generaetd-199
     RDKit          3D

 34 39  0  0  0  0  0  0  0  0999 V2000
    4.5156    0.0550   42.9895 N   0  0  0  0  0  0  0  0  0  0  0  0
    5.0618   -0.8645   43.5295 C   0  0  0  0  0  0  0  0  0  0  0  0
    4.4350   -2.0604   43.7783 C   0  0  0  0  0  0  0  0  0  0  0  0
    4.9987   -3.0994   44.5839 C   0  0  0  0  0  0  0  0  0  0  0  0
    3.2714   -1.8664   43.0632 C   0  0  0  0  0  0  0  0  0  0  0  0
    6.4064   -0.5942   44.3204 N   0  0  0  0  0  0  0  0  0  0  0  0
    4.3422   -4.3256   44.7203 C   0  0  0  0  0  0  0  0  0  0  0  0
    2.1845   -2.6668   42.8270 N   0  0  0  0  0  0  0  0  0  0  0  0
    3.3305   -0.5395   42.5465 N   0  0  0  0  0  0  0  0  0  0  0  0
    1.9502   -3.8972   43.4076 C   0  0  0  0  0  0  0  0  0  0  0  0
    2.7156   -4.1184   44.6954 N   0  0  0  0  0  0  0  0  0  0  0  0
    6.8581   -1.5862   45.1101 C   0  0  0  0  0  0  0  0  0  0  0  0
    6.1801   -2.8430   45.2383 C   0  0  0  0  0  0  0  0  0  0  0  0
    2.1454   -5.1901   45.5771 C   0  0  0  0  0  0  0  0  0  0  0  0
    8.0137   -1.3946   45.8526 C   0  0  0  0  0  0  0  0  0  0  0  0
    0.9733   -4.5725   43.2066 O   0  0  0  0  0  0  0  0  0  0  0  0
    2.2437    0.0035   41.8733 C   0  0  0  0  0  0  0  0  0  0  0  0
    1.3210   -2.2077   41.7009 C   0  0  0  0  0  0  0  0  0  0  0  0
    8.6047   -2.2876   46.6923 C   0  0  0  0  0  0  0  0  0  0  0  0
    7.9141   -3.5157   46.8869 C   0  0  0  0  0  0  0  0  0  0  0  0
    1.0501   -0.8658   41.6612 C   0  0  0  0  0  0  0  0  0  0  0  0
    6.7278   -3.7718   46.2525 C   0  0  0  0  0  0  0  0  0  0  0  0
    9.8280   -2.0492   47.3361 C   0  0  0  0  0  0  0  0  0  0  0  0
    9.8262   -1.5735   48.5432 C   0  0  0  0  0  0  0  0  0  0  0  0
   11.0745   -2.0905   46.6735 C   0  0  0  0  0  0  0  0  0  0  0  0
    8.5798   -1.4294   49.3788 F   0  0  0  0  0  0  0  0  0  0  0  0
   10.9035   -1.3906   49.1995 C   0  0  0  0  0  0  0  0  0  0  0  0
   11.1251   -2.4931   45.1635 C   0  0  0  0  0  0  0  0  0  0  0  0
   11.3408   -3.5669   44.8995 O   0  0  0  0  0  0  0  0  0  0  0  0
   11.6636   -1.4942   44.3589 O   0  0  0  0  0  0  0  0  0  0  0  0
   12.1564   -1.9068   47.2200 C   0  0  0  0  0  0  0  0  0  0  0  0
   10.9291   -1.0003   50.6520 F   0  0  0  0  0  0  0  0  0  0  0  0
   13.4421   -1.9819   46.6102 N   0  0  0  0  0  0  0  0  0  0  0  0
   12.3229   -1.4802   48.6936 C   0  0  0  0  0  0  0  0  0  0  0  0
  1  2  2  0
  2  3  1  0
  3  4  1  0
  3  5  2  0
  2  6  1  0
  4  7  1  0
  5  8  1  0
  1  9  1  0
  5  9  1  0
  8 10  1  0
  7 11  1  0
 10 11  1  0
  6 12  2  0
  4 13  2  0
 12 13  1  0
 11 14  1  0
 12 15  1  0
 10 16  2  0
  9 17  1  0
  8 18  1  0
 15 19  2  0
 19 20  1  0
 17 21  1  0
 18 21  1  0
 13 22  1  0
 20 22  2  0
 19 23  1  0
 23 24  2  0
 23 25  1  0
 24 26  1  0
 24 27  1  0
 25 28  1  0
 28 29  2  0
 28 30  1  0
 25 31  2  0
 27 32  1  0
 31 33  1  0
 27 34  2  0
 31 34  1  0
M  END
$$$$
O14757_Pocket2Mol_idx-in-all-generaetd-200
     RDKit          3D

 18 20  0  0  0  0  0  0  0  0999 V2000
    2.2608    0.0351   42.1039 C   0  0  0  0  0  0  0  0  0  0  0  0
    1.4980   -0.9572   42.0345 C   0  0  0  0  0  0  0  0  0  0  0  0
    3.5747   -0.0702   42.6477 C   0  0  0  0  0  0  0  0  0  0  0  0
    3.9780   -1.3418   43.1620 C   0  0  0  0  0  0  0  0  0  0  0  0
    5.2775   -1.4864   43.7802 C   0  0  0  0  0  0  0  0  0  0  0  0
    6.3540   -0.7925   43.4595 C   0  0  0  0  0  0  0  0  0  0  0  0
    5.4751   -2.6895   44.5651 C   0  0  0  0  0  0  0  0  0  0  0  0
    1.7957   -2.2635   42.5235 C   0  0  0  0  0  0  0  0  0  0  0  0
    6.8016   -2.4725   45.1596 C   0  0  0  0  0  0  0  0  0  0  0  0
    7.4959   -3.2833   46.0723 C   0  0  0  0  0  0  0  0  0  0  0  0
    6.9752   -3.9641   46.9141 O   0  0  0  0  0  0  0  0  0  0  0  0
    7.2523   -1.2075   44.6709 N   0  0  0  0  0  0  0  0  0  0  0  0
    3.0226   -2.4402   43.1255 C   0  0  0  0  0  0  0  0  0  0  0  0
    0.8064   -3.2435   42.4152 N   0  0  0  0  0  0  0  0  0  0  0  0
    0.0522   -3.3012   41.3779 C   0  0  0  0  0  0  0  0  0  0  0  0
    8.8200   -3.1333   46.1497 O   0  0  0  0  0  0  0  0  0  0  0  0
   -0.5449   -2.1281   40.9125 C   0  0  0  0  0  0  0  0  0  0  0  0
    0.2968   -0.9539   41.1859 C   0  0  0  0  0  0  0  0  0  0  0  0
  1  2  2  0
  1  3  1  0
  3  4  2  0
  4  5  1  0
  5  6  2  0
  5  7  1  0
  2  8  1  0
  7  9  2  0
  9 10  1  0
 10 11  1  0
  6 12  1  0
  9 12  1  0
  4 13  1  0
  8 13  2  0
  8 14  1  0
 14 15  2  0
 10 16  2  0
 15 17  1  0
  2 18  1  0
 17 18  2  0
M  END
$$$$
O14757_Pocket2Mol_idx-in-all-generaetd-201
     RDKit          3D

 50 57  0  0  0  0  0  0  0  0999 V2000
    5.3420    0.2589   42.8836 O   0  0  0  0  0  0  0  0  0  0  0  0
    5.1627   -0.7554   43.4753 C   0  0  0  0  0  0  0  0  0  0  0  0
    4.0509   -1.4657   43.4177 N   0  0  0  0  0  0  0  0  0  0  0  0
    5.9969   -1.2317   44.6840 C   0  0  0  0  0  0  0  0  0  0  0  0
    2.9618   -1.1021   42.5918 C   0  0  1  0  0  0  0  0  0  0  0  0
    7.3392   -0.8596   44.8412 C   0  0  0  0  0  0  0  0  0  0  0  0
    1.9754   -2.0820   42.2741 C   0  0  0  0  0  0  0  0  0  0  0  0
    5.5910   -2.4282   45.3439 C   0  0  0  0  0  0  0  0  0  0  0  0
    6.5874   -2.9636   46.1581 C   0  0  0  0  0  0  0  0  0  0  0  0
    4.2763   -3.0680   45.0493 N   0  0  0  0  0  0  0  0  0  0  0  0
    3.6188   -2.5886   44.2024 C   0  0  0  0  0  0  0  0  0  0  0  0
    8.1921   -1.4071   45.7505 C   0  0  0  0  0  0  0  0  0  0  0  0
    1.0154   -1.8839   41.2980 C   0  0  0  0  0  0  0  0  0  0  0  0
    2.5720   -3.3564   43.9063 C   0  0  0  0  0  0  0  0  0  0  0  0
    0.2502   -2.8976   41.0751 C   0  0  0  0  0  0  0  0  0  0  0  0
    6.1761   -4.1775   47.0209 C   0  0  0  0  0  0  0  0  0  0  0  0
    1.7266   -3.1047   43.0115 C   0  0  2  0  0  0  0  0  0  0  0  0
    2.3696   -4.5367   44.7536 N   0  0  0  0  0  0  0  0  0  0  0  0
    1.2264   -5.2346   44.4693 C   0  0  0  0  0  0  0  0  0  0  0  0
    0.7187   -3.8955   42.5465 C   0  0  0  0  0  0  0  0  0  0  0  0
    9.4576   -0.8949   46.0327 N   0  0  0  0  0  0  0  0  0  0  0  0
    0.8625   -6.3901   45.2462 C   0  0  0  0  0  0  0  0  0  0  0  0
    7.6467   -2.5139   46.4892 C   0  0  0  0  0  0  0  0  0  0  0  0
   10.4908   -1.5336   45.8242 C   0  0  0  0  0  0  0  0  0  0  0  0
    0.3057   -4.9299   43.2909 C   0  0  0  0  0  0  0  0  0  0  0  0
   11.5916   -1.4291   46.7436 C   0  0  0  0  0  0  0  0  0  0  0  0
   10.5566   -2.3672   44.8649 O   0  0  0  0  0  0  0  0  0  0  0  0
   12.8421   -1.9355   46.2823 C   0  0  0  0  0  0  0  0  0  0  0  0
   13.4833   -2.8582   46.9841 C   0  0  0  0  0  0  0  0  0  0  0  0
   11.4002   -1.1447   48.0540 C   0  0  0  0  0  0  0  0  0  0  0  0
   10.2867   -0.4569   48.4999 O   0  0  0  0  0  0  0  0  0  0  0  0
   12.3327   -1.4798   48.9564 C   0  0  1  0  0  0  0  0  0  0  0  0
   14.7901   -3.3162   46.6439 C   0  0  0  0  0  0  0  0  0  0  0  0
   12.1651   -1.3050   50.3239 O   0  0  0  0  0  0  0  0  0  0  0  0
   15.6765   -2.5740   46.0979 C   0  0  0  0  0  0  0  0  0  0  0  0
    2.4608    0.2106   42.8512 C   0  0  0  0  0  0  0  0  0  0  0  0
   15.5213   -1.2590   45.7606 C   0  0  0  0  0  0  0  0  0  0  0  0
   14.5349   -0.8899   44.8574 C   0  0  0  0  0  0  0  0  0  0  0  0
   12.9775   -3.3460   48.2127 C   0  0  0  0  0  0  0  0  0  0  0  0
   14.7129   -0.1943   43.8652 C   0  0  0  0  0  0  0  0  0  0  0  0
   13.1163   -1.3789   45.0490 O   0  0  0  0  0  0  0  0  0  0  0  0
   16.0442    0.3600   43.7609 C   0  0  0  0  0  0  0  0  0  0  0  0
   16.1715    1.3518   42.5787 C   0  0  0  0  0  0  0  0  0  0  0  0
   12.7697   -2.7291   49.2346 C   0  0  0  0  0  0  0  0  0  0  0  0
   15.1549    1.8289   42.1413 C   0  0  0  0  0  0  0  0  0  0  0  0
   16.7830    0.0276   44.6760 C   0  0  0  0  0  0  0  0  0  0  0  0
   18.2385    0.7683   44.5811 O   0  0  0  0  0  0  0  0  0  0  0  0
   15.3607    2.8803   41.0921 C   0  0  0  0  0  0  0  0  0  0  0  0
   16.8133   -0.7458   45.6481 C   0  0  0  0  0  0  0  0  0  0  0  0
   12.1351   -3.2742   50.2694 O   0  0  0  0  0  0  0  0  0  0  0  0
  1  2  2  0
  2  3  1  0
  2  4  1  0
  3  5  1  0
  4  6  2  0
  5  7  1  0
  4  8  1  0
  8  9  2  0
  8 10  1  0
  3 11  1  0
 10 11  2  0
  6 12  1  0
  7 13  2  0
 11 14  1  0
 13 15  1  0
  9 16  1  0
 17  7  1  6
 14 17  1  0
 14 18  2  0
 18 19  1  0
 15 20  2  0
 17 20  1  0
 12 21  1  0
 19 22  1  0
  9 23  1  0
 12 23  2  0
 21 24  1  0
 19 25  2  0
 20 25  1  0
 24 26  1  0
 24 27  2  0
 26 28  1  0
 28 29  2  0
 26 30  2  0
 30 31  1  0
 30 32  1  0
 29 33  1  0
 32 34  1  1
 33 35  2  0
  5 36  1  1
 35 37  1  0
 37 38  2  0
 29 39  1  0
 38 40  1  0
 28 41  1  0
 38 41  1  0
 40 42  2  0
 42 43  1  0
 32 44  1  0
 39 44  1  0
 43 45  2  3
 42 46  1  0
 46 47  1  0
 45 48  1  0
 37 49  1  0
 46 49  2  0
 44 50  2  0
M  END
$$$$
O14757_Pocket2Mol_idx-in-all-generaetd-202
     RDKit          3D

 41 47  0  0  0  0  0  0  0  0999 V2000
    5.3420    0.2589   42.8836 O   0  0  0  0  0  0  0  0  0  0  0  0
    5.1627   -0.7554   43.4753 C   0  0  0  0  0  0  0  0  0  0  0  0
    4.0509   -1.4657   43.4177 N   0  0  0  0  0  0  0  0  0  0  0  0
    5.9969   -1.2317   44.6840 C   0  0  0  0  0  0  0  0  0  0  0  0
    2.9618   -1.1021   42.5918 C   0  0  1  0  0  0  0  0  0  0  0  0
    7.3392   -0.8596   44.8412 C   0  0  0  0  0  0  0  0  0  0  0  0
    1.9754   -2.0820   42.2741 C   0  0  0  0  0  0  0  0  0  0  0  0
    5.5910   -2.4282   45.3439 C   0  0  0  0  0  0  0  0  0  0  0  0
    6.5874   -2.9636   46.1581 C   0  0  0  0  0  0  0  0  0  0  0  0
    4.2763   -3.0680   45.0493 N   0  0  0  0  0  0  0  0  0  0  0  0
    3.6188   -2.5886   44.2024 C   0  0  0  0  0  0  0  0  0  0  0  0
    8.1921   -1.4071   45.7505 C   0  0  0  0  0  0  0  0  0  0  0  0
    1.0154   -1.8839   41.2980 C   0  0  0  0  0  0  0  0  0  0  0  0
    2.5720   -3.3564   43.9063 C   0  0  0  0  0  0  0  0  0  0  0  0
    0.2502   -2.8976   41.0751 C   0  0  0  0  0  0  0  0  0  0  0  0
    6.1761   -4.1775   47.0209 C   0  0  0  0  0  0  0  0  0  0  0  0
    1.7266   -3.1047   43.0115 C   0  0  2  0  0  0  0  0  0  0  0  0
    2.3696   -4.5367   44.7536 N   0  0  0  0  0  0  0  0  0  0  0  0
    1.2264   -5.2346   44.4693 C   0  0  0  0  0  0  0  0  0  0  0  0
    0.7187   -3.8955   42.5465 C   0  0  0  0  0  0  0  0  0  0  0  0
    9.4576   -0.8949   46.0327 N   0  0  0  0  0  0  0  0  0  0  0  0
    0.8625   -6.3901   45.2462 C   0  0  0  0  0  0  0  0  0  0  0  0
    7.6467   -2.5139   46.4892 C   0  0  0  0  0  0  0  0  0  0  0  0
   10.4908   -1.5336   45.8242 C   0  0  0  0  0  0  0  0  0  0  0  0
    0.3057   -4.9299   43.2909 C   0  0  0  0  0  0  0  0  0  0  0  0
   11.5916   -1.4291   46.7436 C   0  0  0  0  0  0  0  0  0  0  0  0
   10.5566   -2.3672   44.8649 O   0  0  0  0  0  0  0  0  0  0  0  0
    2.4730    0.2084   42.8389 O   0  0  0  0  0  0  0  0  0  0  0  0
   11.6027   -2.2081   47.7725 N   0  0  0  0  0  0  0  0  0  0  0  0
   12.6189   -0.5862   46.5415 C   0  0  0  0  0  0  0  0  0  0  0  0
   13.6413   -0.4484   47.4129 C   0  0  0  0  0  0  0  0  0  0  0  0
   10.4764   -3.1097   48.1134 C   0  0  0  0  0  0  0  0  0  0  0  0
    9.5762   -2.4717   49.0753 C   0  0  0  0  0  0  0  0  0  0  0  0
    9.7761   -1.2394   49.5167 C   0  0  0  0  0  0  0  0  0  0  0  0
    8.6397   -3.3252   49.7339 C   0  0  0  0  0  0  0  0  0  0  0  0
    8.9861   -0.7034   50.5819 C   0  0  0  0  0  0  0  0  0  0  0  0
   12.7628   -2.0677   48.3467 C   0  0  0  0  0  0  0  0  0  0  0  0
    7.9358   -2.7396   50.7350 C   0  0  0  0  0  0  0  0  0  0  0  0
    8.2255   -1.3976   51.1817 C   0  0  0  0  0  0  0  0  0  0  0  0
   14.6427    0.5279   47.1222 O   0  0  0  0  0  0  0  0  0  0  0  0
   13.7374   -1.3137   48.3376 N   0  0  0  0  0  0  0  0  0  0  0  0
  1  2  2  0
  2  3  1  0
  2  4  1  0
  3  5  1  0
  4  6  2  0
  5  7  1  0
  4  8  1  0
  8  9  2  0
  8 10  1  0
  3 11  1  0
 10 11  2  0
  6 12  1  0
  7 13  2  0
 11 14  1  0
 13 15  1  0
  9 16  1  0
 17  7  1  6
 14 17  1  0
 14 18  2  0
 18 19  1  0
 15 20  2  0
 17 20  1  0
 12 21  1  0
 19 22  1  0
  9 23  1  0
 12 23  2  0
 21 24  1  0
 19 25  2  0
 20 25  1  0
 24 26  1  0
 24 27  2  0
  5 28  1  1
 26 29  1  0
 26 30  2  0
 30 31  1  0
 29 32  1  0
 32 33  1  0
 33 34  2  0
 33 35  1  0
 34 36  1  0
 29 37  1  0
 35 38  2  0
 36 39  2  0
 38 39  1  0
 31 40  1  0
 31 41  2  0
 37 41  1  0
M  END
$$$$
O14757_Pocket2Mol_idx-in-all-generaetd-203
     RDKit          3D

 41 47  0  0  0  0  0  0  0  0999 V2000
    1.5482   -0.3111   41.9233 C   0  0  0  0  0  0  0  0  0  0  0  0
    2.7284    0.2018   42.1525 N   0  0  0  0  0  0  0  0  0  0  0  0
    3.7893   -0.3016   42.7005 C   0  0  0  0  0  0  0  0  0  0  0  0
    3.3781   -1.7350   43.0000 C   0  0  0  0  0  0  0  0  0  0  0  0
    2.0339   -1.9619   42.6217 C   0  0  0  0  0  0  0  0  0  0  0  0
    4.1166   -2.4997   43.8458 C   0  0  0  0  0  0  0  0  0  0  0  0
    1.1731   -3.0051   42.5773 C   0  0  0  0  0  0  0  0  0  0  0  0
    0.4701   -3.2344   41.4901 C   0  0  0  0  0  0  0  0  0  0  0  0
    5.3799   -1.7814   44.2691 C   0  0  0  0  0  0  0  0  0  0  0  0
    5.0159   -0.0180   43.1201 N   0  0  0  0  0  0  0  0  0  0  0  0
    5.7693   -0.6937   43.8418 C   0  0  0  0  0  0  0  0  0  0  0  0
    0.8078   -3.6166   43.6782 C   0  0  0  0  0  0  0  0  0  0  0  0
    0.0663   -4.7011   43.7415 N   0  0  0  0  0  0  0  0  0  0  0  0
    6.2223   -2.6843   45.1565 C   0  0  0  0  0  0  0  0  0  0  0  0
    6.9599   -0.2351   44.2608 N   0  0  0  0  0  0  0  0  0  0  0  0
    5.9065   -3.9037   45.7499 N   0  0  0  0  0  0  0  0  0  0  0  0
   -0.5459   -5.1185   42.5870 C   0  0  0  0  0  0  0  0  0  0  0  0
    5.7480   -4.0340   46.9810 C   0  0  0  0  0  0  0  0  0  0  0  0
    7.4448   -1.8511   45.4198 C   0  0  0  0  0  0  0  0  0  0  0  0
    7.7572   -0.7827   45.0128 C   0  0  0  0  0  0  0  0  0  0  0  0
    8.4076   -2.7217   46.4541 C   0  0  0  0  0  0  0  0  0  0  0  0
    9.3167   -2.0988   47.1049 N   0  0  0  0  0  0  0  0  0  0  0  0
   -0.4719   -4.3893   41.5406 C   0  0  0  0  0  0  0  0  0  0  0  0
    8.3667   -4.0284   46.5743 N   0  0  0  0  0  0  0  0  0  0  0  0
   10.1532   -2.5726   47.9567 C   0  0  0  0  0  0  0  0  0  0  0  0
   11.0726   -1.7892   48.6998 C   0  0  0  0  0  0  0  0  0  0  0  0
   10.4886   -0.9372   49.4584 C   0  0  0  0  0  0  0  0  0  0  0  0
    8.9772   -4.5617   47.6013 C   0  0  0  0  0  0  0  0  0  0  0  0
    9.9765   -3.9922   48.2636 C   0  0  0  0  0  0  0  0  0  0  0  0
   11.3393   -0.1462   50.3539 C   0  0  0  0  0  0  0  0  0  0  0  0
   12.4892   -1.8956   48.4941 C   0  0  0  0  0  0  0  0  0  0  0  0
   12.8930   -0.3809   50.0834 C   0  0  0  0  0  0  0  0  0  0  0  0
   12.9994   -2.9244   47.4139 C   0  0  0  0  0  0  0  0  0  0  0  0
   13.2970   -1.1961   49.2206 C   0  0  0  0  0  0  0  0  0  0  0  0
   13.2177   -2.3404   46.2068 C   0  0  0  0  0  0  0  0  0  0  0  0
   12.1720   -2.0514   45.4055 C   0  0  0  0  0  0  0  0  0  0  0  0
   12.1419   -1.6326   44.2332 C   0  0  0  0  0  0  0  0  0  0  0  0
   13.3863   -1.4013   43.5952 C   0  0  0  0  0  0  0  0  0  0  0  0
   14.5169   -2.2074   45.4849 C   0  0  0  0  0  0  0  0  0  0  0  0
   15.6628   -2.6008   46.2095 O   0  0  0  0  0  0  0  0  0  0  0  0
   14.5889   -1.7202   44.3351 C   0  0  0  0  0  0  0  0  0  0  0  0
  1  2  1  0
  2  3  2  0
  3  4  1  0
  1  5  2  0
  4  5  1  0
  4  6  2  0
  5  7  1  0
  7  8  2  0
  6  9  1  0
  3 10  1  0
  9 11  2  0
 10 11  1  0
  7 12  1  0
 12 13  2  0
  9 14  1  0
 11 15  1  0
 14 16  1  0
 13 17  1  0
 16 18  1  0
 14 19  2  0
 15 20  2  0
 19 20  1  0
 19 21  1  0
 21 22  2  0
  8 23  1  0
 17 23  2  0
 21 24  1  0
 22 25  1  0
 25 26  1  0
 26 27  2  0
 24 28  2  0
 25 29  2  0
 28 29  1  0
 27 30  1  0
 26 31  1  0
 30 32  2  0
 31 33  1  0
 31 34  2  0
 32 34  1  0
 33 35  1  0
 35 36  2  0
 36 37  1  0
 37 38  2  0
 35 39  1  0
 39 40  1  0
 38 41  1  0
 39 41  2  0
M  END
$$$$
O14757_Pocket2Mol_idx-in-all-generaetd-204
     RDKit          3D

 36 41  0  0  0  0  0  0  0  0999 V2000
    4.5156    0.0550   42.9895 N   0  0  0  0  0  0  0  0  0  0  0  0
    5.0618   -0.8645   43.5295 C   0  0  0  0  0  0  0  0  0  0  0  0
    4.4350   -2.0604   43.7783 C   0  0  0  0  0  0  0  0  0  0  0  0
    4.9987   -3.0994   44.5839 C   0  0  0  0  0  0  0  0  0  0  0  0
    3.2714   -1.8664   43.0632 C   0  0  0  0  0  0  0  0  0  0  0  0
    6.4064   -0.5942   44.3204 N   0  0  0  0  0  0  0  0  0  0  0  0
    4.3422   -4.3256   44.7203 C   0  0  0  0  0  0  0  0  0  0  0  0
    2.1845   -2.6668   42.8270 N   0  0  0  0  0  0  0  0  0  0  0  0
    3.3305   -0.5395   42.5465 N   0  0  0  0  0  0  0  0  0  0  0  0
    1.9502   -3.8972   43.4076 C   0  0  0  0  0  0  0  0  0  0  0  0
    2.7156   -4.1184   44.6954 N   0  0  0  0  0  0  0  0  0  0  0  0
    6.8581   -1.5862   45.1101 C   0  0  0  0  0  0  0  0  0  0  0  0
    6.1801   -2.8430   45.2383 C   0  0  0  0  0  0  0  0  0  0  0  0
    2.1454   -5.1901   45.5771 C   0  0  0  0  0  0  0  0  0  0  0  0
    8.0137   -1.3946   45.8526 C   0  0  0  0  0  0  0  0  0  0  0  0
    0.9733   -4.5725   43.2066 O   0  0  0  0  0  0  0  0  0  0  0  0
    2.2437    0.0035   41.8733 C   0  0  0  0  0  0  0  0  0  0  0  0
    1.3210   -2.2077   41.7009 C   0  0  0  0  0  0  0  0  0  0  0  0
    8.6047   -2.2876   46.6923 C   0  0  0  0  0  0  0  0  0  0  0  0
    7.9141   -3.5157   46.8869 C   0  0  0  0  0  0  0  0  0  0  0  0
    1.0501   -0.8658   41.6612 C   0  0  0  0  0  0  0  0  0  0  0  0
    6.7278   -3.7718   46.2525 C   0  0  0  0  0  0  0  0  0  0  0  0
    9.8280   -2.0492   47.3361 C   0  0  0  0  0  0  0  0  0  0  0  0
    9.8262   -1.5735   48.5432 C   0  0  0  0  0  0  0  0  0  0  0  0
   11.0745   -2.0905   46.6735 C   0  0  0  0  0  0  0  0  0  0  0  0
   11.1189   -2.5101   45.2315 C   0  0  0  0  0  0  0  0  0  0  0  0
    8.6548   -1.3952   49.4178 O   0  0  0  0  0  0  0  0  0  0  0  0
   12.2483   -1.7792   47.2003 C   0  0  0  0  0  0  0  0  0  0  0  0
   11.0576   -1.2774   49.2428 C   0  0  0  0  0  0  0  0  0  0  0  0
   11.5052   -1.6078   44.3227 O   0  0  0  0  0  0  0  0  0  0  0  0
   10.9493   -3.6982   44.9005 O   0  0  0  0  0  0  0  0  0  0  0  0
   13.5057   -1.8952   46.5329 C   0  0  0  0  0  0  0  0  0  0  0  0
   14.3410   -2.8441   46.8624 O   0  0  0  0  0  0  0  0  0  0  0  0
   13.9295   -1.0418   45.6493 O   0  0  0  0  0  0  0  0  0  0  0  0
   11.0827   -0.8693   50.6460 O   0  0  0  0  0  0  0  0  0  0  0  0
   12.2684   -1.4004   48.5945 C   0  0  0  0  0  0  0  0  0  0  0  0
  1  2  2  0
  2  3  1  0
  3  4  1  0
  3  5  2  0
  2  6  1  0
  4  7  1  0
  5  8  1  0
  1  9  1  0
  5  9  1  0
  8 10  1  0
  7 11  1  0
 10 11  1  0
  6 12  2  0
  4 13  2  0
 12 13  1  0
 11 14  1  0
 12 15  1  0
 10 16  2  0
  9 17  1  0
  8 18  1  0
 15 19  2  0
 19 20  1  0
 17 21  1  0
 18 21  1  0
 13 22  1  0
 20 22  2  0
 19 23  1  0
 23 24  2  0
 23 25  1  0
 25 26  1  0
 24 27  1  0
 25 28  2  0
 24 29  1  0
 26 30  2  0
 26 31  1  0
 28 32  1  0
 32 33  2  0
 32 34  1  0
 29 35  1  0
 28 36  1  0
 29 36  2  0
M  END
$$$$
O14757_Pocket2Mol_idx-in-all-generaetd-205
     RDKit          3D

 46 55  0  0  0  0  0  0  0  0999 V2000
    1.5482   -0.3111   41.9233 C   0  0  0  0  0  0  0  0  0  0  0  0
    2.7284    0.2018   42.1525 N   0  0  0  0  0  0  0  0  0  0  0  0
    3.7893   -0.3016   42.7005 C   0  0  0  0  0  0  0  0  0  0  0  0
    3.3781   -1.7350   43.0000 C   0  0  0  0  0  0  0  0  0  0  0  0
    2.0339   -1.9619   42.6217 C   0  0  0  0  0  0  0  0  0  0  0  0
    4.1166   -2.4997   43.8458 C   0  0  0  0  0  0  0  0  0  0  0  0
    1.1731   -3.0051   42.5773 C   0  0  0  0  0  0  0  0  0  0  0  0
    0.4701   -3.2344   41.4901 C   0  0  0  0  0  0  0  0  0  0  0  0
    5.3799   -1.7814   44.2691 C   0  0  0  0  0  0  0  0  0  0  0  0
    5.0159   -0.0180   43.1201 N   0  0  0  0  0  0  0  0  0  0  0  0
    5.7693   -0.6937   43.8418 C   0  0  0  0  0  0  0  0  0  0  0  0
    0.8078   -3.6166   43.6782 C   0  0  0  0  0  0  0  0  0  0  0  0
    0.0663   -4.7011   43.7415 N   0  0  0  0  0  0  0  0  0  0  0  0
    6.2223   -2.6843   45.1565 C   0  0  0  0  0  0  0  0  0  0  0  0
    6.9599   -0.2351   44.2608 N   0  0  0  0  0  0  0  0  0  0  0  0
    5.9065   -3.9037   45.7499 N   0  0  0  0  0  0  0  0  0  0  0  0
   -0.5459   -5.1185   42.5870 C   0  0  0  0  0  0  0  0  0  0  0  0
    5.7480   -4.0340   46.9810 C   0  0  0  0  0  0  0  0  0  0  0  0
    7.4448   -1.8511   45.4198 C   0  0  0  0  0  0  0  0  0  0  0  0
    7.7572   -0.7827   45.0128 C   0  0  0  0  0  0  0  0  0  0  0  0
    8.4076   -2.7217   46.4541 C   0  0  0  0  0  0  0  0  0  0  0  0
    9.3167   -2.0988   47.1049 N   0  0  0  0  0  0  0  0  0  0  0  0
   -0.4719   -4.3893   41.5406 C   0  0  0  0  0  0  0  0  0  0  0  0
    8.3667   -4.0284   46.5743 N   0  0  0  0  0  0  0  0  0  0  0  0
    9.5309   -4.3147   47.3094 C   0  0  0  0  0  0  0  0  0  0  0  0
    5.3113   -3.3789   47.8005 O   0  0  0  0  0  0  0  0  0  0  0  0
    9.9022   -5.6301   47.7684 C   0  0  0  0  0  0  0  0  0  0  0  0
    5.4470   -5.5868   47.2096 C   0  0  0  0  0  0  0  0  0  0  0  0
   11.2254   -5.8679   48.0402 C   0  0  0  0  0  0  0  0  0  0  0  0
    8.9736   -6.6532   47.8548 C   0  0  0  0  0  0  0  0  0  0  0  0
   10.0616   -3.0670   47.6360 C   0  0  0  0  0  0  0  0  0  0  0  0
    7.5566   -6.3564   47.5477 N   0  0  0  0  0  0  0  0  0  0  0  0
    6.4157   -6.1721   48.0913 C   0  0  0  0  0  0  0  0  0  0  0  0
   12.3275   -4.8510   47.9324 C   0  0  2  0  0  0  0  0  0  0  0  0
    9.4585   -7.9662   48.0726 C   0  0  0  0  0  0  0  0  0  0  0  0
   11.5288   -2.7910   48.1740 C   0  0  0  0  0  0  0  0  0  0  0  0
   13.6010   -5.5179   48.0202 O   0  0  0  0  0  0  0  0  0  0  0  0
   11.6306   -7.1387   48.1870 C   0  0  0  0  0  0  0  0  0  0  0  0
   12.2455   -3.5875   48.1245 C   0  0  0  0  0  0  0  0  0  0  0  0
   10.7336   -8.1673   48.3382 C   0  0  0  0  0  0  0  0  0  0  0  0
   13.6593   -3.2418   48.5146 C   0  0  0  0  0  0  0  0  0  0  0  0
   14.5978   -4.1195   48.3241 C   0  0  0  0  0  0  0  0  0  0  0  0
   11.5024   -1.3837   48.4789 C   0  0  0  0  0  0  0  0  0  0  0  0
   13.8999   -1.8525   48.8634 C   0  0  0  0  0  0  0  0  0  0  0  0
   10.4264   -0.5052   48.5472 O   0  0  0  0  0  0  0  0  0  0  0  0
   12.7414   -0.9406   48.9317 C   0  0  0  0  0  0  0  0  0  0  0  0
  1  2  1  0
  2  3  2  0
  3  4  1  0
  1  5  2  0
  4  5  1  0
  4  6  2  0
  5  7  1  0
  7  8  2  0
  6  9  1  0
  3 10  1  0
  9 11  2  0
 10 11  1  0
  7 12  1  0
 12 13  2  0
  9 14  1  0
 11 15  1  0
 14 16  1  0
 13 17  1  0
 16 18  1  0
 14 19  2  0
 15 20  2  0
 19 20  1  0
 19 21  1  0
 21 22  2  0
  8 23  1  0
 17 23  2  0
 21 24  1  0
 24 25  1  0
 18 26  2  0
 25 27  1  0
 18 28  1  0
 27 29  2  0
 27 30  1  0
 22 31  1  0
 25 31  2  0
 30 32  1  0
 28 33  1  0
 32 33  1  0
 29 34  1  0
 30 35  2  0
 31 36  1  0
 34 37  1  1
 29 38  1  0
 34 39  1  0
 36 39  2  0
 35 40  1  0
 38 40  2  0
 39 41  1  0
 37 42  1  0
 41 42  1  0
 36 43  1  0
 41 44  2  0
 43 45  1  0
 43 46  2  0
 44 46  1  0
M  END
$$$$
O14757_Pocket2Mol_idx-in-all-generaetd-206
     RDKit          3D

 43 51  0  0  0  0  0  0  0  0999 V2000
    1.5482   -0.3111   41.9233 C   0  0  0  0  0  0  0  0  0  0  0  0
    2.7284    0.2018   42.1525 N   0  0  0  0  0  0  0  0  0  0  0  0
    3.7893   -0.3016   42.7005 C   0  0  0  0  0  0  0  0  0  0  0  0
    3.3781   -1.7350   43.0000 C   0  0  0  0  0  0  0  0  0  0  0  0
    2.0339   -1.9619   42.6217 C   0  0  0  0  0  0  0  0  0  0  0  0
    5.0090    0.1219   42.9340 N   0  0  0  0  0  0  0  0  0  0  0  0
    4.2895   -2.4979   43.6707 C   0  0  0  0  0  0  0  0  0  0  0  0
    5.8391   -0.6675   43.6343 C   0  0  0  0  0  0  0  0  0  0  0  0
    6.9849   -0.2377   44.0028 N   0  0  0  0  0  0  0  0  0  0  0  0
    4.0426   -3.8794   44.0832 C   0  0  0  0  0  0  0  0  0  0  0  0
    7.6796   -0.8734   44.9326 C   0  0  0  0  0  0  0  0  0  0  0  0
    1.1064   -2.9576   42.4211 C   0  0  0  0  0  0  0  0  0  0  0  0
    5.5298   -1.9496   44.0315 C   0  0  0  0  0  0  0  0  0  0  0  0
    3.8954   -4.1817   45.4718 C   0  0  0  0  0  0  0  0  0  0  0  0
    0.6765   -3.5480   43.4006 C   0  0  1  0  0  0  0  0  0  0  0  0
    0.5804   -3.2191   41.1635 C   0  0  0  0  0  0  0  0  0  0  0  0
    2.8083   -4.8227   45.9203 N   0  0  0  0  0  0  0  0  0  0  0  0
   -0.1574   -4.5754   42.9329 N   0  0  0  0  0  0  0  0  0  0  0  0
    6.5271   -2.5531   44.9677 C   0  0  0  0  0  0  0  0  0  0  0  0
   -0.2272   -4.3703   41.5137 C   0  0  0  0  0  0  0  0  0  0  0  0
    7.5095   -2.0029   45.3993 C   0  0  0  0  0  0  0  0  0  0  0  0
    8.2550   -2.6982   46.3988 C   0  0  1  0  0  0  0  0  0  0  0  0
    8.8975   -0.3029   45.3267 O   0  0  0  0  0  0  0  0  0  0  0  0
    4.8299   -4.4637   46.4212 C   0  0  0  0  0  0  0  0  0  0  0  0
    4.2707   -4.9248   47.6295 N   0  0  0  0  0  0  0  0  0  0  0  0
    3.2045   -5.2092   47.1521 C   0  0  0  0  0  0  0  0  0  0  0  0
    1.4482   -4.6186   45.4134 C   0  0  0  0  0  0  0  0  0  0  0  0
    1.3256   -3.7660   44.6394 N   0  0  0  0  0  0  0  0  0  0  0  0
    9.2816   -2.1418   47.1273 N   0  0  0  0  0  0  0  0  0  0  0  0
   10.0629   -3.1324   47.8508 C   0  0  0  0  0  0  0  0  0  0  0  0
    6.3491   -3.8960   46.0844 C   0  0  2  0  0  0  0  0  0  0  0  0
    7.4349   -3.5889   46.9054 C   0  0  0  0  0  0  0  0  0  0  0  0
   10.3145   -2.7271   49.0818 O   0  0  0  0  0  0  0  0  0  0  0  0
    0.6213   -5.4445   45.7455 O   0  0  0  0  0  0  0  0  0  0  0  0
   11.0262   -3.8136   47.1050 C   0  0  0  0  0  0  0  0  0  0  0  0
   12.1704   -3.3854   46.7547 C   0  0  0  0  0  0  0  0  0  0  0  0
   10.8840   -5.2418   47.2697 C   0  0  0  0  0  0  0  0  0  0  0  0
   11.6370   -5.8917   46.6223 C   0  0  0  0  0  0  0  0  0  0  0  0
   12.9075   -5.4438   46.1255 C   0  0  0  0  0  0  0  0  0  0  0  0
   12.4364   -1.8308   46.8494 C   0  0  0  0  0  0  0  0  0  0  0  0
   12.0030   -1.0714   45.7546 C   0  0  0  0  0  0  0  0  0  0  0  0
   13.1078   -4.1179   46.1998 C   0  0  0  0  0  0  0  0  0  0  0  0
   13.0259   -0.5238   45.0312 C   0  0  0  0  0  0  0  0  0  0  0  0
  1  2  1  0
  2  3  2  0
  3  4  1  0
  1  5  2  0
  4  5  1  0
  3  6  1  0
  4  7  2  0
  6  8  1  0
  8  9  1  0
  7 10  1  0
  9 11  1  0
  5 12  1  0
  7 13  1  0
  8 13  2  0
 10 14  1  0
 12 15  1  0
 12 16  2  0
 14 17  1  0
 15 18  1  0
 13 19  1  0
 16 20  1  0
 18 20  2  0
 11 21  1  0
 19 21  2  0
 21 22  1  0
 11 23  2  0
 14 24  2  0
 24 25  1  0
 17 26  1  0
 25 26  2  0
 17 27  1  0
 15 28  1  6
 27 28  1  0
 22 29  1  1
 29 30  1  0
 19 31  1  0
 24 31  1  0
 22 32  1  0
 31 32  1  1
 30 33  2  0
 27 34  2  0
 30 35  1  0
 35 36  2  0
 35 37  1  0
 37 38  2  0
 38 39  1  0
 36 40  1  0
 40 41  1  0
 36 42  1  0
 39 42  2  0
 41 43  1  0
M  END
$$$$
O14757_Pocket2Mol_idx-in-all-generaetd-207
     RDKit          3D

 44 52  0  0  0  0  0  0  0  0999 V2000
    1.5482   -0.3111   41.9233 C   0  0  0  0  0  0  0  0  0  0  0  0
    2.7284    0.2018   42.1525 N   0  0  0  0  0  0  0  0  0  0  0  0
    3.7893   -0.3016   42.7005 C   0  0  0  0  0  0  0  0  0  0  0  0
    3.3781   -1.7350   43.0000 C   0  0  0  0  0  0  0  0  0  0  0  0
    2.0339   -1.9619   42.6217 C   0  0  0  0  0  0  0  0  0  0  0  0
    5.0090    0.1219   42.9340 N   0  0  0  0  0  0  0  0  0  0  0  0
    4.2895   -2.4979   43.6707 C   0  0  0  0  0  0  0  0  0  0  0  0
    5.8391   -0.6675   43.6343 C   0  0  0  0  0  0  0  0  0  0  0  0
    6.9849   -0.2377   44.0028 N   0  0  0  0  0  0  0  0  0  0  0  0
    4.0426   -3.8794   44.0832 C   0  0  0  0  0  0  0  0  0  0  0  0
    7.6796   -0.8734   44.9326 C   0  0  0  0  0  0  0  0  0  0  0  0
    1.1064   -2.9576   42.4211 C   0  0  0  0  0  0  0  0  0  0  0  0
    5.5298   -1.9496   44.0315 C   0  0  0  0  0  0  0  0  0  0  0  0
    3.8954   -4.1817   45.4718 C   0  0  0  0  0  0  0  0  0  0  0  0
    0.6765   -3.5480   43.4006 C   0  0  1  0  0  0  0  0  0  0  0  0
    0.5804   -3.2191   41.1635 C   0  0  0  0  0  0  0  0  0  0  0  0
    2.8083   -4.8227   45.9203 N   0  0  0  0  0  0  0  0  0  0  0  0
   -0.1574   -4.5754   42.9329 N   0  0  0  0  0  0  0  0  0  0  0  0
    6.5271   -2.5531   44.9677 C   0  0  0  0  0  0  0  0  0  0  0  0
   -0.2272   -4.3703   41.5137 C   0  0  0  0  0  0  0  0  0  0  0  0
    7.5095   -2.0029   45.3993 C   0  0  0  0  0  0  0  0  0  0  0  0
    8.2550   -2.6982   46.3988 C   0  0  0  0  0  0  0  0  0  0  0  0
    8.8975   -0.3029   45.3267 O   0  0  0  0  0  0  0  0  0  0  0  0
    4.8299   -4.4637   46.4212 C   0  0  0  0  0  0  0  0  0  0  0  0
    4.2707   -4.9248   47.6295 N   0  0  0  0  0  0  0  0  0  0  0  0
    3.2045   -5.2092   47.1521 C   0  0  0  0  0  0  0  0  0  0  0  0
    1.4482   -4.6186   45.4134 C   0  0  1  0  0  0  0  0  0  0  0  0
    1.2398   -3.5043   44.6236 O   0  0  0  0  0  0  0  0  0  0  0  0
    6.3317   -3.9297   46.0870 C   0  0  2  0  0  0  0  0  0  0  0  0
    9.5296   -2.5449   46.9776 C   0  0  0  0  0  0  0  0  0  0  0  0
    9.7921   -1.7530   47.9018 O   0  0  0  0  0  0  0  0  0  0  0  0
    7.3972   -3.8130   46.7939 C   0  0  0  0  0  0  0  0  0  0  0  0
    1.2392   -5.7793   44.5610 C   0  0  0  0  0  0  0  0  0  0  0  0
   10.4982   -3.2564   46.4837 N   0  0  0  0  0  0  0  0  0  0  0  0
   11.8686   -3.0564   46.9374 C   0  0  0  0  0  0  0  0  0  0  0  0
   10.3143   -4.3335   45.5931 C   0  0  0  0  0  0  0  0  0  0  0  0
   10.5171   -5.6681   46.1791 C   0  0  0  0  0  0  0  0  0  0  0  0
   12.8315   -2.7175   45.9073 C   0  0  0  0  0  0  0  0  0  0  0  0
   14.1197   -2.6036   46.2175 C   0  0  0  0  0  0  0  0  0  0  0  0
   12.2567   -3.0142   48.2372 C   0  0  0  0  0  0  0  0  0  0  0  0
   15.1302   -2.3251   45.1521 O   0  0  0  0  0  0  0  0  0  0  0  0
   14.9313   -1.2527   44.3337 C   0  0  0  0  0  0  0  0  0  0  0  0
   14.4968   -2.6772   47.5479 C   0  0  0  0  0  0  0  0  0  0  0  0
   13.5942   -2.8768   48.5492 C   0  0  0  0  0  0  0  0  0  0  0  0
  1  2  1  0
  2  3  2  0
  3  4  1  0
  1  5  2  0
  4  5  1  0
  3  6  1  0
  4  7  2  0
  6  8  1  0
  8  9  1  0
  7 10  1  0
  9 11  1  0
  5 12  1  0
  7 13  1  0
  8 13  2  0
 10 14  1  0
 12 15  1  0
 12 16  2  0
 14 17  1  0
 15 18  1  0
 13 19  1  0
 16 20  1  0
 18 20  2  0
 11 21  1  0
 19 21  2  0
 21 22  1  0
 11 23  2  0
 14 24  2  0
 24 25  1  0
 17 26  1  0
 25 26  2  0
 17 27  1  0
 15 28  1  6
 27 28  1  0
 19 29  1  0
 24 29  1  0
 22 30  1  0
 30 31  2  0
 22 32  2  0
 29 32  1  1
 27 33  1  6
 30 34  1  0
 34 35  1  0
 34 36  1  0
 36 37  1  0
 35 38  2  0
 38 39  1  0
 35 40  1  0
 39 41  1  0
 41 42  1  0
 39 43  2  0
 40 44  2  0
 43 44  1  0
M  END
$$$$
O14757_Pocket2Mol_idx-in-all-generaetd-208
     RDKit          3D

 36 41  0  0  0  0  0  0  0  0999 V2000
    1.5482   -0.3111   41.9233 C   0  0  0  0  0  0  0  0  0  0  0  0
    2.7284    0.2018   42.1525 N   0  0  0  0  0  0  0  0  0  0  0  0
    3.7893   -0.3016   42.7005 C   0  0  0  0  0  0  0  0  0  0  0  0
    3.3781   -1.7350   43.0000 C   0  0  0  0  0  0  0  0  0  0  0  0
    2.0339   -1.9619   42.6217 C   0  0  0  0  0  0  0  0  0  0  0  0
    4.1166   -2.4997   43.8458 C   0  0  0  0  0  0  0  0  0  0  0  0
    1.1731   -3.0051   42.5773 C   0  0  0  0  0  0  0  0  0  0  0  0
    0.4701   -3.2344   41.4901 C   0  0  0  0  0  0  0  0  0  0  0  0
    5.3799   -1.7814   44.2691 C   0  0  0  0  0  0  0  0  0  0  0  0
    5.0159   -0.0180   43.1201 N   0  0  0  0  0  0  0  0  0  0  0  0
    5.7693   -0.6937   43.8418 C   0  0  0  0  0  0  0  0  0  0  0  0
    0.8078   -3.6166   43.6782 C   0  0  0  0  0  0  0  0  0  0  0  0
    0.0663   -4.7011   43.7415 N   0  0  0  0  0  0  0  0  0  0  0  0
    6.2223   -2.6843   45.1565 C   0  0  0  0  0  0  0  0  0  0  0  0
    6.9599   -0.2351   44.2608 N   0  0  0  0  0  0  0  0  0  0  0  0
    5.9065   -3.9037   45.7499 N   0  0  0  0  0  0  0  0  0  0  0  0
   -0.5459   -5.1185   42.5870 C   0  0  0  0  0  0  0  0  0  0  0  0
    5.7480   -4.0340   46.9810 C   0  0  0  0  0  0  0  0  0  0  0  0
    7.4448   -1.8511   45.4198 C   0  0  0  0  0  0  0  0  0  0  0  0
    7.7572   -0.7827   45.0128 C   0  0  0  0  0  0  0  0  0  0  0  0
    8.4076   -2.7217   46.4541 C   0  0  0  0  0  0  0  0  0  0  0  0
    9.3167   -2.0988   47.1049 N   0  0  0  0  0  0  0  0  0  0  0  0
   -0.4719   -4.3893   41.5406 C   0  0  0  0  0  0  0  0  0  0  0  0
    8.3667   -4.0284   46.5743 N   0  0  0  0  0  0  0  0  0  0  0  0
   10.1532   -2.5726   47.9567 C   0  0  0  0  0  0  0  0  0  0  0  0
   11.0726   -1.7892   48.6998 C   0  0  0  0  0  0  0  0  0  0  0  0
   10.4886   -0.9372   49.4584 C   0  0  0  0  0  0  0  0  0  0  0  0
   10.2139   -3.8947   48.0407 C   0  0  0  0  0  0  0  0  0  0  0  0
    6.6188   -4.9855   47.3969 N   0  0  0  0  0  0  0  0  0  0  0  0
    5.1401   -3.1961   47.7242 O   0  0  0  0  0  0  0  0  0  0  0  0
    9.2230   -4.6492   47.2923 C   0  0  0  0  0  0  0  0  0  0  0  0
   11.2455   -0.1560   50.3763 C   0  0  0  0  0  0  0  0  0  0  0  0
   12.4527   -1.8809   48.5193 C   0  0  0  0  0  0  0  0  0  0  0  0
   12.6387   -0.2160   50.2260 C   0  0  0  0  0  0  0  0  0  0  0  0
   13.4817    0.5417   51.0478 F   0  0  0  0  0  0  0  0  0  0  0  0
   13.2455   -1.0495   49.3649 C   0  0  0  0  0  0  0  0  0  0  0  0
  1  2  1  0
  2  3  2  0
  3  4  1  0
  1  5  2  0
  4  5  1  0
  4  6  2  0
  5  7  1  0
  7  8  2  0
  6  9  1  0
  3 10  1  0
  9 11  2  0
 10 11  1  0
  7 12  1  0
 12 13  2  0
  9 14  1  0
 11 15  1  0
 14 16  1  0
 13 17  1  0
 16 18  1  0
 14 19  2  0
 15 20  2  0
 19 20  1  0
 19 21  1  0
 21 22  2  0
  8 23  1  0
 17 23  2  0
 21 24  1  0
 22 25  1  0
 25 26  1  0
 26 27  2  0
 25 28  2  0
 18 29  1  0
 18 30  2  0
 24 31  2  0
 28 31  1  0
 27 32  1  0
 26 33  1  0
 32 34  2  0
 34 35  1  0
 33 36  2  0
 34 36  1  0
M  END
$$$$
O14757_Pocket2Mol_idx-in-all-generaetd-209
     RDKit          3D

 34 39  0  0  0  0  0  0  0  0999 V2000
    4.5156    0.0550   42.9895 N   0  0  0  0  0  0  0  0  0  0  0  0
    5.0618   -0.8645   43.5295 C   0  0  0  0  0  0  0  0  0  0  0  0
    4.4350   -2.0604   43.7783 C   0  0  0  0  0  0  0  0  0  0  0  0
    4.9987   -3.0994   44.5839 C   0  0  0  0  0  0  0  0  0  0  0  0
    3.2714   -1.8664   43.0632 C   0  0  0  0  0  0  0  0  0  0  0  0
    6.4064   -0.5942   44.3204 N   0  0  0  0  0  0  0  0  0  0  0  0
    4.3422   -4.3256   44.7203 C   0  0  0  0  0  0  0  0  0  0  0  0
    2.1845   -2.6668   42.8270 N   0  0  0  0  0  0  0  0  0  0  0  0
    3.3305   -0.5395   42.5465 N   0  0  0  0  0  0  0  0  0  0  0  0
    1.9502   -3.8972   43.4076 C   0  0  0  0  0  0  0  0  0  0  0  0
    2.7156   -4.1184   44.6954 N   0  0  0  0  0  0  0  0  0  0  0  0
    6.8581   -1.5862   45.1101 C   0  0  0  0  0  0  0  0  0  0  0  0
    6.1801   -2.8430   45.2383 C   0  0  0  0  0  0  0  0  0  0  0  0
    2.1454   -5.1901   45.5771 C   0  0  0  0  0  0  0  0  0  0  0  0
    8.0137   -1.3946   45.8526 C   0  0  0  0  0  0  0  0  0  0  0  0
    0.9733   -4.5725   43.2066 O   0  0  0  0  0  0  0  0  0  0  0  0
    2.2437    0.0035   41.8733 C   0  0  0  0  0  0  0  0  0  0  0  0
    1.3210   -2.2077   41.7009 C   0  0  0  0  0  0  0  0  0  0  0  0
    8.6047   -2.2876   46.6923 C   0  0  0  0  0  0  0  0  0  0  0  0
    7.9141   -3.5157   46.8869 C   0  0  0  0  0  0  0  0  0  0  0  0
    1.0501   -0.8658   41.6612 C   0  0  0  0  0  0  0  0  0  0  0  0
    6.7278   -3.7718   46.2525 C   0  0  0  0  0  0  0  0  0  0  0  0
    9.8280   -2.0492   47.3361 C   0  0  0  0  0  0  0  0  0  0  0  0
    9.8262   -1.5735   48.5432 C   0  0  0  0  0  0  0  0  0  0  0  0
   11.0745   -2.0905   46.6735 C   0  0  0  0  0  0  0  0  0  0  0  0
    8.5798   -1.4294   49.3788 F   0  0  0  0  0  0  0  0  0  0  0  0
   10.9754   -1.2454   49.3173 C   0  0  0  0  0  0  0  0  0  0  0  0
   12.2431   -1.7844   47.3194 C   0  0  0  0  0  0  0  0  0  0  0  0
   12.3027   -1.4029   48.7252 C   0  0  0  0  0  0  0  0  0  0  0  0
   13.5218   -1.9255   46.6542 C   0  0  0  0  0  0  0  0  0  0  0  0
   14.4582   -2.6283   47.0522 O   0  0  0  0  0  0  0  0  0  0  0  0
   13.7804   -1.0256   45.6692 N   0  0  0  0  0  0  0  0  0  0  0  0
   14.9462   -1.0240   44.8573 C   0  0  0  0  0  0  0  0  0  0  0  0
   14.5814   -0.6573   43.4842 C   0  0  0  0  0  0  0  0  0  0  0  0
  1  2  2  0
  2  3  1  0
  3  4  1  0
  3  5  2  0
  2  6  1  0
  4  7  1  0
  5  8  1  0
  1  9  1  0
  5  9  1  0
  8 10  1  0
  7 11  1  0
 10 11  1  0
  6 12  2  0
  4 13  2  0
 12 13  1  0
 11 14  1  0
 12 15  1  0
 10 16  2  0
  9 17  1  0
  8 18  1  0
 15 19  2  0
 19 20  1  0
 17 21  1  0
 18 21  1  0
 13 22  1  0
 20 22  2  0
 19 23  1  0
 23 24  2  0
 23 25  1  0
 24 26  1  0
 24 27  1  0
 25 28  2  0
 27 29  2  0
 28 29  1  0
 28 30  1  0
 30 31  2  0
 30 32  1  0
 32 33  1  0
 33 34  1  0
M  END
$$$$
O14757_Pocket2Mol_idx-in-all-generaetd-210
     RDKit          3D

 34 40  0  0  0  0  0  0  0  0999 V2000
    5.3420    0.2589   42.8836 N   0  0  0  0  0  0  0  0  0  0  0  0
    5.6740   -0.8311   43.5645 C   0  0  0  0  0  0  0  0  0  0  0  0
    6.8416   -0.9240   44.3627 N   0  0  0  0  0  0  0  0  0  0  0  0
    4.1141    0.2821   42.2689 C   0  0  0  0  0  0  0  0  0  0  0  0
    3.2237   -0.7484   42.3921 N   0  0  0  0  0  0  0  0  0  0  0  0
    6.8097   -1.9585   45.3182 C   0  0  0  0  0  0  0  0  0  0  0  0
    3.5007   -1.8060   43.1511 C   0  0  0  0  0  0  0  0  0  0  0  0
    4.7020   -1.8573   43.8328 C   0  0  0  0  0  0  0  0  0  0  0  0
    5.4887   -2.6670   44.9856 C   0  0  0  0  0  0  0  0  0  0  0  0
    2.5208   -2.8458   43.2671 C   0  0  0  0  0  0  0  0  0  0  0  0
    2.6558   -3.8570   44.2541 C   0  0  0  0  0  0  0  0  0  0  0  0
    7.6468   -2.3589   46.2854 C   0  0  0  0  0  0  0  0  0  0  0  0
    3.8579   -4.1296   44.9532 N   0  0  0  0  0  0  0  0  0  0  0  0
    1.3096   -2.7520   42.6410 C   0  0  0  0  0  0  0  0  0  0  0  0
    4.9776   -3.8402   45.4939 C   0  0  0  0  0  0  0  0  0  0  0  0
    8.7023   -1.6088   46.4743 C   0  0  0  0  0  0  0  0  0  0  0  0
    9.5984   -1.8433   47.5139 C   0  0  0  0  0  0  0  0  0  0  0  0
    7.3782   -3.4221   47.2077 C   0  0  0  0  0  0  0  0  0  0  0  0
    1.5977   -4.7338   44.4801 C   0  0  0  0  0  0  0  0  0  0  0  0
    1.0668   -1.7644   41.4981 C   0  0  0  0  0  0  0  0  0  0  0  0
   10.8175   -0.9959   47.6882 O   0  0  0  0  0  0  0  0  0  0  0  0
   11.6053   -1.2371   48.6095 C   0  0  0  0  0  0  0  0  0  0  0  0
    0.3244   -3.6976   42.8655 C   0  0  0  0  0  0  0  0  0  0  0  0
   -0.8593   -3.6685   42.0130 N   0  0  0  0  0  0  0  0  0  0  0  0
    1.8517   -5.8131   45.4828 O   0  0  0  0  0  0  0  0  0  0  0  0
    0.4775   -4.6810   43.7729 C   0  0  0  0  0  0  0  0  0  0  0  0
    0.8739   -6.6382   45.6662 C   0  0  0  0  0  0  0  0  0  0  0  0
   -1.0916   -2.5994   41.2602 C   0  0  0  0  0  0  0  0  0  0  0  0
    9.4106   -2.8763   48.3313 C   0  0  0  0  0  0  0  0  0  0  0  0
   -2.2861   -2.5230   40.6491 C   0  0  0  0  0  0  0  0  0  0  0  0
   -0.0427   -1.6549   40.9892 C   0  0  0  0  0  0  0  0  0  0  0  0
    6.1974   -4.2473   47.0932 C   0  0  0  0  0  0  0  0  0  0  0  0
    5.4270   -4.5265   46.3859 N   0  0  0  0  0  0  0  0  0  0  0  0
    8.2719   -3.5974   48.2239 C   0  0  0  0  0  0  0  0  0  0  0  0
  1  2  2  0
  2  3  1  0
  1  4  1  0
  4  5  2  0
  3  6  1  0
  5  7  1  0
  2  8  1  0
  7  8  2  0
  6  9  2  0
  8  9  1  0
  7 10  1  0
 10 11  2  0
  6 12  1  0
 11 13  1  0
 10 14  1  0
  9 15  1  0
 13 15  1  0
 12 16  2  0
 16 17  1  0
 12 18  1  0
 11 19  1  0
 14 20  1  0
 17 21  1  0
 21 22  1  0
 14 23  2  0
 23 24  1  0
 19 25  1  0
 19 26  2  0
 23 26  1  0
 25 27  1  0
 24 28  1  0
 17 29  2  0
 28 30  1  0
 20 31  1  0
 28 31  2  0
 18 32  1  0
 15 33  2  0
 32 33  1  0
 18 34  2  0
 29 34  1  0
M  END
$$$$
O14757_Pocket2Mol_idx-in-all-generaetd-211
     RDKit          3D

 44 53  0  0  0  0  0  0  0  0999 V2000
    1.5482   -0.3111   41.9233 C   0  0  0  0  0  0  0  0  0  0  0  0
    2.7284    0.2018   42.1525 N   0  0  0  0  0  0  0  0  0  0  0  0
    3.7893   -0.3016   42.7005 C   0  0  0  0  0  0  0  0  0  0  0  0
    3.3781   -1.7350   43.0000 C   0  0  0  0  0  0  0  0  0  0  0  0
    2.0339   -1.9619   42.6217 C   0  0  0  0  0  0  0  0  0  0  0  0
    5.0090    0.1219   42.9340 N   0  0  0  0  0  0  0  0  0  0  0  0
    4.2895   -2.4979   43.6707 C   0  0  0  0  0  0  0  0  0  0  0  0
    5.8391   -0.6675   43.6343 C   0  0  0  0  0  0  0  0  0  0  0  0
    6.9849   -0.2377   44.0028 N   0  0  0  0  0  0  0  0  0  0  0  0
    4.0426   -3.8794   44.0832 C   0  0  0  0  0  0  0  0  0  0  0  0
    7.6796   -0.8734   44.9326 C   0  0  0  0  0  0  0  0  0  0  0  0
    1.1064   -2.9576   42.4211 C   0  0  0  0  0  0  0  0  0  0  0  0
    5.5298   -1.9496   44.0315 C   0  0  0  0  0  0  0  0  0  0  0  0
    3.8954   -4.1817   45.4718 C   0  0  0  0  0  0  0  0  0  0  0  0
    0.6765   -3.5480   43.4006 C   0  0  1  0  0  0  0  0  0  0  0  0
    0.5804   -3.2191   41.1635 C   0  0  0  0  0  0  0  0  0  0  0  0
    2.8083   -4.8227   45.9203 N   0  0  0  0  0  0  0  0  0  0  0  0
   -0.1574   -4.5754   42.9329 N   0  0  0  0  0  0  0  0  0  0  0  0
    6.5271   -2.5531   44.9677 C   0  0  0  0  0  0  0  0  0  0  0  0
   -0.2272   -4.3703   41.5137 C   0  0  0  0  0  0  0  0  0  0  0  0
    7.5095   -2.0029   45.3993 C   0  0  0  0  0  0  0  0  0  0  0  0
    8.2550   -2.6982   46.3988 C   0  0  0  0  0  0  0  0  0  0  0  0
    8.8975   -0.3029   45.3267 O   0  0  0  0  0  0  0  0  0  0  0  0
    4.8299   -4.4637   46.4212 C   0  0  0  0  0  0  0  0  0  0  0  0
    4.2707   -4.9248   47.6295 N   0  0  0  0  0  0  0  0  0  0  0  0
    3.2045   -5.2092   47.1521 C   0  0  0  0  0  0  0  0  0  0  0  0
    1.4482   -4.6186   45.4134 C   0  0  1  0  0  0  0  0  0  0  0  0
    1.2398   -3.5043   44.6236 O   0  0  0  0  0  0  0  0  0  0  0  0
    6.3317   -3.9297   46.0870 C   0  0  2  0  0  0  0  0  0  0  0  0
    9.5296   -2.5449   46.9776 C   0  0  0  0  0  0  0  0  0  0  0  0
    9.7921   -1.7530   47.9018 O   0  0  0  0  0  0  0  0  0  0  0  0
    7.3972   -3.8130   46.7939 C   0  0  0  0  0  0  0  0  0  0  0  0
    1.2392   -5.7793   44.5610 C   0  0  0  0  0  0  0  0  0  0  0  0
   10.4934   -3.0755   46.3117 O   0  0  0  0  0  0  0  0  0  0  0  0
   11.7815   -2.6102   46.5288 C   0  0  0  0  0  0  0  0  0  0  0  0
   12.3688   -2.2857   45.2615 C   0  0  0  0  0  0  0  0  0  0  0  0
   13.6571   -1.6435   45.3063 C   0  0  0  0  0  0  0  0  0  0  0  0
   14.2956   -1.1724   44.0010 C   0  0  0  0  0  0  0  0  0  0  0  0
   14.2846   -1.4302   46.4743 C   0  0  0  0  0  0  0  0  0  0  0  0
   15.5365   -0.7666   46.4357 C   0  0  0  0  0  0  0  0  0  0  0  0
   15.5395   -0.6666   44.0385 C   0  0  0  0  0  0  0  0  0  0  0  0
   16.1726   -0.4321   45.2118 C   0  0  0  0  0  0  0  0  0  0  0  0
   13.5876   -1.8258   47.4985 C   0  0  0  0  0  0  0  0  0  0  0  0
   12.4087   -2.3783   47.6124 C   0  0  0  0  0  0  0  0  0  0  0  0
  1  2  1  0
  2  3  2  0
  3  4  1  0
  1  5  2  0
  4  5  1  0
  3  6  1  0
  4  7  2  0
  6  8  1  0
  8  9  1  0
  7 10  1  0
  9 11  1  0
  5 12  1  0
  7 13  1  0
  8 13  2  0
 10 14  1  0
 12 15  1  0
 12 16  2  0
 14 17  1  0
 15 18  1  0
 13 19  1  0
 16 20  1  0
 18 20  2  0
 11 21  1  0
 19 21  2  0
 21 22  1  0
 11 23  2  0
 14 24  2  0
 24 25  1  0
 17 26  1  0
 25 26  2  0
 17 27  1  0
 15 28  1  6
 27 28  1  0
 19 29  1  0
 24 29  1  0
 22 30  1  0
 30 31  2  0
 22 32  2  0
 29 32  1  1
 27 33  1  6
 30 34  1  0
 34 35  1  0
 35 36  2  0
 36 37  1  0
 37 38  2  0
 37 39  1  0
 39 40  2  0
 38 41  1  0
 40 42  1  0
 41 42  2  0
 39 43  1  0
 35 44  1  0
 43 44  2  0
M  END
$$$$
O14757_Pocket2Mol_idx-in-all-generaetd-212
     RDKit          3D

 47 55  0  0  0  0  0  0  0  0999 V2000
    1.5482   -0.3111   41.9233 C   0  0  0  0  0  0  0  0  0  0  0  0
    2.7284    0.2018   42.1525 N   0  0  0  0  0  0  0  0  0  0  0  0
    3.7893   -0.3016   42.7005 C   0  0  0  0  0  0  0  0  0  0  0  0
    3.3781   -1.7350   43.0000 C   0  0  0  0  0  0  0  0  0  0  0  0
    2.0339   -1.9619   42.6217 C   0  0  0  0  0  0  0  0  0  0  0  0
    5.0090    0.1219   42.9340 N   0  0  0  0  0  0  0  0  0  0  0  0
    4.2895   -2.4979   43.6707 C   0  0  0  0  0  0  0  0  0  0  0  0
    5.8391   -0.6675   43.6343 C   0  0  0  0  0  0  0  0  0  0  0  0
    6.9849   -0.2377   44.0028 N   0  0  0  0  0  0  0  0  0  0  0  0
    4.0426   -3.8794   44.0832 C   0  0  0  0  0  0  0  0  0  0  0  0
    7.6796   -0.8734   44.9326 C   0  0  0  0  0  0  0  0  0  0  0  0
    1.1064   -2.9576   42.4211 C   0  0  0  0  0  0  0  0  0  0  0  0
    5.5298   -1.9496   44.0315 C   0  0  0  0  0  0  0  0  0  0  0  0
    3.8954   -4.1817   45.4718 C   0  0  0  0  0  0  0  0  0  0  0  0
    0.6765   -3.5480   43.4006 C   0  0  1  0  0  0  0  0  0  0  0  0
    0.5804   -3.2191   41.1635 C   0  0  0  0  0  0  0  0  0  0  0  0
    2.8083   -4.8227   45.9203 N   0  0  0  0  0  0  0  0  0  0  0  0
   -0.1574   -4.5754   42.9329 N   0  0  0  0  0  0  0  0  0  0  0  0
    6.5271   -2.5531   44.9677 C   0  0  0  0  0  0  0  0  0  0  0  0
   -0.2272   -4.3703   41.5137 C   0  0  0  0  0  0  0  0  0  0  0  0
    7.5095   -2.0029   45.3993 C   0  0  0  0  0  0  0  0  0  0  0  0
    8.2550   -2.6982   46.3988 C   0  0  2  0  0  0  0  0  0  0  0  0
    8.8975   -0.3029   45.3267 O   0  0  0  0  0  0  0  0  0  0  0  0
    4.8299   -4.4637   46.4212 C   0  0  0  0  0  0  0  0  0  0  0  0
    4.2707   -4.9248   47.6295 N   0  0  0  0  0  0  0  0  0  0  0  0
    3.2045   -5.2092   47.1521 C   0  0  0  0  0  0  0  0  0  0  0  0
    1.4482   -4.6186   45.4134 C   0  0  2  0  0  0  0  0  0  0  0  0
    1.2398   -3.5043   44.6236 O   0  0  0  0  0  0  0  0  0  0  0  0
    6.3317   -3.9297   46.0870 C   0  0  2  0  0  0  0  0  0  0  0  0
    9.5296   -2.5449   46.9776 C   0  0  0  0  0  0  0  0  0  0  0  0
    9.7921   -1.7530   47.9018 O   0  0  0  0  0  0  0  0  0  0  0  0
    7.4454   -3.8344   46.8035 C   0  0  0  0  0  0  0  0  0  0  0  0
   10.5010   -3.0847   46.3190 O   0  0  0  0  0  0  0  0  0  0  0  0
    0.5569   -4.7693   46.5649 C   0  0  0  0  0  0  0  0  0  0  0  0
   11.7452   -2.8462   46.6234 C   0  0  0  0  0  0  0  0  0  0  0  0
   12.4344   -1.8951   45.7393 C   0  0  0  0  0  0  0  0  0  0  0  0
   12.4612   -3.5429   47.5581 C   0  0  0  0  0  0  0  0  0  0  0  0
   11.7737   -4.5216   48.4115 C   0  0  0  0  0  0  0  0  0  0  0  0
   13.7761   -1.6251   45.9829 C   0  0  0  0  0  0  0  0  0  0  0  0
   13.7909   -3.1787   47.7950 C   0  0  0  0  0  0  0  0  0  0  0  0
   11.6069   -4.2006   49.6507 O   0  0  0  0  0  0  0  0  0  0  0  0
   14.4467   -2.2633   47.0116 C   0  0  0  0  0  0  0  0  0  0  0  0
   11.1106   -5.4205   47.8053 N   0  0  0  0  0  0  0  0  0  0  0  0
   14.5152   -0.5752   45.1551 C   0  0  0  0  0  0  0  0  0  0  0  0
   10.4503   -6.4602   48.6309 C   0  0  0  0  0  0  0  0  0  0  0  0
    9.0730   -6.6242   48.2414 C   0  0  0  0  0  0  0  0  0  0  0  0
    8.8616   -7.7093   47.4931 O   0  0  0  0  0  0  0  0  0  0  0  0
  1  2  1  0
  2  3  2  0
  3  4  1  0
  1  5  2  0
  4  5  1  0
  3  6  1  0
  4  7  2  0
  6  8  1  0
  8  9  1  0
  7 10  1  0
  9 11  1  0
  5 12  1  0
  7 13  1  0
  8 13  2  0
 10 14  1  0
 12 15  1  0
 12 16  2  0
 14 17  1  0
 15 18  1  0
 13 19  1  0
 16 20  1  0
 18 20  2  0
 11 21  1  0
 19 21  2  0
 21 22  1  0
 11 23  2  0
 14 24  2  0
 24 25  1  0
 17 26  1  0
 25 26  2  0
 17 27  1  0
 15 28  1  6
 27 28  1  0
 19 29  1  0
 24 29  1  0
 22 30  1  6
 30 31  2  0
 22 32  1  0
 29 32  1  1
 30 33  1  0
 27 34  1  1
 33 35  1  0
 35 36  2  0
 35 37  1  0
 37 38  1  0
 36 39  1  0
 37 40  2  0
 38 41  2  0
 39 42  2  0
 40 42  1  0
 38 43  1  0
 39 44  1  0
 43 45  1  0
 45 46  1  0
 46 47  1  0
M  END
$$$$
O14757_Pocket2Mol_idx-in-all-generaetd-213
     RDKit          3D

 28 33  0  0  0  0  0  0  0  0999 V2000
    4.8173    0.2791   42.6993 N   0  0  0  0  0  0  0  0  0  0  0  0
    5.3297   -0.7477   43.3688 C   0  0  0  0  0  0  0  0  0  0  0  0
    3.4732   -0.2235   42.4530 C   0  0  0  0  0  0  0  0  0  0  0  0
    4.4984   -1.7876   43.6214 C   0  0  0  0  0  0  0  0  0  0  0  0
    3.3438   -1.5190   42.9379 C   0  0  0  0  0  0  0  0  0  0  0  0
    2.1381   -2.3401   42.8254 C   0  0  0  0  0  0  0  0  0  0  0  0
    2.3894    0.3572   41.9843 N   0  0  0  0  0  0  0  0  0  0  0  0
    4.9180   -3.0430   44.3829 C   0  0  0  0  0  0  0  0  0  0  0  0
    5.9444   -2.9314   45.3934 C   0  0  0  0  0  0  0  0  0  0  0  0
    4.2808   -4.1329   44.3252 C   0  0  0  0  0  0  0  0  0  0  0  0
    3.1588   -4.4221   43.4852 O   0  0  0  0  0  0  0  0  0  0  0  0
    4.5704   -5.2518   45.1995 C   0  0  0  0  0  0  0  0  0  0  0  0
    1.9853   -3.6792   43.3495 C   0  0  0  0  0  0  0  0  0  0  0  0
    0.9181   -4.3294   43.4638 C   0  0  0  0  0  0  0  0  0  0  0  0
    6.1667   -3.9106   46.0813 C   0  0  0  0  0  0  0  0  0  0  0  0
    0.9627   -1.7613   42.3940 C   0  0  0  0  0  0  0  0  0  0  0  0
    3.8296   -6.4325   45.0544 F   0  0  0  0  0  0  0  0  0  0  0  0
   -0.2646   -3.7780   42.9121 C   0  0  0  0  0  0  0  0  0  0  0  0
    5.4599   -5.1112   46.0385 C   0  0  0  0  0  0  0  0  0  0  0  0
    7.3541   -3.7011   47.1652 C   0  0  0  0  0  0  0  0  0  0  0  0
    8.4146   -3.0196   46.7433 C   0  0  0  0  0  0  0  0  0  0  0  0
   -0.1899   -2.5032   42.3318 C   0  0  0  0  0  0  0  0  0  0  0  0
    9.3886   -3.3983   46.2645 N   0  0  0  0  0  0  0  0  0  0  0  0
    8.4200   -1.5396   46.8191 C   0  0  0  0  0  0  0  0  0  0  0  0
    1.1241   -0.4959   41.7481 C   0  0  0  0  0  0  0  0  0  0  0  0
    9.6082   -1.1388   46.2726 C   0  0  0  0  0  0  0  0  0  0  0  0
   10.3995   -2.2617   45.8154 N   0  0  0  0  0  0  0  0  0  0  0  0
   11.6430   -2.3737   45.2936 C   0  0  0  0  0  0  0  0  0  0  0  0
  1  2  2  0
  1  3  1  0
  2  4  1  0
  3  5  1  0
  4  5  2  0
  5  6  1  0
  3  7  2  0
  4  8  1  0
  8  9  1  0
  8 10  2  0
 10 11  1  0
 10 12  1  0
  6 13  1  0
 11 13  1  0
 13 14  2  0
  9 15  2  0
  6 16  2  0
 12 17  1  0
 14 18  1  0
 12 19  2  0
 15 19  1  0
 15 20  1  0
 20 21  1  0
 16 22  1  0
 18 22  2  0
 21 23  2  0
 21 24  1  0
  7 25  1  0
 16 25  1  0
 24 26  2  0
 23 27  1  0
 26 27  1  0
 27 28  1  0
M  END
$$$$
O14757_Pocket2Mol_idx-in-all-generaetd-214
     RDKit          3D

 28 32  0  0  0  0  0  0  0  0999 V2000
    5.3420    0.2589   42.8836 N   0  0  0  0  0  0  0  0  0  0  0  0
    5.6740   -0.8311   43.5645 C   0  0  0  0  0  0  0  0  0  0  0  0
    4.8288   -1.8236   43.8416 C   0  0  0  0  0  0  0  0  0  0  0  0
    3.6296   -1.5812   43.1756 C   0  0  0  0  0  0  0  0  0  0  0  0
    5.0882   -3.0359   44.6381 C   0  0  0  0  0  0  0  0  0  0  0  0
    6.1485   -2.9700   45.5258 C   0  0  0  0  0  0  0  0  0  0  0  0
    4.2991   -4.0949   44.5899 C   0  0  0  0  0  0  0  0  0  0  0  0
    2.3915   -2.2145   43.0037 C   0  0  0  0  0  0  0  0  0  0  0  0
    3.1185   -4.3300   43.8771 C   0  0  0  0  0  0  0  0  0  0  0  0
    2.6120   -5.5925   44.1861 O   0  0  0  0  0  0  0  0  0  0  0  0
    3.9103   -0.2359   42.6290 C   0  0  0  0  0  0  0  0  0  0  0  0
    2.2344   -3.4540   43.3650 N   0  0  0  0  0  0  0  0  0  0  0  0
    0.8119   -3.8495   43.1300 C   0  0  0  0  0  0  0  0  0  0  0  0
    3.0472    0.4463   41.9449 N   0  0  0  0  0  0  0  0  0  0  0  0
    1.5343   -1.5152   42.1136 C   0  0  0  0  0  0  0  0  0  0  0  0
    7.2580   -2.1553   45.5496 C   0  0  0  0  0  0  0  0  0  0  0  0
    8.2843   -2.2373   46.5265 C   0  0  0  0  0  0  0  0  0  0  0  0
    9.4356   -1.2990   46.5400 C   0  0  0  0  0  0  0  0  0  0  0  0
   10.4651   -1.7166   45.9135 O   0  0  0  0  0  0  0  0  0  0  0  0
    1.9573   -0.0992   41.7221 C   0  0  0  0  0  0  0  0  0  0  0  0
    0.3498   -3.1327   42.0399 C   0  0  0  0  0  0  0  0  0  0  0  0
   11.6169   -1.9467   46.5690 C   0  0  0  0  0  0  0  0  0  0  0  0
    0.3221   -1.9135   41.8326 C   0  0  0  0  0  0  0  0  0  0  0  0
    8.1214   -3.2407   47.4708 C   0  0  0  0  0  0  0  0  0  0  0  0
    7.0470   -4.1579   47.3819 C   0  0  0  0  0  0  0  0  0  0  0  0
    6.1070   -4.0093   46.5158 C   0  0  0  0  0  0  0  0  0  0  0  0
   11.6265   -2.6398   47.5108 O   0  0  0  0  0  0  0  0  0  0  0  0
   12.8346   -1.7580   45.6755 C   0  0  0  0  0  0  0  0  0  0  0  0
  1  2  2  0
  2  3  1  0
  3  4  2  0
  3  5  1  0
  5  6  1  0
  5  7  2  0
  4  8  1  0
  7  9  1  0
  9 10  2  0
  1 11  1  0
  4 11  1  0
  8 12  1  0
  9 12  1  0
 12 13  1  0
 11 14  2  0
  8 15  2  0
  6 16  2  0
 16 17  1  0
 17 18  1  0
 18 19  1  0
 14 20  1  0
 15 20  1  0
 13 21  1  0
 19 22  1  0
 15 23  1  0
 21 23  1  0
 17 24  2  0
 24 25  1  0
  6 26  1  0
 25 26  2  0
 22 27  2  0
 22 28  1  0
M  END
$$$$
O14757_Pocket2Mol_idx-in-all-generaetd-215
     RDKit          3D

 35 40  0  0  0  0  0  0  0  0999 V2000
    1.5482   -0.3111   41.9233 C   0  0  0  0  0  0  0  0  0  0  0  0
    2.7284    0.2018   42.1525 N   0  0  0  0  0  0  0  0  0  0  0  0
    3.7893   -0.3016   42.7005 C   0  0  0  0  0  0  0  0  0  0  0  0
    3.3781   -1.7350   43.0000 C   0  0  0  0  0  0  0  0  0  0  0  0
    2.0339   -1.9619   42.6217 C   0  0  0  0  0  0  0  0  0  0  0  0
    4.1166   -2.4997   43.8458 C   0  0  0  0  0  0  0  0  0  0  0  0
    1.1731   -3.0051   42.5773 C   0  0  0  0  0  0  0  0  0  0  0  0
    0.4701   -3.2344   41.4901 C   0  0  0  0  0  0  0  0  0  0  0  0
    5.3799   -1.7814   44.2691 C   0  0  0  0  0  0  0  0  0  0  0  0
    5.0159   -0.0180   43.1201 N   0  0  0  0  0  0  0  0  0  0  0  0
    5.7693   -0.6937   43.8418 C   0  0  0  0  0  0  0  0  0  0  0  0
    0.8078   -3.6166   43.6782 C   0  0  0  0  0  0  0  0  0  0  0  0
    0.0663   -4.7011   43.7415 N   0  0  0  0  0  0  0  0  0  0  0  0
    6.2223   -2.6843   45.1565 C   0  0  0  0  0  0  0  0  0  0  0  0
    6.9599   -0.2351   44.2608 N   0  0  0  0  0  0  0  0  0  0  0  0
    5.9065   -3.9037   45.7499 N   0  0  0  0  0  0  0  0  0  0  0  0
   -0.5459   -5.1185   42.5870 C   0  0  0  0  0  0  0  0  0  0  0  0
    5.7480   -4.0340   46.9810 C   0  0  0  0  0  0  0  0  0  0  0  0
    7.4448   -1.8511   45.4198 C   0  0  0  0  0  0  0  0  0  0  0  0
    7.7572   -0.7827   45.0128 C   0  0  0  0  0  0  0  0  0  0  0  0
    8.4076   -2.7217   46.4541 C   0  0  0  0  0  0  0  0  0  0  0  0
    9.3167   -2.0988   47.1049 N   0  0  0  0  0  0  0  0  0  0  0  0
   -0.4719   -4.3893   41.5406 C   0  0  0  0  0  0  0  0  0  0  0  0
    5.0887   -3.4849   47.7878 O   0  0  0  0  0  0  0  0  0  0  0  0
    6.6862   -5.0913   47.4809 C   0  0  0  0  0  0  0  0  0  0  0  0
    8.0012   -4.4642   47.9733 C   0  0  0  0  0  0  0  0  0  0  0  0
    8.3252   -3.8858   46.6511 O   0  0  0  0  0  0  0  0  0  0  0  0
   10.2305   -2.8903   47.7858 O   0  0  0  0  0  0  0  0  0  0  0  0
   11.5307   -2.6759   47.2852 C   0  0  0  0  0  0  0  0  0  0  0  0
   11.7232   -3.0362   46.0071 C   0  0  0  0  0  0  0  0  0  0  0  0
   12.0298   -1.4129   47.7923 C   0  0  0  0  0  0  0  0  0  0  0  0
   13.2993   -1.0524   47.2189 C   0  0  0  0  0  0  0  0  0  0  0  0
   13.0901   -2.6687   45.4161 C   0  0  0  0  0  0  0  0  0  0  0  0
   13.4006   -1.2895   45.7547 N   0  0  0  0  0  0  0  0  0  0  0  0
   14.0467   -0.5115   44.9213 C   0  0  0  0  0  0  0  0  0  0  0  0
  1  2  1  0
  2  3  2  0
  3  4  1  0
  1  5  2  0
  4  5  1  0
  4  6  2  0
  5  7  1  0
  7  8  2  0
  6  9  1  0
  3 10  1  0
  9 11  2  0
 10 11  1  0
  7 12  1  0
 12 13  2  0
  9 14  1  0
 11 15  1  0
 14 16  1  0
 13 17  1  0
 16 18  1  0
 14 19  2  0
 15 20  2  0
 19 20  1  0
 19 21  1  0
 21 22  2  3
  8 23  1  0
 17 23  2  0
 18 24  2  0
 18 25  1  0
 25 26  1  0
 21 27  1  0
 26 27  1  0
 22 28  1  0
 28 29  1  0
 29 30  1  0
 29 31  1  0
 31 32  1  0
 30 33  1  0
 32 34  1  0
 33 34  1  0
 34 35  1  0
M  END
$$$$
O14757_Pocket2Mol_idx-in-all-generaetd-216
     RDKit          3D

 21 23  0  0  0  0  0  0  0  0999 V2000
    5.5575   -0.4055   43.2321 N   0  0  0  0  0  0  0  0  0  0  0  0
    4.3352   -0.4199   42.8749 C   0  0  0  0  0  0  0  0  0  0  0  0
    3.7259    0.6666   42.2808 N   0  0  0  0  0  0  0  0  0  0  0  0
    5.8648   -1.5886   44.0187 C   0  0  0  0  0  0  0  0  0  0  0  0
    3.6427   -1.5633   43.3994 C   0  0  0  0  0  0  0  0  0  0  0  0
    4.7152   -2.3213   44.3369 N   0  0  0  0  0  0  0  0  0  0  0  0
    2.4299   -2.1105   43.0544 C   0  0  0  0  0  0  0  0  0  0  0  0
    4.5711   -3.4625   44.8841 C   0  0  0  0  0  0  0  0  0  0  0  0
    5.2239   -3.5105   46.1487 C   0  0  0  0  0  0  0  0  0  0  0  0
    1.6614   -1.4396   42.1875 N   0  0  0  0  0  0  0  0  0  0  0  0
    1.9934   -3.3725   43.4300 C   0  0  0  0  0  0  0  0  0  0  0  0
    6.5978   -3.4361   46.2051 C   0  0  0  0  0  0  0  0  0  0  0  0
    0.7486   -3.5466   43.0207 C   0  0  0  0  0  0  0  0  0  0  0  0
    7.3881   -2.2928   46.2342 C   0  0  2  0  0  0  0  0  0  0  0  0
    0.5188   -2.3195   42.1704 N   0  0  0  0  0  0  0  0  0  0  0  0
   -0.6123   -1.9494   41.3734 C   0  0  0  0  0  0  0  0  0  0  0  0
    7.1415   -1.6070   44.8345 C   0  0  0  0  0  0  0  0  0  0  0  0
    8.8049   -2.3207   46.3656 C   0  0  0  0  0  0  0  0  0  0  0  0
    9.3880   -3.2508   46.1922 O   0  0  0  0  0  0  0  0  0  0  0  0
    9.1722   -1.2260   47.1564 O   0  0  0  0  0  0  0  0  0  0  0  0
   10.5780   -1.1398   47.5458 C   0  0  0  0  0  0  0  0  0  0  0  0
  1  2  1  0
  2  3  1  0
  1  4  2  0
  2  5  2  0
  4  6  1  0
  5  6  1  0
  5  7  1  0
  6  8  1  0
  8  9  1  0
  7 10  2  0
  7 11  1  0
  9 12  1  0
 11 13  2  0
 12 14  1  0
 10 15  1  0
 13 15  1  0
 15 16  1  0
  4 17  1  0
 14 17  1  0
 14 18  1  6
 18 19  2  0
 18 20  1  0
 20 21  1  0
M  END
$$$$
O14757_Pocket2Mol_idx-in-all-generaetd-217
     RDKit          3D

 37 43  0  0  0  0  0  0  0  0999 V2000
    5.1775    0.2381   42.7925 N   0  0  0  0  0  0  0  0  0  0  0  0
    3.8485    0.3515   42.4285 N   0  0  0  0  0  0  0  0  0  0  0  0
    5.5201   -0.8216   43.5188 C   0  0  0  0  0  0  0  0  0  0  0  0
    4.5575   -1.7838   43.9113 C   0  0  0  0  0  0  0  0  0  0  0  0
    2.9777   -0.5504   42.6073 C   0  0  0  0  0  0  0  0  0  0  0  0
    4.8521   -2.9209   44.7316 C   0  0  0  0  0  0  0  0  0  0  0  0
    3.2351   -1.5675   43.1903 C   0  0  0  0  0  0  0  0  0  0  0  0
    1.6955   -0.2711   41.8967 C   0  0  0  0  0  0  0  0  0  0  0  0
    0.8864   -1.3663   42.0618 C   0  0  0  0  0  0  0  0  0  0  0  0
    2.3187   -2.7500   43.4543 C   0  0  0  0  0  0  0  0  0  0  0  0
    1.1071   -2.5907   42.7445 C   0  0  0  0  0  0  0  0  0  0  0  0
    6.0979   -2.8249   45.5633 C   0  0  0  0  0  0  0  0  0  0  0  0
    0.0423   -3.6939   42.8205 C   0  0  0  0  0  0  0  0  0  0  0  0
    4.2011   -4.0423   44.9363 C   0  0  0  0  0  0  0  0  0  0  0  0
    4.5424   -5.0339   45.7893 C   0  0  0  0  0  0  0  0  0  0  0  0
   -0.0110   -4.4040   41.6463 N   0  0  0  0  0  0  0  0  0  0  0  0
    2.8431   -3.9954   44.0809 C   0  0  0  0  0  0  0  0  0  0  0  0
    7.0703   -1.6758   45.5388 C   0  0  0  0  0  0  0  0  0  0  0  0
    6.5324   -3.6602   46.4424 C   0  0  0  0  0  0  0  0  0  0  0  0
    5.6842   -4.8828   46.5405 C   0  0  0  0  0  0  0  0  0  0  0  0
    6.7957   -0.7421   44.3455 N   0  0  0  0  0  0  0  0  0  0  0  0
   -0.5371   -3.9067   43.6730 O   0  0  0  0  0  0  0  0  0  0  0  0
    8.1253   -1.3380   46.2529 C   0  0  0  0  0  0  0  0  0  0  0  0
    8.4826   -2.3424   47.1646 C   0  0  0  0  0  0  0  0  0  0  0  0
    7.6160   -3.5262   47.3486 C   0  0  0  0  0  0  0  0  0  0  0  0
    9.6963   -2.1931   47.9970 C   0  0  0  0  0  0  0  0  0  0  0  0
    9.5527   -1.4028   48.9318 O   0  0  0  0  0  0  0  0  0  0  0  0
   10.7595   -2.8202   47.7301 O   0  0  0  0  0  0  0  0  0  0  0  0
   11.5009   -2.2828   46.6278 C   0  0  0  0  0  0  0  0  0  0  0  0
   12.6280   -1.6044   46.9222 C   0  0  0  0  0  0  0  0  0  0  0  0
   11.2344   -2.7160   45.2873 C   0  0  0  0  0  0  0  0  0  0  0  0
   11.9824   -2.2802   44.2730 C   0  0  0  0  0  0  0  0  0  0  0  0
   12.9544   -1.2252   48.3084 C   0  0  0  0  0  0  0  0  0  0  0  0
   12.6947   -0.0468   48.6551 O   0  0  0  0  0  0  0  0  0  0  0  0
   13.8013   -1.9182   48.9121 O   0  0  0  0  0  0  0  0  0  0  0  0
   13.1152   -1.4568   44.5323 C   0  0  0  0  0  0  0  0  0  0  0  0
   13.4987   -1.1147   45.8686 C   0  0  0  0  0  0  0  0  0  0  0  0
  1  2  2  0
  1  3  1  0
  3  4  2  0
  2  5  1  0
  4  6  1  0
  4  7  1  0
  5  7  2  0
  5  8  1  0
  8  9  2  0
  7 10  1  0
  9 11  1  0
 10 11  2  0
  6 12  2  0
 11 13  1  0
  6 14  1  0
 14 15  2  0
 13 16  1  0
 10 17  1  0
 14 17  1  0
 12 18  1  0
 12 19  1  0
 15 20  1  0
 19 20  2  0
  3 21  1  0
 18 21  2  0
 13 22  2  0
 18 23  1  0
 23 24  2  0
 19 25  1  0
 24 25  1  0
 24 26  1  0
 26 27  2  0
 26 28  1  0
 28 29  1  0
 29 30  2  0
 29 31  1  0
 31 32  2  0
 30 33  1  0
 33 34  2  0
 33 35  1  0
 32 36  1  0
 30 37  1  0
 36 37  2  0
M  END
$$$$
O14757_Pocket2Mol_idx-in-all-generaetd-218
     RDKit          3D

 46 53  0  0  0  0  0  0  0  0999 V2000
    5.3420    0.2589   42.8836 O   0  0  0  0  0  0  0  0  0  0  0  0
    5.1627   -0.7554   43.4753 C   0  0  0  0  0  0  0  0  0  0  0  0
    4.0509   -1.4657   43.4177 N   0  0  0  0  0  0  0  0  0  0  0  0
    5.9969   -1.2317   44.6840 C   0  0  0  0  0  0  0  0  0  0  0  0
    2.9618   -1.1021   42.5918 C   0  0  1  0  0  0  0  0  0  0  0  0
    7.3392   -0.8596   44.8412 C   0  0  0  0  0  0  0  0  0  0  0  0
    1.9754   -2.0820   42.2741 C   0  0  0  0  0  0  0  0  0  0  0  0
    5.5910   -2.4282   45.3439 C   0  0  0  0  0  0  0  0  0  0  0  0
    6.5874   -2.9636   46.1581 C   0  0  0  0  0  0  0  0  0  0  0  0
    4.2763   -3.0680   45.0493 N   0  0  0  0  0  0  0  0  0  0  0  0
    3.6188   -2.5886   44.2024 C   0  0  0  0  0  0  0  0  0  0  0  0
    8.1921   -1.4071   45.7505 C   0  0  0  0  0  0  0  0  0  0  0  0
    1.0154   -1.8839   41.2980 C   0  0  0  0  0  0  0  0  0  0  0  0
    2.5720   -3.3564   43.9063 C   0  0  0  0  0  0  0  0  0  0  0  0
    0.2502   -2.8976   41.0751 C   0  0  0  0  0  0  0  0  0  0  0  0
    6.1761   -4.1775   47.0209 C   0  0  0  0  0  0  0  0  0  0  0  0
    1.7266   -3.1047   43.0115 C   0  0  2  0  0  0  0  0  0  0  0  0
    2.3696   -4.5367   44.7536 N   0  0  0  0  0  0  0  0  0  0  0  0
    1.2264   -5.2346   44.4693 C   0  0  0  0  0  0  0  0  0  0  0  0
    0.7187   -3.8955   42.5465 C   0  0  0  0  0  0  0  0  0  0  0  0
    9.4576   -0.8949   46.0327 N   0  0  0  0  0  0  0  0  0  0  0  0
    0.8625   -6.3901   45.2462 C   0  0  0  0  0  0  0  0  0  0  0  0
    7.6467   -2.5139   46.4892 C   0  0  0  0  0  0  0  0  0  0  0  0
   10.4908   -1.5336   45.8242 C   0  0  0  0  0  0  0  0  0  0  0  0
    0.3057   -4.9299   43.2909 C   0  0  0  0  0  0  0  0  0  0  0  0
   11.5916   -1.4291   46.7436 C   0  0  0  0  0  0  0  0  0  0  0  0
   10.5566   -2.3672   44.8649 O   0  0  0  0  0  0  0  0  0  0  0  0
    2.4730    0.2084   42.8389 O   0  0  0  0  0  0  0  0  0  0  0  0
   11.6027   -2.2081   47.7725 N   0  0  0  0  0  0  0  0  0  0  0  0
   12.6189   -0.5862   46.5415 C   0  0  0  0  0  0  0  0  0  0  0  0
   13.6413   -0.4484   47.4129 C   0  0  0  0  0  0  0  0  0  0  0  0
   10.4764   -3.1097   48.1134 C   0  0  0  0  0  0  0  0  0  0  0  0
    9.5762   -2.4717   49.0753 C   0  0  0  0  0  0  0  0  0  0  0  0
    9.7761   -1.2394   49.5167 C   0  0  0  0  0  0  0  0  0  0  0  0
    8.6397   -3.3252   49.7339 C   0  0  0  0  0  0  0  0  0  0  0  0
    8.9861   -0.7034   50.5819 C   0  0  0  0  0  0  0  0  0  0  0  0
   14.7137    0.5128   47.0925 C   0  0  0  0  0  0  0  0  0  0  0  0
    8.1815   -1.5423   51.2387 C   0  0  0  0  0  0  0  0  0  0  0  0
    8.4156   -4.7176   49.2102 O   0  0  0  0  0  0  0  0  0  0  0  0
   13.6915   -1.2597   48.4795 C   0  0  0  0  0  0  0  0  0  0  0  0
   14.7842   -1.1839   49.3622 C   0  0  0  0  0  0  0  0  0  0  0  0
   15.7412    0.6156   47.9897 C   0  0  0  0  0  0  0  0  0  0  0  0
    7.9465   -2.8417   50.8178 C   0  0  0  0  0  0  0  0  0  0  0  0
    8.0049   -5.5759   49.9634 C   0  0  0  0  0  0  0  0  0  0  0  0
   12.6213   -2.3698   48.7477 C   0  0  0  0  0  0  0  0  0  0  0  0
   15.6956   -0.2344   49.0887 C   0  0  0  0  0  0  0  0  0  0  0  0
  1  2  2  0
  2  3  1  0
  2  4  1  0
  3  5  1  0
  4  6  2  0
  5  7  1  0
  4  8  1  0
  8  9  2  0
  8 10  1  0
  3 11  1  0
 10 11  2  0
  6 12  1  0
  7 13  2  0
 11 14  1  0
 13 15  1  0
  9 16  1  0
 17  7  1  6
 14 17  1  0
 14 18  2  0
 18 19  1  0
 15 20  2  0
 17 20  1  0
 12 21  1  0
 19 22  1  0
  9 23  1  0
 12 23  2  0
 21 24  1  0
 19 25  2  0
 20 25  1  0
 24 26  1  0
 24 27  2  0
  5 28  1  1
 26 29  1  0
 26 30  2  0
 30 31  1  0
 29 32  1  0
 32 33  1  0
 33 34  2  0
 33 35  1  0
 34 36  1  0
 31 37  2  0
 36 38  2  0
 35 39  1  0
 31 40  1  0
 40 41  2  0
 37 42  1  0
 35 43  2  0
 38 43  1  0
 39 44  1  0
 29 45  1  0
 40 45  1  0
 41 46  1  0
 42 46  2  0
M  END
$$$$
O14757_Pocket2Mol_idx-in-all-generaetd-219
     RDKit          3D

 44 52  0  0  0  0  0  0  0  0999 V2000
    1.5482   -0.3111   41.9233 C   0  0  0  0  0  0  0  0  0  0  0  0
    2.7284    0.2018   42.1525 N   0  0  0  0  0  0  0  0  0  0  0  0
    3.7893   -0.3016   42.7005 C   0  0  0  0  0  0  0  0  0  0  0  0
    3.3781   -1.7350   43.0000 C   0  0  0  0  0  0  0  0  0  0  0  0
    2.0339   -1.9619   42.6217 C   0  0  0  0  0  0  0  0  0  0  0  0
    4.1166   -2.4997   43.8458 C   0  0  0  0  0  0  0  0  0  0  0  0
    1.1731   -3.0051   42.5773 C   0  0  0  0  0  0  0  0  0  0  0  0
    0.4701   -3.2344   41.4901 C   0  0  0  0  0  0  0  0  0  0  0  0
    5.3799   -1.7814   44.2691 C   0  0  0  0  0  0  0  0  0  0  0  0
    5.0159   -0.0180   43.1201 N   0  0  0  0  0  0  0  0  0  0  0  0
    5.7693   -0.6937   43.8418 C   0  0  0  0  0  0  0  0  0  0  0  0
    0.8078   -3.6166   43.6782 C   0  0  0  0  0  0  0  0  0  0  0  0
    0.0663   -4.7011   43.7415 N   0  0  0  0  0  0  0  0  0  0  0  0
    6.2223   -2.6843   45.1565 C   0  0  0  0  0  0  0  0  0  0  0  0
    6.9599   -0.2351   44.2608 N   0  0  0  0  0  0  0  0  0  0  0  0
    5.9065   -3.9037   45.7499 N   0  0  0  0  0  0  0  0  0  0  0  0
   -0.5459   -5.1185   42.5870 C   0  0  0  0  0  0  0  0  0  0  0  0
    5.7480   -4.0340   46.9810 C   0  0  0  0  0  0  0  0  0  0  0  0
    7.4448   -1.8511   45.4198 C   0  0  0  0  0  0  0  0  0  0  0  0
    7.7572   -0.7827   45.0128 C   0  0  0  0  0  0  0  0  0  0  0  0
    8.4076   -2.7217   46.4541 C   0  0  0  0  0  0  0  0  0  0  0  0
    9.3167   -2.0988   47.1049 N   0  0  0  0  0  0  0  0  0  0  0  0
   -0.4719   -4.3893   41.5406 C   0  0  0  0  0  0  0  0  0  0  0  0
    8.3667   -4.0284   46.5743 N   0  0  0  0  0  0  0  0  0  0  0  0
    9.5309   -4.3147   47.3094 C   0  0  0  0  0  0  0  0  0  0  0  0
    5.3113   -3.3789   47.8005 O   0  0  0  0  0  0  0  0  0  0  0  0
    9.9022   -5.6301   47.7684 C   0  0  0  0  0  0  0  0  0  0  0  0
    5.4470   -5.5868   47.2096 C   0  0  0  0  0  0  0  0  0  0  0  0
   11.2254   -5.8679   48.0402 C   0  0  0  0  0  0  0  0  0  0  0  0
    8.9736   -6.6532   47.8548 C   0  0  0  0  0  0  0  0  0  0  0  0
   10.0616   -3.0670   47.6360 C   0  0  0  0  0  0  0  0  0  0  0  0
    7.5566   -6.3564   47.5477 N   0  0  0  0  0  0  0  0  0  0  0  0
    6.4157   -6.1721   48.0913 C   0  0  0  0  0  0  0  0  0  0  0  0
   12.3275   -4.8510   47.9324 C   0  0  1  0  0  0  0  0  0  0  0  0
    9.4585   -7.9662   48.0726 C   0  0  0  0  0  0  0  0  0  0  0  0
   11.5288   -2.7910   48.1740 C   0  0  0  0  0  0  0  0  0  0  0  0
   11.6989   -7.1590   48.3688 C   0  0  0  0  0  0  0  0  0  0  0  0
   12.2755   -3.6526   48.1917 N   0  0  0  0  0  0  0  0  0  0  0  0
   13.0611   -7.4253   48.6753 O   0  0  0  0  0  0  0  0  0  0  0  0
   13.8174   -6.4685   48.1995 C   0  0  0  0  0  0  0  0  0  0  0  0
   15.3489   -6.9556   48.2787 O   0  0  0  0  0  0  0  0  0  0  0  0
   10.8805   -8.1422   48.4735 C   0  0  0  0  0  0  0  0  0  0  0  0
   13.7724   -5.1561   48.2598 C   0  0  0  0  0  0  0  0  0  0  0  0
   16.1570   -6.1028   47.9448 C   0  0  0  0  0  0  0  0  0  0  0  0
  1  2  1  0
  2  3  2  0
  3  4  1  0
  1  5  2  0
  4  5  1  0
  4  6  2  0
  5  7  1  0
  7  8  2  0
  6  9  1  0
  3 10  1  0
  9 11  2  0
 10 11  1  0
  7 12  1  0
 12 13  2  0
  9 14  1  0
 11 15  1  0
 14 16  1  0
 13 17  1  0
 16 18  1  0
 14 19  2  0
 15 20  2  0
 19 20  1  0
 19 21  1  0
 21 22  2  0
  8 23  1  0
 17 23  2  0
 21 24  1  0
 24 25  1  0
 18 26  2  0
 25 27  1  0
 18 28  1  0
 27 29  2  0
 27 30  1  0
 22 31  1  0
 25 31  2  0
 30 32  1  0
 28 33  1  0
 32 33  1  0
 29 34  1  0
 30 35  2  0
 31 36  1  0
 29 37  1  0
 34 38  1  0
 36 38  2  0
 37 39  1  0
 39 40  1  0
 40 41  1  0
 35 42  1  0
 37 42  2  0
 34 43  1  1
 40 43  2  0
 41 44  1  0
M  END
$$$$
O14757_Pocket2Mol_idx-in-all-generaetd-220
     RDKit          3D

 41 48  0  0  0  0  0  0  0  0999 V2000
    4.8173    0.2791   42.6993 N   0  0  0  0  0  0  0  0  0  0  0  0
    5.3297   -0.7477   43.3688 C   0  0  0  0  0  0  0  0  0  0  0  0
    3.4732   -0.2235   42.4530 C   0  0  0  0  0  0  0  0  0  0  0  0
    4.4984   -1.7876   43.6214 C   0  0  0  0  0  0  0  0  0  0  0  0
    3.3438   -1.5190   42.9379 C   0  0  0  0  0  0  0  0  0  0  0  0
    2.1381   -2.3401   42.8254 C   0  0  0  0  0  0  0  0  0  0  0  0
    2.3894    0.3572   41.9843 N   0  0  0  0  0  0  0  0  0  0  0  0
    4.9180   -3.0430   44.3829 C   0  0  0  0  0  0  0  0  0  0  0  0
    5.9444   -2.9314   45.3934 C   0  0  0  0  0  0  0  0  0  0  0  0
    4.2808   -4.1329   44.3252 C   0  0  0  0  0  0  0  0  0  0  0  0
    3.1588   -4.4221   43.4852 O   0  0  0  0  0  0  0  0  0  0  0  0
    4.5704   -5.2518   45.1995 C   0  0  0  0  0  0  0  0  0  0  0  0
    1.9853   -3.6792   43.3495 C   0  0  0  0  0  0  0  0  0  0  0  0
    0.9181   -4.3294   43.4638 C   0  0  0  0  0  0  0  0  0  0  0  0
    6.7403   -1.6226   45.5272 C   0  0  2  0  0  0  0  0  0  0  0  0
    0.9752   -1.7845   42.3366 C   0  0  0  0  0  0  0  0  0  0  0  0
    6.2516   -3.7287   46.2722 C   0  0  0  0  0  0  0  0  0  0  0  0
   -0.2404   -2.4179   42.2529 C   0  0  0  0  0  0  0  0  0  0  0  0
   -1.3835   -1.8904   41.6559 N   0  0  0  0  0  0  0  0  0  0  0  0
    3.8706   -6.4216   45.1394 O   0  0  0  0  0  0  0  0  0  0  0  0
    0.9456   -0.2789   41.7649 C   0  0  0  0  0  0  0  0  0  0  0  0
   -0.2678   -3.6969   42.7575 C   0  0  0  0  0  0  0  0  0  0  0  0
    6.3913   -0.7000   44.3807 N   0  0  0  0  0  0  0  0  0  0  0  0
    7.9391   -1.5867   46.0069 C   0  0  0  0  0  0  0  0  0  0  0  0
    8.7787   -0.4879   45.9761 O   0  0  0  0  0  0  0  0  0  0  0  0
    5.3853   -5.1216   46.3780 C   0  0  0  0  0  0  0  0  0  0  0  0
    8.4504   -2.7517   46.6262 N   0  0  0  0  0  0  0  0  0  0  0  0
    7.4807   -3.7374   47.0380 C   0  0  0  0  0  0  0  0  0  0  0  0
    9.7261   -2.6138   47.3732 C   0  0  0  0  0  0  0  0  0  0  0  0
    9.9606   -3.7577   48.0581 C   0  0  0  0  0  0  0  0  0  0  0  0
   11.0999   -4.4648   47.7368 O   0  0  0  0  0  0  0  0  0  0  0  0
   10.9199   -5.0316   46.4526 C   0  0  0  0  0  0  0  0  0  0  0  0
   10.2272   -6.0822   46.3751 C   0  0  0  0  0  0  0  0  0  0  0  0
   11.3454   -4.3181   45.2884 C   0  0  0  0  0  0  0  0  0  0  0  0
    9.6833   -6.6841   47.5703 O   0  0  0  0  0  0  0  0  0  0  0  0
   10.2626   -7.0665   45.3234 C   0  0  0  0  0  0  0  0  0  0  0  0
   12.0269   -3.1119   45.2900 C   0  0  0  0  0  0  0  0  0  0  0  0
   10.0333   -7.7975   48.1858 C   0  0  0  0  0  0  0  0  0  0  0  0
   11.4305   -5.0894   44.2641 C   0  0  0  0  0  0  0  0  0  0  0  0
    9.7665   -8.2318   45.3363 O   0  0  0  0  0  0  0  0  0  0  0  0
   10.8965   -6.4457   44.2221 C   0  0  0  0  0  0  0  0  0  0  0  0
  1  2  2  0
  1  3  1  0
  2  4  1  0
  3  5  1  0
  4  5  2  0
  5  6  1  0
  3  7  2  0
  4  8  1  0
  8  9  1  0
  8 10  2  0
 10 11  1  0
 10 12  1  0
  6 13  1  0
 11 13  1  0
 13 14  2  0
  9 15  1  0
  6 16  2  0
  9 17  2  0
 16 18  1  0
 18 19  1  0
 12 20  1  0
  7 21  1  0
 16 21  1  0
 14 22  1  0
 18 22  2  0
  2 23  1  0
 15 23  1  6
 15 24  1  0
 24 25  2  0
 12 26  2  0
 17 26  1  0
 24 27  1  0
 17 28  1  0
 27 28  1  0
 27 29  1  0
 29 30  1  0
 30 31  1  0
 31 32  1  0
 32 33  2  0
 32 34  1  0
 33 35  1  0
 33 36  1  0
 34 37  1  0
 35 38  1  0
 34 39  2  0
 36 40  1  0
 36 41  2  0
 39 41  1  0
M  END
$$$$
O14757_Pocket2Mol_idx-in-all-generaetd-221
     RDKit          3D

 33 38  0  0  0  0  0  0  0  0999 V2000
    5.3420    0.2589   42.8836 O   0  0  0  0  0  0  0  0  0  0  0  0
    5.1627   -0.7554   43.4753 C   0  0  0  0  0  0  0  0  0  0  0  0
    4.0509   -1.4657   43.4177 N   0  0  0  0  0  0  0  0  0  0  0  0
    5.9969   -1.2317   44.6840 C   0  0  0  0  0  0  0  0  0  0  0  0
    2.9618   -1.1021   42.5918 C   0  0  1  0  0  0  0  0  0  0  0  0
    7.3392   -0.8596   44.8412 C   0  0  0  0  0  0  0  0  0  0  0  0
    1.9754   -2.0820   42.2741 C   0  0  0  0  0  0  0  0  0  0  0  0
    5.5910   -2.4282   45.3439 C   0  0  0  0  0  0  0  0  0  0  0  0
    6.5874   -2.9636   46.1581 C   0  0  0  0  0  0  0  0  0  0  0  0
    4.2763   -3.0680   45.0493 N   0  0  0  0  0  0  0  0  0  0  0  0
    3.6188   -2.5886   44.2024 C   0  0  0  0  0  0  0  0  0  0  0  0
    8.1921   -1.4071   45.7505 C   0  0  0  0  0  0  0  0  0  0  0  0
    1.0154   -1.8839   41.2980 C   0  0  0  0  0  0  0  0  0  0  0  0
    2.5720   -3.3564   43.9063 C   0  0  0  0  0  0  0  0  0  0  0  0
    0.2502   -2.8976   41.0751 C   0  0  0  0  0  0  0  0  0  0  0  0
    6.1761   -4.1775   47.0209 C   0  0  0  0  0  0  0  0  0  0  0  0
    1.7266   -3.1047   43.0115 C   0  0  2  0  0  0  0  0  0  0  0  0
    2.3696   -4.5367   44.7536 N   0  0  0  0  0  0  0  0  0  0  0  0
    1.2264   -5.2346   44.4693 C   0  0  0  0  0  0  0  0  0  0  0  0
    0.7187   -3.8955   42.5465 C   0  0  0  0  0  0  0  0  0  0  0  0
    9.4576   -0.8949   46.0327 N   0  0  0  0  0  0  0  0  0  0  0  0
    0.8625   -6.3901   45.2462 C   0  0  0  0  0  0  0  0  0  0  0  0
    7.6467   -2.5139   46.4892 C   0  0  0  0  0  0  0  0  0  0  0  0
   10.4908   -1.5336   45.8242 C   0  0  0  0  0  0  0  0  0  0  0  0
    0.3057   -4.9299   43.2909 C   0  0  0  0  0  0  0  0  0  0  0  0
   11.5916   -1.4291   46.7436 C   0  0  0  0  0  0  0  0  0  0  0  0
   10.5566   -2.3672   44.8649 O   0  0  0  0  0  0  0  0  0  0  0  0
   11.6051   -2.2111   47.7709 N   0  0  0  0  0  0  0  0  0  0  0  0
    2.4805    0.2099   42.8350 O   0  0  0  0  0  0  0  0  0  0  0  0
   12.6177   -0.5842   46.5430 C   0  0  0  0  0  0  0  0  0  0  0  0
   13.6401   -0.4467   47.4142 C   0  0  0  0  0  0  0  0  0  0  0  0
   13.6146   -1.1990   48.5196 C   0  0  0  0  0  0  0  0  0  0  0  0
   12.5638   -2.0858   48.7147 C   0  0  0  0  0  0  0  0  0  0  0  0
  1  2  2  0
  2  3  1  0
  2  4  1  0
  3  5  1  0
  4  6  2  0
  5  7  1  0
  4  8  1  0
  8  9  2  0
  8 10  1  0
  3 11  1  0
 10 11  2  0
  6 12  1  0
  7 13  2  0
 11 14  1  0
 13 15  1  0
  9 16  1  0
 17  7  1  6
 14 17  1  0
 14 18  2  0
 18 19  1  0
 15 20  2  0
 17 20  1  0
 12 21  1  0
 19 22  1  0
  9 23  1  0
 12 23  2  0
 21 24  1  0
 19 25  2  0
 20 25  1  0
 24 26  1  0
 24 27  2  0
 26 28  2  0
  5 29  1  1
 26 30  1  0
 30 31  2  0
 31 32  1  0
 28 33  1  0
 32 33  2  0
M  END
$$$$
O14757_Pocket2Mol_idx-in-all-generaetd-222
     RDKit          3D

 21 23  0  0  0  0  0  0  0  0999 V2000
    5.3420    0.2589   42.8836 N   0  0  0  0  0  0  0  0  0  0  0  0
    5.6740   -0.8311   43.5645 C   0  0  0  0  0  0  0  0  0  0  0  0
    3.9899   -0.0458   42.5141 N   0  0  0  0  0  0  0  0  0  0  0  0
    4.6606   -1.7163   43.6337 C   0  0  0  0  0  0  0  0  0  0  0  0
    3.6244   -1.2025   42.8928 C   0  0  0  0  0  0  0  0  0  0  0  0
    2.3780   -1.7713   42.6359 C   0  0  0  0  0  0  0  0  0  0  0  0
    4.5721   -3.0267   44.2590 C   0  0  0  0  0  0  0  0  0  0  0  0
    1.3110   -1.1954   41.9273 C   0  0  0  0  0  0  0  0  0  0  0  0
    2.2543   -3.0870   43.2441 C   0  0  0  0  0  0  0  0  0  0  0  0
    6.9740   -1.0607   44.3429 C   0  0  0  0  0  0  0  0  0  0  0  0
    7.0610   -1.7818   45.5894 C   0  0  0  0  0  0  0  0  0  0  0  0
    1.1168   -3.8699   43.0019 N   0  0  0  0  0  0  0  0  0  0  0  0
    0.2325   -3.4883   42.1009 C   0  0  1  0  0  0  0  0  0  0  0  0
    8.2535   -1.6908   46.3200 C   0  0  0  0  0  0  0  0  0  0  0  0
   -0.7490   -4.2125   41.7806 O   0  0  0  0  0  0  0  0  0  0  0  0
    8.6192   -2.7899   47.0278 C   0  0  0  0  0  0  0  0  0  0  0  0
    0.2629   -2.1046   41.6175 C   0  0  0  0  0  0  0  0  0  0  0  0
    3.2813   -3.7244   44.0732 C   0  0  0  0  0  0  0  0  0  0  0  0
    9.4760   -2.6346   48.0199 O   0  0  0  0  0  0  0  0  0  0  0  0
    8.0389   -3.9513   46.7246 N   0  0  0  0  0  0  0  0  0  0  0  0
    9.0717   -0.5919   46.2269 C   0  0  0  0  0  0  0  0  0  0  0  0
  1  2  2  0
  1  3  1  0
  2  4  1  0
  3  5  1  0
  4  5  2  0
  5  6  1  0
  4  7  1  0
  6  8  1  0
  6  9  2  0
  2 10  1  0
 10 11  1  0
  9 12  1  0
 12 13  1  0
 11 14  1  0
 13 15  1  1
 14 16  1  0
  8 17  1  0
 13 17  1  0
  7 18  2  0
  9 18  1  0
 16 19  2  0
 16 20  1  0
 14 21  2  0
M  END
$$$$
O14757_Pocket2Mol_idx-in-all-generaetd-223
     RDKit          3D

 27 31  0  0  0  0  0  0  0  0999 V2000
    4.5156    0.0550   42.9895 N   0  0  0  0  0  0  0  0  0  0  0  0
    5.0618   -0.8645   43.5295 C   0  0  0  0  0  0  0  0  0  0  0  0
    4.4350   -2.0604   43.7783 C   0  0  0  0  0  0  0  0  0  0  0  0
    4.9987   -3.0994   44.5839 C   0  0  0  0  0  0  0  0  0  0  0  0
    3.2714   -1.8664   43.0632 C   0  0  0  0  0  0  0  0  0  0  0  0
    6.4064   -0.5942   44.3204 N   0  0  0  0  0  0  0  0  0  0  0  0
    3.2662   -0.5029   42.4637 C   0  0  1  0  0  0  0  0  0  0  0  0
    6.2094   -2.8994   45.2671 C   0  0  0  0  0  0  0  0  0  0  0  0
    2.1311   -2.7283   42.6149 C   0  0  0  0  0  0  0  0  0  0  0  0
    1.2031   -2.2156   41.7977 C   0  0  0  0  0  0  0  0  0  0  0  0
    0.1331   -3.1384   41.3837 C   0  0  0  0  0  0  0  0  0  0  0  0
    2.2239   -0.0756   41.7904 C   0  0  0  0  0  0  0  0  0  0  0  0
    6.8407   -1.5014   45.1300 C   0  0  0  0  0  0  0  0  0  0  0  0
    1.1705   -0.9157   41.4367 C   0  0  0  0  0  0  0  0  0  0  0  0
    8.0745   -1.2705   45.7566 C   0  0  0  0  0  0  0  0  0  0  0  0
    8.6211   -2.2130   46.7115 C   0  0  0  0  0  0  0  0  0  0  0  0
    6.7527   -3.8063   46.1672 C   0  0  0  0  0  0  0  0  0  0  0  0
    9.8071   -1.9409   47.4563 O   0  0  0  0  0  0  0  0  0  0  0  0
    7.9753   -3.4769   46.9003 C   0  0  0  0  0  0  0  0  0  0  0  0
   10.9253   -1.6673   46.6796 C   0  0  1  0  0  0  0  0  0  0  0  0
   -1.0276   -2.8899   41.4677 O   0  0  0  0  0  0  0  0  0  0  0  0
    0.5265   -4.1807   40.7422 O   0  0  0  0  0  0  0  0  0  0  0  0
   11.9186   -1.2594   47.2155 C   0  0  0  0  0  0  0  0  0  0  0  0
   11.1307   -2.7142   45.5507 C   0  0  0  0  0  0  0  0  0  0  0  0
   12.3892   -2.4872   45.0060 O   0  0  0  0  0  0  0  0  0  0  0  0
   13.0612   -1.3560   45.4751 C   0  0  0  0  0  0  0  0  0  0  0  0
   13.1294   -1.0704   46.8998 C   0  0  0  0  0  0  0  0  0  0  0  0
  1  2  2  0
  2  3  1  0
  3  4  1  0
  3  5  2  0
  2  6  1  0
  1  7  1  0
  5  7  1  0
  4  8  2  0
  5  9  1  0
  9 10  2  0
 10 11  1  0
  7 12  1  1
  6 13  2  0
  8 13  1  0
 10 14  1  0
 12 14  2  0
 13 15  1  0
 15 16  2  0
  8 17  1  0
 16 18  1  0
 16 19  1  0
 17 19  2  0
 20 18  1  1
 11 21  2  0
 11 22  1  0
 20 23  1  0
 20 24  1  0
 24 25  1  0
 25 26  1  0
 23 27  1  0
 26 27  1  0
M  END
$$$$
O14757_Pocket2Mol_idx-in-all-generaetd-224
     RDKit          3D

 49 57  0  0  0  0  0  0  0  0999 V2000
    5.3420    0.2589   42.8836 O   0  0  0  0  0  0  0  0  0  0  0  0
    5.1627   -0.7554   43.4753 C   0  0  0  0  0  0  0  0  0  0  0  0
    4.0509   -1.4657   43.4177 N   0  0  0  0  0  0  0  0  0  0  0  0
    5.9969   -1.2317   44.6840 C   0  0  0  0  0  0  0  0  0  0  0  0
    2.9618   -1.1021   42.5918 C   0  0  1  0  0  0  0  0  0  0  0  0
    7.3392   -0.8596   44.8412 C   0  0  0  0  0  0  0  0  0  0  0  0
    1.9754   -2.0820   42.2741 C   0  0  0  0  0  0  0  0  0  0  0  0
    5.5910   -2.4282   45.3439 C   0  0  0  0  0  0  0  0  0  0  0  0
    6.5874   -2.9636   46.1581 C   0  0  0  0  0  0  0  0  0  0  0  0
    4.2763   -3.0680   45.0493 N   0  0  0  0  0  0  0  0  0  0  0  0
    3.6188   -2.5886   44.2024 C   0  0  0  0  0  0  0  0  0  0  0  0
    8.1921   -1.4071   45.7505 C   0  0  0  0  0  0  0  0  0  0  0  0
    1.0154   -1.8839   41.2980 C   0  0  0  0  0  0  0  0  0  0  0  0
    2.5720   -3.3564   43.9063 C   0  0  0  0  0  0  0  0  0  0  0  0
    0.2502   -2.8976   41.0751 C   0  0  0  0  0  0  0  0  0  0  0  0
    6.1761   -4.1775   47.0209 C   0  0  0  0  0  0  0  0  0  0  0  0
    1.7266   -3.1047   43.0115 C   0  0  2  0  0  0  0  0  0  0  0  0
    2.3696   -4.5367   44.7536 N   0  0  0  0  0  0  0  0  0  0  0  0
    1.2264   -5.2346   44.4693 C   0  0  0  0  0  0  0  0  0  0  0  0
    0.7187   -3.8955   42.5465 C   0  0  0  0  0  0  0  0  0  0  0  0
    9.4576   -0.8949   46.0327 N   0  0  0  0  0  0  0  0  0  0  0  0
    0.8625   -6.3901   45.2462 C   0  0  0  0  0  0  0  0  0  0  0  0
    7.6467   -2.5139   46.4892 C   0  0  0  0  0  0  0  0  0  0  0  0
   10.4908   -1.5336   45.8242 C   0  0  0  0  0  0  0  0  0  0  0  0
    0.3057   -4.9299   43.2909 C   0  0  0  0  0  0  0  0  0  0  0  0
   11.5916   -1.4291   46.7436 C   0  0  0  0  0  0  0  0  0  0  0  0
   10.5566   -2.3672   44.8649 O   0  0  0  0  0  0  0  0  0  0  0  0
    2.4730    0.2084   42.8389 O   0  0  0  0  0  0  0  0  0  0  0  0
   11.6027   -2.2081   47.7725 N   0  0  0  0  0  0  0  0  0  0  0  0
   12.6189   -0.5862   46.5415 C   0  0  0  0  0  0  0  0  0  0  0  0
   13.6413   -0.4484   47.4129 C   0  0  0  0  0  0  0  0  0  0  0  0
   10.4764   -3.1097   48.1134 C   0  0  0  0  0  0  0  0  0  0  0  0
    9.5762   -2.4717   49.0753 C   0  0  0  0  0  0  0  0  0  0  0  0
    9.7761   -1.2394   49.5167 C   0  0  0  0  0  0  0  0  0  0  0  0
    8.6397   -3.3252   49.7339 C   0  0  0  0  0  0  0  0  0  0  0  0
    8.9861   -0.7034   50.5819 C   0  0  0  0  0  0  0  0  0  0  0  0
   14.7137    0.5128   47.0925 C   0  0  0  0  0  0  0  0  0  0  0  0
    8.3536   -4.6815   49.2042 C   0  0  0  0  0  0  0  0  0  0  0  0
    7.9034   -2.7594   50.6763 C   0  0  0  0  0  0  0  0  0  0  0  0
    6.9327   -5.0150   49.0248 N   0  0  0  0  0  0  0  0  0  0  0  0
    8.1305   -1.4992   51.1482 C   0  0  0  0  0  0  0  0  0  0  0  0
    6.3852   -3.9495   48.3951 C   0  0  0  0  0  0  0  0  0  0  0  0
   13.6768   -1.2836   48.4696 C   0  0  0  0  0  0  0  0  0  0  0  0
   14.7714   -1.2324   49.3357 C   0  0  0  0  0  0  0  0  0  0  0  0
   12.4977   -2.1502   48.5649 C   0  0  0  0  0  0  0  0  0  0  0  0
   15.7376    0.5928   48.0109 C   0  0  0  0  0  0  0  0  0  0  0  0
   14.8423   -2.0654   50.4950 O   0  0  0  0  0  0  0  0  0  0  0  0
   16.8241    1.4935   47.8318 O   0  0  0  0  0  0  0  0  0  0  0  0
   15.8464   -0.3143   49.2278 C   0  0  0  0  0  0  0  0  0  0  0  0
  1  2  2  0
  2  3  1  0
  2  4  1  0
  3  5  1  0
  4  6  2  0
  5  7  1  0
  4  8  1  0
  8  9  2  0
  8 10  1  0
  3 11  1  0
 10 11  2  0
  6 12  1  0
  7 13  2  0
 11 14  1  0
 13 15  1  0
  9 16  1  0
 17  7  1  6
 14 17  1  0
 14 18  2  0
 18 19  1  0
 15 20  2  0
 17 20  1  0
 12 21  1  0
 19 22  1  0
  9 23  1  0
 12 23  2  0
 21 24  1  0
 19 25  2  0
 20 25  1  0
 24 26  1  0
 24 27  2  0
  5 28  1  1
 26 29  1  0
 26 30  2  0
 30 31  1  0
 29 32  1  0
 32 33  1  0
 33 34  1  0
 33 35  2  0
 34 36  2  0
 31 37  2  0
 35 38  1  0
 35 39  1  0
 38 40  1  0
 36 41  1  0
 39 41  2  0
 16 42  1  0
 40 42  1  0
 31 43  1  0
 43 44  2  0
 29 45  1  0
 43 45  1  0
 37 46  1  0
 44 47  1  0
 46 48  1  0
 44 49  1  0
 46 49  2  0
M  END
$$$$
O14757_Pocket2Mol_idx-in-all-generaetd-225
     RDKit          3D

 24 27  0  0  0  0  0  0  0  0999 V2000
    0.3497   -2.5592   41.5321 C   0  0  0  0  0  0  0  0  0  0  0  0
    0.7059   -1.3065   41.4152 C   0  0  0  0  0  0  0  0  0  0  0  0
    2.0121   -0.9206   42.0074 C   0  0  0  0  0  0  0  0  0  0  0  0
    2.8273   -1.8583   42.7096 C   0  0  0  0  0  0  0  0  0  0  0  0
   -0.9158   -2.9896   41.0259 O   0  0  0  0  0  0  0  0  0  0  0  0
    2.1785   -3.2182   42.8202 C   0  0  0  0  0  0  0  0  0  0  0  0
    2.9957   -4.0364   43.6549 N   0  0  0  0  0  0  0  0  0  0  0  0
    1.0381   -3.5102   42.3147 C   0  0  0  0  0  0  0  0  0  0  0  0
    4.0501   -1.4436   43.3296 C   0  0  0  0  0  0  0  0  0  0  0  0
    4.2345   -3.7127   44.1966 C   0  0  0  0  0  0  0  0  0  0  0  0
    4.9099   -4.6363   45.0387 N   0  0  0  0  0  0  0  0  0  0  0  0
    4.7563   -2.4299   44.0678 C   0  0  0  0  0  0  0  0  0  0  0  0
    6.0306   -2.0532   44.6670 C   0  0  0  0  0  0  0  0  0  0  0  0
    4.6111   -0.1656   43.0716 N   0  0  0  0  0  0  0  0  0  0  0  0
    6.7834   -2.7598   45.5925 N   0  0  0  0  0  0  0  0  0  0  0  0
    8.0062   -2.3962   46.0654 C   0  0  0  0  0  0  0  0  0  0  0  0
    8.3845   -1.1262   46.4117 C   0  0  0  0  0  0  0  0  0  0  0  0
    6.3026   -0.6817   44.5619 N   0  0  0  0  0  0  0  0  0  0  0  0
    5.6684    0.0898   43.6845 C   0  0  0  0  0  0  0  0  0  0  0  0
    8.3525   -3.2296   47.1905 C   0  0  0  0  0  0  0  0  0  0  0  0
    9.8112   -0.8718   46.4448 C   0  0  0  0  0  0  0  0  0  0  0  0
   -2.1452   -2.6079   41.5170 C   0  0  0  0  0  0  0  0  0  0  0  0
   10.3633   -1.7219   47.5388 C   0  0  0  0  0  0  0  0  0  0  0  0
    9.8969   -3.1653   47.3814 C   0  0  0  0  0  0  0  0  0  0  0  0
  1  2  2  0
  2  3  1  0
  3  4  2  0
  1  5  1  0
  4  6  1  0
  6  7  1  0
  1  8  1  0
  6  8  2  0
  4  9  1  0
  7 10  2  0
 10 11  1  0
  9 12  2  0
 10 12  1  0
 12 13  1  0
  9 14  1  0
 13 15  1  0
 15 16  1  0
 16 17  1  0
 13 18  2  0
 14 19  2  0
 18 19  1  0
 16 20  1  0
 17 21  1  0
  5 22  1  0
 21 23  1  0
 20 24  1  0
 23 24  1  0
M  END
$$$$
O14757_Pocket2Mol_idx-in-all-generaetd-226
     RDKit          3D

 40 48  0  0  0  0  0  0  0  0999 V2000
    1.5482   -0.3111   41.9233 C   0  0  0  0  0  0  0  0  0  0  0  0
    2.7284    0.2018   42.1525 N   0  0  0  0  0  0  0  0  0  0  0  0
    3.7893   -0.3016   42.7005 C   0  0  0  0  0  0  0  0  0  0  0  0
    3.3781   -1.7350   43.0000 C   0  0  0  0  0  0  0  0  0  0  0  0
    2.0339   -1.9619   42.6217 C   0  0  0  0  0  0  0  0  0  0  0  0
    5.0090    0.1219   42.9340 N   0  0  0  0  0  0  0  0  0  0  0  0
    4.2895   -2.4979   43.6707 C   0  0  0  0  0  0  0  0  0  0  0  0
    5.8391   -0.6675   43.6343 C   0  0  0  0  0  0  0  0  0  0  0  0
    6.9849   -0.2377   44.0028 N   0  0  0  0  0  0  0  0  0  0  0  0
    4.0426   -3.8794   44.0832 C   0  0  0  0  0  0  0  0  0  0  0  0
    7.6796   -0.8734   44.9326 C   0  0  0  0  0  0  0  0  0  0  0  0
    1.1064   -2.9576   42.4211 C   0  0  0  0  0  0  0  0  0  0  0  0
    5.5298   -1.9496   44.0315 C   0  0  0  0  0  0  0  0  0  0  0  0
    3.8954   -4.1817   45.4718 C   0  0  0  0  0  0  0  0  0  0  0  0
    0.6765   -3.5480   43.4006 C   0  0  1  0  0  0  0  0  0  0  0  0
    0.5804   -3.2191   41.1635 C   0  0  0  0  0  0  0  0  0  0  0  0
    2.8083   -4.8227   45.9203 N   0  0  0  0  0  0  0  0  0  0  0  0
   -0.1574   -4.5754   42.9329 N   0  0  0  0  0  0  0  0  0  0  0  0
    6.5271   -2.5531   44.9677 C   0  0  0  0  0  0  0  0  0  0  0  0
   -0.2272   -4.3703   41.5137 C   0  0  0  0  0  0  0  0  0  0  0  0
    7.5095   -2.0029   45.3993 C   0  0  0  0  0  0  0  0  0  0  0  0
    8.2550   -2.6982   46.3988 C   0  0  0  0  0  0  0  0  0  0  0  0
    8.8975   -0.3029   45.3267 O   0  0  0  0  0  0  0  0  0  0  0  0
    4.8299   -4.4637   46.4212 C   0  0  0  0  0  0  0  0  0  0  0  0
    4.2707   -4.9248   47.6295 N   0  0  0  0  0  0  0  0  0  0  0  0
    3.2045   -5.2092   47.1521 C   0  0  0  0  0  0  0  0  0  0  0  0
    1.4482   -4.6186   45.4134 C   0  0  1  0  0  0  0  0  0  0  0  0
    1.2398   -3.5043   44.6236 O   0  0  0  0  0  0  0  0  0  0  0  0
    6.3317   -3.9297   46.0870 C   0  0  2  0  0  0  0  0  0  0  0  0
    9.5296   -2.5449   46.9776 C   0  0  0  0  0  0  0  0  0  0  0  0
    9.7921   -1.7530   47.9018 O   0  0  0  0  0  0  0  0  0  0  0  0
    7.3972   -3.8130   46.7939 C   0  0  0  0  0  0  0  0  0  0  0  0
    1.2392   -5.7793   44.5610 C   0  0  0  0  0  0  0  0  0  0  0  0
   10.4934   -3.0755   46.3117 N   0  0  0  0  0  0  0  0  0  0  0  0
   10.3750   -4.1130   45.4302 C   0  0  0  0  0  0  0  0  0  0  0  0
   11.8947   -2.7998   46.7984 C   0  0  0  0  0  0  0  0  0  0  0  0
   12.8362   -2.7998   45.7275 C   0  0  1  0  0  0  0  0  0  0  0  0
   11.7375   -4.7913   45.1817 C   0  0  0  0  0  0  0  0  0  0  0  0
   14.0236   -2.1316   45.9685 O   0  0  0  0  0  0  0  0  0  0  0  0
   12.9905   -4.1791   45.2905 C   0  0  0  0  0  0  0  0  0  0  0  0
  1  2  1  0
  2  3  2  0
  3  4  1  0
  1  5  2  0
  4  5  1  0
  3  6  1  0
  4  7  2  0
  6  8  1  0
  8  9  1  0
  7 10  1  0
  9 11  1  0
  5 12  1  0
  7 13  1  0
  8 13  2  0
 10 14  1  0
 12 15  1  0
 12 16  2  0
 14 17  1  0
 15 18  1  0
 13 19  1  0
 16 20  1  0
 18 20  2  0
 11 21  1  0
 19 21  2  0
 21 22  1  0
 11 23  2  0
 14 24  2  0
 24 25  1  0
 17 26  1  0
 25 26  2  0
 17 27  1  0
 15 28  1  6
 27 28  1  0
 19 29  1  0
 24 29  1  0
 22 30  1  0
 30 31  2  0
 22 32  2  0
 29 32  1  1
 27 33  1  6
 30 34  1  0
 34 35  1  0
 34 36  1  0
 36 37  1  0
 35 38  1  0
 37 39  1  1
 37 40  1  0
 38 40  1  0
M  END
$$$$
O14757_Pocket2Mol_idx-in-all-generaetd-227
     RDKit          3D

 43 51  0  0  0  0  0  0  0  0999 V2000
    1.5482   -0.3111   41.9233 C   0  0  0  0  0  0  0  0  0  0  0  0
    2.7284    0.2018   42.1525 N   0  0  0  0  0  0  0  0  0  0  0  0
    3.7893   -0.3016   42.7005 C   0  0  0  0  0  0  0  0  0  0  0  0
    3.3781   -1.7350   43.0000 C   0  0  0  0  0  0  0  0  0  0  0  0
    2.0339   -1.9619   42.6217 C   0  0  0  0  0  0  0  0  0  0  0  0
    4.1166   -2.4997   43.8458 C   0  0  0  0  0  0  0  0  0  0  0  0
    1.1731   -3.0051   42.5773 C   0  0  0  0  0  0  0  0  0  0  0  0
    0.4701   -3.2344   41.4901 C   0  0  0  0  0  0  0  0  0  0  0  0
    5.3799   -1.7814   44.2691 C   0  0  0  0  0  0  0  0  0  0  0  0
    5.0159   -0.0180   43.1201 N   0  0  0  0  0  0  0  0  0  0  0  0
    5.7693   -0.6937   43.8418 C   0  0  0  0  0  0  0  0  0  0  0  0
    0.8078   -3.6166   43.6782 C   0  0  0  0  0  0  0  0  0  0  0  0
    0.0663   -4.7011   43.7415 N   0  0  0  0  0  0  0  0  0  0  0  0
    6.2223   -2.6843   45.1565 C   0  0  0  0  0  0  0  0  0  0  0  0
    6.9599   -0.2351   44.2608 N   0  0  0  0  0  0  0  0  0  0  0  0
    5.9065   -3.9037   45.7499 N   0  0  0  0  0  0  0  0  0  0  0  0
   -0.5459   -5.1185   42.5870 C   0  0  0  0  0  0  0  0  0  0  0  0
    5.7480   -4.0340   46.9810 C   0  0  0  0  0  0  0  0  0  0  0  0
    7.4448   -1.8511   45.4198 C   0  0  0  0  0  0  0  0  0  0  0  0
    7.7572   -0.7827   45.0128 C   0  0  0  0  0  0  0  0  0  0  0  0
    8.4076   -2.7217   46.4541 C   0  0  0  0  0  0  0  0  0  0  0  0
    9.3167   -2.0988   47.1049 N   0  0  0  0  0  0  0  0  0  0  0  0
   -0.4719   -4.3893   41.5406 C   0  0  0  0  0  0  0  0  0  0  0  0
    8.3667   -4.0284   46.5743 N   0  0  0  0  0  0  0  0  0  0  0  0
    9.5309   -4.3147   47.3094 C   0  0  0  0  0  0  0  0  0  0  0  0
    5.3113   -3.3789   47.8005 O   0  0  0  0  0  0  0  0  0  0  0  0
    9.9022   -5.6301   47.7684 C   0  0  0  0  0  0  0  0  0  0  0  0
    5.4470   -5.5868   47.2096 C   0  0  0  0  0  0  0  0  0  0  0  0
   11.2254   -5.8679   48.0402 C   0  0  0  0  0  0  0  0  0  0  0  0
    8.9736   -6.6532   47.8548 C   0  0  0  0  0  0  0  0  0  0  0  0
   10.0616   -3.0670   47.6360 C   0  0  0  0  0  0  0  0  0  0  0  0
    7.5566   -6.3564   47.5477 N   0  0  0  0  0  0  0  0  0  0  0  0
    6.4157   -6.1721   48.0913 C   0  0  0  0  0  0  0  0  0  0  0  0
   12.3275   -4.8510   47.9324 C   0  0  0  0  0  0  0  0  0  0  0  0
    9.4585   -7.9662   48.0726 C   0  0  0  0  0  0  0  0  0  0  0  0
   11.5288   -2.7910   48.1740 C   0  0  0  0  0  0  0  0  0  0  0  0
   11.6989   -7.1590   48.3688 C   0  0  0  0  0  0  0  0  0  0  0  0
   12.2755   -3.6526   48.1917 N   0  0  0  0  0  0  0  0  0  0  0  0
   13.0611   -7.4253   48.6753 O   0  0  0  0  0  0  0  0  0  0  0  0
   13.7057   -5.3985   47.9673 C   0  0  0  0  0  0  0  0  0  0  0  0
   13.8815   -6.7088   48.2083 C   0  0  0  0  0  0  0  0  0  0  0  0
   10.7484   -8.1849   48.4565 C   0  0  0  0  0  0  0  0  0  0  0  0
   15.1755   -7.1931   48.3421 O   0  0  0  0  0  0  0  0  0  0  0  0
  1  2  1  0
  2  3  2  0
  3  4  1  0
  1  5  2  0
  4  5  1  0
  4  6  2  0
  5  7  1  0
  7  8  2  0
  6  9  1  0
  3 10  1  0
  9 11  2  0
 10 11  1  0
  7 12  1  0
 12 13  2  0
  9 14  1  0
 11 15  1  0
 14 16  1  0
 13 17  1  0
 16 18  1  0
 14 19  2  0
 15 20  2  0
 19 20  1  0
 19 21  1  0
 21 22  2  0
  8 23  1  0
 17 23  2  0
 21 24  1  0
 24 25  1  0
 18 26  2  0
 25 27  1  0
 18 28  1  0
 27 29  2  0
 27 30  1  0
 22 31  1  0
 25 31  2  0
 30 32  1  0
 28 33  1  0
 32 33  1  0
 29 34  1  0
 30 35  2  0
 31 36  1  0
 29 37  1  0
 34 38  1  0
 36 38  2  0
 37 39  1  0
 34 40  2  0
 39 41  1  0
 40 41  1  0
 35 42  1  0
 37 42  2  0
 41 43  2  0
M  END
$$$$
O14757_Pocket2Mol_idx-in-all-generaetd-228
     RDKit          3D

 34 39  0  0  0  0  0  0  0  0999 V2000
    4.5156    0.0550   42.9895 N   0  0  0  0  0  0  0  0  0  0  0  0
    5.0618   -0.8645   43.5295 C   0  0  0  0  0  0  0  0  0  0  0  0
    4.4350   -2.0604   43.7783 C   0  0  0  0  0  0  0  0  0  0  0  0
    4.9987   -3.0994   44.5839 C   0  0  0  0  0  0  0  0  0  0  0  0
    3.2714   -1.8664   43.0632 C   0  0  0  0  0  0  0  0  0  0  0  0
    6.4064   -0.5942   44.3204 N   0  0  0  0  0  0  0  0  0  0  0  0
    4.3422   -4.3256   44.7203 C   0  0  0  0  0  0  0  0  0  0  0  0
    2.1845   -2.6668   42.8270 N   0  0  0  0  0  0  0  0  0  0  0  0
    3.3305   -0.5395   42.5465 N   0  0  0  0  0  0  0  0  0  0  0  0
    1.9502   -3.8972   43.4076 C   0  0  0  0  0  0  0  0  0  0  0  0
    2.7156   -4.1184   44.6954 N   0  0  0  0  0  0  0  0  0  0  0  0
    6.8581   -1.5862   45.1101 C   0  0  0  0  0  0  0  0  0  0  0  0
    6.1801   -2.8430   45.2383 C   0  0  0  0  0  0  0  0  0  0  0  0
    2.1454   -5.1901   45.5771 C   0  0  0  0  0  0  0  0  0  0  0  0
    8.0137   -1.3946   45.8526 C   0  0  0  0  0  0  0  0  0  0  0  0
    0.9733   -4.5725   43.2066 O   0  0  0  0  0  0  0  0  0  0  0  0
    2.2437    0.0035   41.8733 C   0  0  0  0  0  0  0  0  0  0  0  0
    1.3210   -2.2077   41.7009 C   0  0  0  0  0  0  0  0  0  0  0  0
    8.6047   -2.2876   46.6923 C   0  0  0  0  0  0  0  0  0  0  0  0
    7.9141   -3.5157   46.8869 C   0  0  0  0  0  0  0  0  0  0  0  0
    1.0501   -0.8658   41.6612 C   0  0  0  0  0  0  0  0  0  0  0  0
    6.7278   -3.7718   46.2525 C   0  0  0  0  0  0  0  0  0  0  0  0
    9.8280   -2.0492   47.3361 C   0  0  0  0  0  0  0  0  0  0  0  0
    9.8262   -1.5735   48.5432 C   0  0  0  0  0  0  0  0  0  0  0  0
   11.0745   -2.0905   46.6735 C   0  0  0  0  0  0  0  0  0  0  0  0
   11.1189   -2.5101   45.2315 C   0  0  0  0  0  0  0  0  0  0  0  0
   12.2489   -1.7755   47.2629 C   0  0  0  0  0  0  0  0  0  0  0  0
   11.2018   -3.6539   44.9133 O   0  0  0  0  0  0  0  0  0  0  0  0
    8.6514   -1.4344   49.3511 O   0  0  0  0  0  0  0  0  0  0  0  0
   13.4748   -1.9213   46.5455 O   0  0  0  0  0  0  0  0  0  0  0  0
   12.2982   -1.6446   48.4789 C   0  0  0  0  0  0  0  0  0  0  0  0
   10.8478   -1.5946   44.3346 O   0  0  0  0  0  0  0  0  0  0  0  0
   13.9488   -0.6924   46.1476 C   0  0  0  0  0  0  0  0  0  0  0  0
   11.0801   -1.4087   49.2647 C   0  0  0  0  0  0  0  0  0  0  0  0
  1  2  2  0
  2  3  1  0
  3  4  1  0
  3  5  2  0
  2  6  1  0
  4  7  1  0
  5  8  1  0
  1  9  1  0
  5  9  1  0
  8 10  1  0
  7 11  1  0
 10 11  1  0
  6 12  2  0
  4 13  2  0
 12 13  1  0
 11 14  1  0
 12 15  1  0
 10 16  2  0
  9 17  1  0
  8 18  1  0
 15 19  2  0
 19 20  1  0
 17 21  1  0
 18 21  1  0
 13 22  1  0
 20 22  2  0
 19 23  1  0
 23 24  2  0
 23 25  1  0
 25 26  1  0
 25 27  2  0
 26 28  1  0
 24 29  1  0
 27 30  1  0
 27 31  1  0
 26 32  2  0
 30 33  1  0
 24 34  1  0
 31 34  2  0
M  END
$$$$
O14757_Pocket2Mol_idx-in-all-generaetd-229
     RDKit          3D

 24 28  0  0  0  0  0  0  0  0999 V2000
    5.3420    0.2589   42.8836 N   0  0  0  0  0  0  0  0  0  0  0  0
    5.6740   -0.8311   43.5645 C   0  0  0  0  0  0  0  0  0  0  0  0
    6.8416   -0.9240   44.3627 N   0  0  0  0  0  0  0  0  0  0  0  0
    4.1141    0.2821   42.2689 C   0  0  0  0  0  0  0  0  0  0  0  0
    3.2237   -0.7484   42.3921 N   0  0  0  0  0  0  0  0  0  0  0  0
    6.8097   -1.9585   45.3182 C   0  0  0  0  0  0  0  0  0  0  0  0
    3.5007   -1.8060   43.1511 C   0  0  0  0  0  0  0  0  0  0  0  0
    4.7020   -1.8573   43.8328 C   0  0  0  0  0  0  0  0  0  0  0  0
    5.4887   -2.6670   44.9856 C   0  0  0  0  0  0  0  0  0  0  0  0
    2.5208   -2.8458   43.2671 C   0  0  0  0  0  0  0  0  0  0  0  0
    2.6558   -3.8570   44.2541 C   0  0  0  0  0  0  0  0  0  0  0  0
    7.6468   -2.3589   46.2854 C   0  0  0  0  0  0  0  0  0  0  0  0
    3.8579   -4.1296   44.9532 N   0  0  0  0  0  0  0  0  0  0  0  0
    1.3096   -2.7520   42.6410 C   0  0  0  0  0  0  0  0  0  0  0  0
    4.9776   -3.8402   45.4939 C   0  0  0  0  0  0  0  0  0  0  0  0
    0.9912   -1.7393   41.6079 C   0  0  0  0  0  0  0  0  0  0  0  0
    1.5259   -4.6645   44.4644 C   0  0  0  0  0  0  0  0  0  0  0  0
    8.7139   -1.5535   46.4661 C   0  0  0  0  0  0  0  0  0  0  0  0
    0.4108   -4.5978   43.8261 C   0  0  0  0  0  0  0  0  0  0  0  0
    0.2723   -3.6471   42.8519 C   0  0  0  0  0  0  0  0  0  0  0  0
    9.6520   -1.9295   47.5167 C   0  0  0  0  0  0  0  0  0  0  0  0
    9.4020   -3.1626   48.1410 C   0  0  0  0  0  0  0  0  0  0  0  0
    7.4093   -3.7218   47.0414 C   0  0  0  0  0  0  0  0  0  0  0  0
    8.3891   -3.9913   47.9327 C   0  0  0  0  0  0  0  0  0  0  0  0
  1  2  2  0
  2  3  1  0
  1  4  1  0
  4  5  2  0
  3  6  1  0
  5  7  1  0
  2  8  1  0
  7  8  2  0
  6  9  2  0
  8  9  1  0
  7 10  1  0
 10 11  2  0
  6 12  1  0
 11 13  1  0
 10 14  1  0
  9 15  1  0
 13 15  1  0
 14 16  1  0
 11 17  1  0
 12 18  2  0
 17 19  2  0
 14 20  2  0
 19 20  1  0
 18 21  1  0
 21 22  2  0
 12 23  1  0
 22 24  1  0
 23 24  2  0
M  END
$$$$
O14757_Pocket2Mol_idx-in-all-generaetd-230
     RDKit          3D

 22 24  0  0  0  0  0  0  0  0999 V2000
    5.3420    0.2589   42.8836 O   0  0  0  0  0  0  0  0  0  0  0  0
    5.1627   -0.7554   43.4753 C   0  0  0  0  0  0  0  0  0  0  0  0
    4.0509   -1.4657   43.4177 N   0  0  0  0  0  0  0  0  0  0  0  0
    5.9969   -1.2317   44.6840 C   0  0  0  0  0  0  0  0  0  0  0  0
    2.9618   -1.1021   42.5918 C   0  0  0  0  0  0  0  0  0  0  0  0
    2.0342   -2.0118   42.3240 C   0  0  0  0  0  0  0  0  0  0  0  0
    5.7960   -2.3731   45.4134 C   0  0  0  0  0  0  0  0  0  0  0  0
    6.7643   -2.8673   46.3300 C   0  0  0  0  0  0  0  0  0  0  0  0
    7.8839   -1.8161   46.2935 C   0  0  0  0  0  0  0  0  0  0  0  0
    7.4792   -0.7120   45.0123 S   0  0  0  0  0  0  0  0  0  0  0  0
    2.7700    0.1737   42.3209 N   0  0  0  0  0  0  0  0  0  0  0  0
    9.0153   -1.9289   47.1051 C   0  0  0  0  0  0  0  0  0  0  0  0
    0.9354   -1.7573   41.5151 C   0  0  0  0  0  0  0  0  0  0  0  0
    0.6272   -0.4586   41.2502 C   0  0  0  0  0  0  0  0  0  0  0  0
   -0.0223   -2.9188   41.0859 C   0  0  0  0  0  0  0  0  0  0  0  0
    1.5843    0.4258   41.7547 C   0  0  0  0  0  0  0  0  0  0  0  0
   10.0729   -1.8829   46.5161 N   0  0  0  0  0  0  0  0  0  0  0  0
    8.9399   -2.2901   48.4208 N   0  0  0  0  0  0  0  0  0  0  0  0
   10.2599   -2.2943   48.8075 C   0  0  0  0  0  0  0  0  0  0  0  0
   11.2865   -2.0500   47.7874 S   0  0  0  0  0  0  0  0  0  0  0  0
   12.0951   -0.7721   47.8291 O   0  0  0  0  0  0  0  0  0  0  0  0
   12.2824   -3.1243   47.2528 O   0  0  0  0  0  0  0  0  0  0  0  0
  1  2  2  0
  2  3  1  0
  2  4  1  0
  3  5  1  0
  5  6  2  0
  4  7  2  0
  7  8  1  0
  8  9  2  0
  4 10  1  0
  9 10  1  0
  5 11  1  0
  9 12  1  0
  6 13  1  0
 13 14  2  0
 13 15  1  0
 11 16  2  0
 14 16  1  0
 12 17  2  0
 12 18  1  0
 18 19  2  0
 17 20  1  0
 19 20  1  0
 20 21  2  0
 20 22  2  0
M  END
$$$$
O14757_Pocket2Mol_idx-in-all-generaetd-231
     RDKit          3D

 40 47  0  0  0  0  0  0  0  0999 V2000
    1.5482   -0.3111   41.9233 C   0  0  0  0  0  0  0  0  0  0  0  0
    2.7284    0.2018   42.1525 N   0  0  0  0  0  0  0  0  0  0  0  0
    3.7893   -0.3016   42.7005 C   0  0  0  0  0  0  0  0  0  0  0  0
    3.3781   -1.7350   43.0000 C   0  0  0  0  0  0  0  0  0  0  0  0
    2.0339   -1.9619   42.6217 C   0  0  0  0  0  0  0  0  0  0  0  0
    4.1166   -2.4997   43.8458 C   0  0  0  0  0  0  0  0  0  0  0  0
    1.1731   -3.0051   42.5773 C   0  0  0  0  0  0  0  0  0  0  0  0
    0.4701   -3.2344   41.4901 C   0  0  0  0  0  0  0  0  0  0  0  0
    5.3799   -1.7814   44.2691 C   0  0  0  0  0  0  0  0  0  0  0  0
    5.0159   -0.0180   43.1201 N   0  0  0  0  0  0  0  0  0  0  0  0
    5.7693   -0.6937   43.8418 C   0  0  0  0  0  0  0  0  0  0  0  0
    0.8078   -3.6166   43.6782 C   0  0  0  0  0  0  0  0  0  0  0  0
    0.0663   -4.7011   43.7415 N   0  0  0  0  0  0  0  0  0  0  0  0
    6.2223   -2.6843   45.1565 C   0  0  0  0  0  0  0  0  0  0  0  0
    6.9599   -0.2351   44.2608 N   0  0  0  0  0  0  0  0  0  0  0  0
    5.9065   -3.9037   45.7499 N   0  0  0  0  0  0  0  0  0  0  0  0
   -0.5459   -5.1185   42.5870 C   0  0  0  0  0  0  0  0  0  0  0  0
    5.7480   -4.0340   46.9810 C   0  0  0  0  0  0  0  0  0  0  0  0
    7.4448   -1.8511   45.4198 C   0  0  0  0  0  0  0  0  0  0  0  0
    7.7572   -0.7827   45.0128 C   0  0  0  0  0  0  0  0  0  0  0  0
    8.4076   -2.7217   46.4541 C   0  0  0  0  0  0  0  0  0  0  0  0
    9.3167   -2.0988   47.1049 N   0  0  0  0  0  0  0  0  0  0  0  0
   -0.4719   -4.3893   41.5406 C   0  0  0  0  0  0  0  0  0  0  0  0
    8.3667   -4.0284   46.5743 N   0  0  0  0  0  0  0  0  0  0  0  0
    9.5309   -4.3147   47.3094 C   0  0  0  0  0  0  0  0  0  0  0  0
    5.3113   -3.3789   47.8005 O   0  0  0  0  0  0  0  0  0  0  0  0
    9.9022   -5.6301   47.7684 C   0  0  0  0  0  0  0  0  0  0  0  0
    5.4470   -5.5868   47.2096 C   0  0  0  0  0  0  0  0  0  0  0  0
   11.2254   -5.8679   48.0402 C   0  0  0  0  0  0  0  0  0  0  0  0
    8.9736   -6.6532   47.8548 C   0  0  0  0  0  0  0  0  0  0  0  0
   10.0616   -3.0670   47.6360 C   0  0  0  0  0  0  0  0  0  0  0  0
    7.5566   -6.3564   47.5477 N   0  0  0  0  0  0  0  0  0  0  0  0
    6.4157   -6.1721   48.0913 C   0  0  0  0  0  0  0  0  0  0  0  0
   12.3275   -4.8510   47.9324 C   0  0  2  0  0  0  0  0  0  0  0  0
    9.4585   -7.9662   48.0726 C   0  0  0  0  0  0  0  0  0  0  0  0
   11.5288   -2.7910   48.1740 C   0  0  0  0  0  0  0  0  0  0  0  0
   13.6010   -5.5179   48.0202 O   0  0  0  0  0  0  0  0  0  0  0  0
   12.4219   -3.5693   48.5143 C   0  0  0  0  0  0  0  0  0  0  0  0
   11.6233   -7.1700   48.1636 C   0  0  0  0  0  0  0  0  0  0  0  0
   10.7372   -8.1676   48.3297 C   0  0  0  0  0  0  0  0  0  0  0  0
  1  2  1  0
  2  3  2  0
  3  4  1  0
  1  5  2  0
  4  5  1  0
  4  6  2  0
  5  7  1  0
  7  8  2  0
  6  9  1  0
  3 10  1  0
  9 11  2  0
 10 11  1  0
  7 12  1  0
 12 13  2  0
  9 14  1  0
 11 15  1  0
 14 16  1  0
 13 17  1  0
 16 18  1  0
 14 19  2  0
 15 20  2  0
 19 20  1  0
 19 21  1  0
 21 22  2  0
  8 23  1  0
 17 23  2  0
 21 24  1  0
 24 25  1  0
 18 26  2  0
 25 27  1  0
 18 28  1  0
 27 29  2  0
 27 30  1  0
 22 31  1  0
 25 31  2  0
 30 32  1  0
 28 33  1  0
 32 33  1  0
 29 34  1  0
 30 35  2  0
 31 36  1  0
 34 37  1  1
 34 38  1  0
 36 38  1  0
 29 39  1  0
 35 40  1  0
 39 40  2  0
M  END
$$$$
O14757_Pocket2Mol_idx-in-all-generaetd-232
     RDKit          3D

 37 44  0  0  0  0  0  0  0  0999 V2000
    5.3420    0.2589   42.8836 N   0  0  0  0  0  0  0  0  0  0  0  0
    5.6740   -0.8311   43.5645 C   0  0  0  0  0  0  0  0  0  0  0  0
    6.8416   -0.9240   44.3627 N   0  0  0  0  0  0  0  0  0  0  0  0
    4.1141    0.2821   42.2689 C   0  0  0  0  0  0  0  0  0  0  0  0
    3.2237   -0.7484   42.3921 N   0  0  0  0  0  0  0  0  0  0  0  0
    6.8097   -1.9585   45.3182 C   0  0  0  0  0  0  0  0  0  0  0  0
    3.5007   -1.8060   43.1511 C   0  0  0  0  0  0  0  0  0  0  0  0
    4.7020   -1.8573   43.8328 C   0  0  0  0  0  0  0  0  0  0  0  0
    5.4887   -2.6670   44.9856 C   0  0  0  0  0  0  0  0  0  0  0  0
    2.5208   -2.8458   43.2671 C   0  0  0  0  0  0  0  0  0  0  0  0
    2.6558   -3.8570   44.2541 C   0  0  0  0  0  0  0  0  0  0  0  0
    7.6468   -2.3589   46.2854 C   0  0  0  0  0  0  0  0  0  0  0  0
    3.8579   -4.1296   44.9532 N   0  0  0  0  0  0  0  0  0  0  0  0
    1.3096   -2.7520   42.6410 C   0  0  0  0  0  0  0  0  0  0  0  0
    4.9776   -3.8402   45.4939 C   0  0  2  0  0  0  0  0  0  0  0  0
    8.7023   -1.6088   46.4743 C   0  0  0  0  0  0  0  0  0  0  0  0
    9.5984   -1.8433   47.5139 C   0  0  0  0  0  0  0  0  0  0  0  0
    7.3782   -3.4221   47.2077 C   0  0  0  0  0  0  0  0  0  0  0  0
    1.5977   -4.7338   44.4801 C   0  0  0  0  0  0  0  0  0  0  0  0
    1.0668   -1.7644   41.4981 C   0  0  0  0  0  0  0  0  0  0  0  0
   10.8175   -0.9959   47.6882 O   0  0  0  0  0  0  0  0  0  0  0  0
   11.6053   -1.2371   48.6095 C   0  0  0  0  0  0  0  0  0  0  0  0
    0.3244   -3.6976   42.8655 C   0  0  0  0  0  0  0  0  0  0  0  0
   -0.8593   -3.6685   42.0130 N   0  0  0  0  0  0  0  0  0  0  0  0
    1.8517   -5.8131   45.4828 O   0  0  0  0  0  0  0  0  0  0  0  0
    0.4775   -4.6810   43.7729 C   0  0  0  0  0  0  0  0  0  0  0  0
    0.8739   -6.6382   45.6662 C   0  0  0  0  0  0  0  0  0  0  0  0
   -1.0916   -2.5994   41.2602 C   0  0  0  0  0  0  0  0  0  0  0  0
    9.4106   -2.8763   48.3313 C   0  0  0  0  0  0  0  0  0  0  0  0
   -2.2861   -2.5230   40.6491 C   0  0  0  0  0  0  0  0  0  0  0  0
   -0.0427   -1.6549   40.9892 C   0  0  0  0  0  0  0  0  0  0  0  0
    6.1974   -4.2473   47.0932 C   0  0  0  0  0  0  0  0  0  0  0  0
   10.3910   -3.0613   49.4073 O   0  0  0  0  0  0  0  0  0  0  0  0
   11.5322   -2.4683   49.1751 C   0  0  0  0  0  0  0  0  0  0  0  0
    8.2779   -3.6138   48.2308 C   0  0  0  0  0  0  0  0  0  0  0  0
    6.2901   -5.1236   48.2453 O   0  0  0  0  0  0  0  0  0  0  0  0
    5.3415   -4.4808   46.4726 N   0  0  0  0  0  0  0  0  0  0  0  0
  1  2  2  0
  2  3  1  0
  1  4  1  0
  4  5  2  0
  3  6  1  0
  5  7  1  0
  2  8  1  0
  7  8  2  0
  6  9  2  0
  8  9  1  0
  7 10  1  0
 10 11  2  0
  6 12  1  0
 11 13  1  0
 10 14  1  0
  9 15  1  0
 15 13  1  1
 12 16  2  0
 16 17  1  0
 12 18  1  0
 11 19  1  0
 14 20  1  0
 17 21  1  0
 21 22  1  0
 14 23  2  0
 23 24  1  0
 19 25  1  0
 19 26  2  0
 23 26  1  0
 25 27  1  0
 24 28  1  0
 17 29  2  0
 28 30  1  0
 20 31  1  0
 28 31  2  0
 18 32  1  0
 29 33  1  0
 22 34  1  0
 33 34  1  0
 18 35  2  0
 29 35  1  0
 32 36  1  0
 15 37  1  0
 32 37  2  0
M  END
$$$$
O14757_Pocket2Mol_idx-in-all-generaetd-233
     RDKit          3D

 29 32  0  0  0  0  0  0  0  0999 V2000
    2.2608    0.0351   42.1039 C   0  0  0  0  0  0  0  0  0  0  0  0
    2.7906   -1.0673   42.3987 N   0  0  0  0  0  0  0  0  0  0  0  0
    3.1210    0.9973   42.3040 N   0  0  0  0  0  0  0  0  0  0  0  0
    4.0827   -0.7954   42.9700 C   0  0  0  0  0  0  0  0  0  0  0  0
    4.9955   -1.7234   43.5259 N   0  0  0  0  0  0  0  0  0  0  0  0
    4.5382   -2.7016   44.3398 C   0  0  1  0  0  0  0  0  0  0  0  0
    5.3738   -2.9294   45.5228 C   0  0  2  0  0  0  0  0  0  0  0  0
    6.6133   -2.1566   45.5018 C   0  0  0  0  0  0  0  0  0  0  0  0
    4.2841    0.3926   42.8877 N   0  0  0  0  0  0  0  0  0  0  0  0
    5.4441   -4.2364   45.9837 C   0  0  0  0  0  0  0  0  0  0  0  0
    1.9678   -2.2711   42.4114 C   0  0  0  0  0  0  0  0  0  0  0  0
    7.1399   -1.4316   44.7431 O   0  0  0  0  0  0  0  0  0  0  0  0
    7.4936   -2.5586   46.5441 N   0  0  0  0  0  0  0  0  0  0  0  0
    5.8242   -4.4706   47.3868 C   0  0  0  0  0  0  0  0  0  0  0  0
    1.0261   -2.3754   41.4347 C   0  0  0  0  0  0  0  0  0  0  0  0
    0.1189   -3.5468   41.4614 C   0  0  0  0  0  0  0  0  0  0  0  0
    2.2389   -3.3785   43.2951 C   0  0  0  0  0  0  0  0  0  0  0  0
    3.3150   -3.3216   44.2621 C   0  0  0  0  0  0  0  0  0  0  0  0
   -0.9323   -3.5979   40.4982 O   0  0  0  0  0  0  0  0  0  0  0  0
    8.8055   -2.0091   46.8034 C   0  0  0  0  0  0  0  0  0  0  0  0
    7.0119   -3.4413   47.6500 C   0  0  0  0  0  0  0  0  0  0  0  0
    2.7433   -3.8413   45.4764 O   0  0  0  0  0  0  0  0  0  0  0  0
    9.7710   -2.5832   46.0267 C   0  0  0  0  0  0  0  0  0  0  0  0
   10.9637   -1.8384   45.7788 C   0  0  0  0  0  0  0  0  0  0  0  0
   12.0560   -2.3733   45.3152 C   0  0  0  0  0  0  0  0  0  0  0  0
    1.2235   -4.3730   43.1964 C   0  0  0  0  0  0  0  0  0  0  0  0
   13.1553   -1.6371   44.9461 O   0  0  0  0  0  0  0  0  0  0  0  0
   12.2389   -3.5942   45.5981 O   0  0  0  0  0  0  0  0  0  0  0  0
    0.2872   -4.5043   42.3532 C   0  0  0  0  0  0  0  0  0  0  0  0
  1  2  1  0
  1  3  2  0
  2  4  1  0
  4  5  1  0
  6  5  1  1
  6  7  1  0
  7  8  1  0
  3  9  1  0
  4  9  2  0
  7 10  1  6
  2 11  1  0
  8 12  2  0
  8 13  1  0
 10 14  1  0
 11 15  2  0
 15 16  1  0
 11 17  1  0
  6 18  1  0
 17 18  1  0
 16 19  1  0
 13 20  1  0
 13 21  1  0
 14 21  1  0
 18 22  2  0
 20 23  1  0
 23 24  1  0
 24 25  1  0
 17 26  2  0
 25 27  2  0
 25 28  1  0
 16 29  2  0
 26 29  1  0
M  END
$$$$
O14757_Pocket2Mol_idx-in-all-generaetd-234
     RDKit          3D

 36 43  0  0  0  0  0  0  0  0999 V2000
    5.3420    0.2589   42.8836 N   0  0  0  0  0  0  0  0  0  0  0  0
    5.6740   -0.8311   43.5645 C   0  0  0  0  0  0  0  0  0  0  0  0
    6.8416   -0.9240   44.3627 N   0  0  0  0  0  0  0  0  0  0  0  0
    4.1141    0.2821   42.2689 C   0  0  0  0  0  0  0  0  0  0  0  0
    3.2237   -0.7484   42.3921 N   0  0  0  0  0  0  0  0  0  0  0  0
    6.8097   -1.9585   45.3182 C   0  0  0  0  0  0  0  0  0  0  0  0
    3.5007   -1.8060   43.1511 C   0  0  0  0  0  0  0  0  0  0  0  0
    4.7020   -1.8573   43.8328 C   0  0  0  0  0  0  0  0  0  0  0  0
    5.4887   -2.6670   44.9856 C   0  0  0  0  0  0  0  0  0  0  0  0
    2.5208   -2.8458   43.2671 C   0  0  0  0  0  0  0  0  0  0  0  0
    2.6558   -3.8570   44.2541 C   0  0  0  0  0  0  0  0  0  0  0  0
    7.6468   -2.3589   46.2854 C   0  0  0  0  0  0  0  0  0  0  0  0
    3.8579   -4.1296   44.9532 N   0  0  0  0  0  0  0  0  0  0  0  0
    1.3096   -2.7520   42.6410 C   0  0  0  0  0  0  0  0  0  0  0  0
    4.9776   -3.8402   45.4939 C   0  0  0  0  0  0  0  0  0  0  0  0
    8.7023   -1.6088   46.4743 C   0  0  0  0  0  0  0  0  0  0  0  0
    9.5984   -1.8433   47.5139 C   0  0  0  0  0  0  0  0  0  0  0  0
    7.3782   -3.4221   47.2077 C   0  0  0  0  0  0  0  0  0  0  0  0
    1.5977   -4.7338   44.4801 C   0  0  0  0  0  0  0  0  0  0  0  0
    1.0668   -1.7644   41.4981 C   0  0  0  0  0  0  0  0  0  0  0  0
   10.8175   -0.9959   47.6882 O   0  0  0  0  0  0  0  0  0  0  0  0
   11.6053   -1.2371   48.6095 C   0  0  0  0  0  0  0  0  0  0  0  0
    0.3244   -3.6976   42.8655 C   0  0  0  0  0  0  0  0  0  0  0  0
   -0.8593   -3.6685   42.0130 N   0  0  0  0  0  0  0  0  0  0  0  0
    1.8517   -5.8131   45.4828 O   0  0  0  0  0  0  0  0  0  0  0  0
    0.4775   -4.6810   43.7729 C   0  0  0  0  0  0  0  0  0  0  0  0
    0.8739   -6.6382   45.6662 C   0  0  0  0  0  0  0  0  0  0  0  0
   -1.0916   -2.5994   41.2602 C   0  0  0  0  0  0  0  0  0  0  0  0
    9.4106   -2.8763   48.3313 C   0  0  0  0  0  0  0  0  0  0  0  0
   -2.2861   -2.5230   40.6491 C   0  0  0  0  0  0  0  0  0  0  0  0
   -0.0427   -1.6549   40.9892 C   0  0  0  0  0  0  0  0  0  0  0  0
    6.1974   -4.2473   47.0932 C   0  0  0  0  0  0  0  0  0  0  0  0
   10.3910   -3.0613   49.4073 O   0  0  0  0  0  0  0  0  0  0  0  0
   11.2185   -2.0014   49.6623 C   0  0  0  0  0  0  0  0  0  0  0  0
    5.4170   -4.4181   46.5139 N   0  0  0  0  0  0  0  0  0  0  0  0
    8.3634   -3.6493   48.2951 C   0  0  0  0  0  0  0  0  0  0  0  0
  1  2  2  0
  2  3  1  0
  1  4  1  0
  4  5  2  0
  3  6  1  0
  5  7  1  0
  2  8  1  0
  7  8  2  0
  6  9  2  0
  8  9  1  0
  7 10  1  0
 10 11  2  0
  6 12  1  0
 11 13  1  0
 10 14  1  0
  9 15  1  0
 13 15  1  0
 12 16  2  0
 16 17  1  0
 12 18  1  0
 11 19  1  0
 14 20  1  0
 17 21  1  0
 21 22  1  0
 14 23  2  0
 23 24  1  0
 19 25  1  0
 19 26  2  0
 23 26  1  0
 25 27  1  0
 24 28  1  0
 17 29  2  0
 28 30  1  0
 20 31  1  0
 28 31  2  0
 18 32  1  0
 29 33  1  0
 22 34  1  0
 33 34  1  0
 15 35  2  0
 32 35  1  0
 18 36  2  0
 29 36  1  0
M  END
$$$$
O14757_Pocket2Mol_idx-in-all-generaetd-235
     RDKit          3D

 42 50  0  0  0  0  0  0  0  0999 V2000
    1.5482   -0.3111   41.9233 C   0  0  0  0  0  0  0  0  0  0  0  0
    2.7284    0.2018   42.1525 N   0  0  0  0  0  0  0  0  0  0  0  0
    3.7893   -0.3016   42.7005 C   0  0  0  0  0  0  0  0  0  0  0  0
    3.3781   -1.7350   43.0000 C   0  0  0  0  0  0  0  0  0  0  0  0
    2.0339   -1.9619   42.6217 C   0  0  0  0  0  0  0  0  0  0  0  0
    5.0090    0.1219   42.9340 N   0  0  0  0  0  0  0  0  0  0  0  0
    4.2895   -2.4979   43.6707 C   0  0  0  0  0  0  0  0  0  0  0  0
    5.8391   -0.6675   43.6343 C   0  0  0  0  0  0  0  0  0  0  0  0
    6.9849   -0.2377   44.0028 N   0  0  0  0  0  0  0  0  0  0  0  0
    4.0426   -3.8794   44.0832 C   0  0  0  0  0  0  0  0  0  0  0  0
    7.6796   -0.8734   44.9326 C   0  0  0  0  0  0  0  0  0  0  0  0
    1.1064   -2.9576   42.4211 C   0  0  0  0  0  0  0  0  0  0  0  0
    5.5298   -1.9496   44.0315 C   0  0  0  0  0  0  0  0  0  0  0  0
    3.8954   -4.1817   45.4718 C   0  0  0  0  0  0  0  0  0  0  0  0
    0.6765   -3.5480   43.4006 C   0  0  1  0  0  0  0  0  0  0  0  0
    0.5804   -3.2191   41.1635 C   0  0  0  0  0  0  0  0  0  0  0  0
    2.8083   -4.8227   45.9203 N   0  0  0  0  0  0  0  0  0  0  0  0
   -0.1574   -4.5754   42.9329 N   0  0  0  0  0  0  0  0  0  0  0  0
    6.5271   -2.5531   44.9677 C   0  0  0  0  0  0  0  0  0  0  0  0
   -0.2272   -4.3703   41.5137 C   0  0  0  0  0  0  0  0  0  0  0  0
    7.5095   -2.0029   45.3993 C   0  0  0  0  0  0  0  0  0  0  0  0
    8.2550   -2.6982   46.3988 C   0  0  0  0  0  0  0  0  0  0  0  0
    8.8975   -0.3029   45.3267 O   0  0  0  0  0  0  0  0  0  0  0  0
    4.8299   -4.4637   46.4212 C   0  0  0  0  0  0  0  0  0  0  0  0
    4.2707   -4.9248   47.6295 N   0  0  0  0  0  0  0  0  0  0  0  0
    3.2045   -5.2092   47.1521 C   0  0  0  0  0  0  0  0  0  0  0  0
    1.4482   -4.6186   45.4134 C   0  0  2  0  0  0  0  0  0  0  0  0
    1.2398   -3.5043   44.6236 O   0  0  0  0  0  0  0  0  0  0  0  0
    6.3317   -3.9297   46.0870 C   0  0  2  0  0  0  0  0  0  0  0  0
    9.5296   -2.5449   46.9776 C   0  0  0  0  0  0  0  0  0  0  0  0
    9.7921   -1.7530   47.9018 O   0  0  0  0  0  0  0  0  0  0  0  0
    7.3972   -3.8130   46.7939 C   0  0  0  0  0  0  0  0  0  0  0  0
   10.4154   -3.4217   46.6883 O   0  0  0  0  0  0  0  0  0  0  0  0
    0.5555   -4.7535   46.5674 C   0  0  0  0  0  0  0  0  0  0  0  0
   11.6497   -3.0596   47.0439 C   0  0  0  0  0  0  0  0  0  0  0  0
   12.3878   -4.1125   47.6990 C   0  0  0  0  0  0  0  0  0  0  0  0
   11.8800   -5.2760   47.5659 O   0  0  0  0  0  0  0  0  0  0  0  0
   12.1402   -1.9273   46.5416 C   0  0  0  0  0  0  0  0  0  0  0  0
   11.8157   -6.1124   48.5967 C   0  0  0  0  0  0  0  0  0  0  0  0
   13.6850   -3.8408   48.0012 C   0  0  0  0  0  0  0  0  0  0  0  0
   13.4241   -1.5206   46.7180 C   0  0  0  0  0  0  0  0  0  0  0  0
   14.2476   -2.5063   47.5400 C   0  0  0  0  0  0  0  0  0  0  0  0
  1  2  1  0
  2  3  2  0
  3  4  1  0
  1  5  2  0
  4  5  1  0
  3  6  1  0
  4  7  2  0
  6  8  1  0
  8  9  1  0
  7 10  1  0
  9 11  1  0
  5 12  1  0
  7 13  1  0
  8 13  2  0
 10 14  1  0
 12 15  1  0
 12 16  2  0
 14 17  1  0
 15 18  1  0
 13 19  1  0
 16 20  1  0
 18 20  2  0
 11 21  1  0
 19 21  2  0
 21 22  1  0
 11 23  2  0
 14 24  2  0
 24 25  1  0
 17 26  1  0
 25 26  2  0
 17 27  1  0
 15 28  1  6
 27 28  1  0
 19 29  1  0
 24 29  1  0
 22 30  1  0
 30 31  2  0
 22 32  2  0
 29 32  1  1
 30 33  1  0
 27 34  1  1
 33 35  1  0
 35 36  2  0
 36 37  1  0
 35 38  1  0
 37 39  1  0
 36 40  1  0
 38 41  2  0
 40 42  2  0
 41 42  1  0
M  END
$$$$
O14757_Pocket2Mol_idx-in-all-generaetd-236
     RDKit          3D

 32 37  0  0  0  0  0  0  0  0999 V2000
    4.5156    0.0550   42.9895 N   0  0  0  0  0  0  0  0  0  0  0  0
    5.0618   -0.8645   43.5295 C   0  0  0  0  0  0  0  0  0  0  0  0
    4.4350   -2.0604   43.7783 C   0  0  0  0  0  0  0  0  0  0  0  0
    4.9987   -3.0994   44.5839 C   0  0  0  0  0  0  0  0  0  0  0  0
    3.2714   -1.8664   43.0632 C   0  0  0  0  0  0  0  0  0  0  0  0
    6.4064   -0.5942   44.3204 N   0  0  0  0  0  0  0  0  0  0  0  0
    4.3422   -4.3256   44.7203 C   0  0  0  0  0  0  0  0  0  0  0  0
    2.1845   -2.6668   42.8270 N   0  0  0  0  0  0  0  0  0  0  0  0
    3.3305   -0.5395   42.5465 N   0  0  0  0  0  0  0  0  0  0  0  0
    1.9502   -3.8972   43.4076 C   0  0  0  0  0  0  0  0  0  0  0  0
    2.7156   -4.1184   44.6954 N   0  0  0  0  0  0  0  0  0  0  0  0
    6.8581   -1.5862   45.1101 C   0  0  0  0  0  0  0  0  0  0  0  0
    6.1801   -2.8430   45.2383 C   0  0  0  0  0  0  0  0  0  0  0  0
    2.1454   -5.1901   45.5771 C   0  0  0  0  0  0  0  0  0  0  0  0
    8.0137   -1.3946   45.8526 C   0  0  0  0  0  0  0  0  0  0  0  0
    0.9733   -4.5725   43.2066 O   0  0  0  0  0  0  0  0  0  0  0  0
    2.2437    0.0035   41.8733 C   0  0  0  0  0  0  0  0  0  0  0  0
    1.3210   -2.2077   41.7009 C   0  0  0  0  0  0  0  0  0  0  0  0
    8.6047   -2.2876   46.6923 C   0  0  0  0  0  0  0  0  0  0  0  0
    7.9141   -3.5157   46.8869 C   0  0  0  0  0  0  0  0  0  0  0  0
    1.0501   -0.8658   41.6612 C   0  0  0  0  0  0  0  0  0  0  0  0
    6.7278   -3.7718   46.2525 C   0  0  0  0  0  0  0  0  0  0  0  0
    9.8280   -2.0492   47.3361 C   0  0  0  0  0  0  0  0  0  0  0  0
    9.8262   -1.5735   48.5432 C   0  0  0  0  0  0  0  0  0  0  0  0
   11.0745   -2.0905   46.6735 C   0  0  0  0  0  0  0  0  0  0  0  0
   11.1189   -2.5101   45.2315 C   0  0  0  0  0  0  0  0  0  0  0  0
    8.6548   -1.3952   49.4178 O   0  0  0  0  0  0  0  0  0  0  0  0
   12.2483   -1.7792   47.2003 C   0  0  0  0  0  0  0  0  0  0  0  0
   11.0576   -1.2774   49.2428 C   0  0  0  0  0  0  0  0  0  0  0  0
   11.5052   -1.6078   44.3227 O   0  0  0  0  0  0  0  0  0  0  0  0
   10.7817   -3.6722   44.9757 O   0  0  0  0  0  0  0  0  0  0  0  0
   12.2541   -1.4020   48.5900 C   0  0  0  0  0  0  0  0  0  0  0  0
  1  2  2  0
  2  3  1  0
  3  4  1  0
  3  5  2  0
  2  6  1  0
  4  7  1  0
  5  8  1  0
  1  9  1  0
  5  9  1  0
  8 10  1  0
  7 11  1  0
 10 11  1  0
  6 12  2  0
  4 13  2  0
 12 13  1  0
 11 14  1  0
 12 15  1  0
 10 16  2  0
  9 17  1  0
  8 18  1  0
 15 19  2  0
 19 20  1  0
 17 21  1  0
 18 21  1  0
 13 22  1  0
 20 22  2  0
 19 23  1  0
 23 24  2  0
 23 25  1  0
 25 26  1  0
 24 27  1  0
 25 28  2  0
 24 29  1  0
 26 30  2  0
 26 31  1  0
 28 32  1  0
 29 32  2  0
M  END
$$$$
O14757_Pocket2Mol_idx-in-all-generaetd-237
     RDKit          3D

 45 54  0  0  0  0  0  0  0  0999 V2000
    1.5482   -0.3111   41.9233 C   0  0  0  0  0  0  0  0  0  0  0  0
    2.7284    0.2018   42.1525 N   0  0  0  0  0  0  0  0  0  0  0  0
    3.7893   -0.3016   42.7005 C   0  0  0  0  0  0  0  0  0  0  0  0
    3.3781   -1.7350   43.0000 C   0  0  0  0  0  0  0  0  0  0  0  0
    2.0339   -1.9619   42.6217 C   0  0  0  0  0  0  0  0  0  0  0  0
    5.0090    0.1219   42.9340 N   0  0  0  0  0  0  0  0  0  0  0  0
    4.2895   -2.4979   43.6707 C   0  0  0  0  0  0  0  0  0  0  0  0
    5.8391   -0.6675   43.6343 C   0  0  0  0  0  0  0  0  0  0  0  0
    6.9849   -0.2377   44.0028 N   0  0  0  0  0  0  0  0  0  0  0  0
    4.0426   -3.8794   44.0832 C   0  0  0  0  0  0  0  0  0  0  0  0
    7.6796   -0.8734   44.9326 C   0  0  0  0  0  0  0  0  0  0  0  0
    1.1064   -2.9576   42.4211 C   0  0  0  0  0  0  0  0  0  0  0  0
    5.5298   -1.9496   44.0315 C   0  0  0  0  0  0  0  0  0  0  0  0
    3.8954   -4.1817   45.4718 C   0  0  0  0  0  0  0  0  0  0  0  0
    0.6765   -3.5480   43.4006 C   0  0  1  0  0  0  0  0  0  0  0  0
    0.5804   -3.2191   41.1635 C   0  0  0  0  0  0  0  0  0  0  0  0
    2.8083   -4.8227   45.9203 N   0  0  0  0  0  0  0  0  0  0  0  0
   -0.1574   -4.5754   42.9329 N   0  0  0  0  0  0  0  0  0  0  0  0
    6.5271   -2.5531   44.9677 C   0  0  0  0  0  0  0  0  0  0  0  0
   -0.2272   -4.3703   41.5137 C   0  0  0  0  0  0  0  0  0  0  0  0
    7.5095   -2.0029   45.3993 C   0  0  0  0  0  0  0  0  0  0  0  0
    8.2550   -2.6982   46.3988 C   0  0  0  0  0  0  0  0  0  0  0  0
    8.8975   -0.3029   45.3267 O   0  0  0  0  0  0  0  0  0  0  0  0
    4.8299   -4.4637   46.4212 C   0  0  0  0  0  0  0  0  0  0  0  0
    4.2707   -4.9248   47.6295 N   0  0  0  0  0  0  0  0  0  0  0  0
    3.2045   -5.2092   47.1521 C   0  0  0  0  0  0  0  0  0  0  0  0
    1.4482   -4.6186   45.4134 C   0  0  1  0  0  0  0  0  0  0  0  0
    1.2398   -3.5043   44.6236 O   0  0  0  0  0  0  0  0  0  0  0  0
    6.3317   -3.9297   46.0870 C   0  0  2  0  0  0  0  0  0  0  0  0
    9.5296   -2.5449   46.9776 C   0  0  0  0  0  0  0  0  0  0  0  0
    9.7921   -1.7530   47.9018 O   0  0  0  0  0  0  0  0  0  0  0  0
    7.3972   -3.8130   46.7939 C   0  0  0  0  0  0  0  0  0  0  0  0
    1.2392   -5.7793   44.5610 C   0  0  0  0  0  0  0  0  0  0  0  0
   10.4934   -3.0755   46.3117 O   0  0  0  0  0  0  0  0  0  0  0  0
   10.9462   -4.1456   46.8830 C   0  0  0  0  0  0  0  0  0  0  0  0
   12.2796   -4.1987   47.0522 C   0  0  0  0  0  0  0  0  0  0  0  0
   12.9062   -5.3205   47.0633 C   0  0  0  0  0  0  0  0  0  0  0  0
   14.4025   -5.4237   47.2465 C   0  0  0  0  0  0  0  0  0  0  0  0
   12.2726   -6.4947   46.5456 C   0  0  0  0  0  0  0  0  0  0  0  0
   12.9587   -7.7334   46.4794 C   0  0  0  0  0  0  0  0  0  0  0  0
   14.2946   -7.7274   46.5128 C   0  0  0  0  0  0  0  0  0  0  0  0
   10.9367   -6.2098   46.3940 C   0  0  0  0  0  0  0  0  0  0  0  0
   10.2725   -5.2032   46.5075 C   0  0  0  0  0  0  0  0  0  0  0  0
   15.0258   -9.0140   46.4072 O   0  0  0  0  0  0  0  0  0  0  0  0
   15.0146   -6.6399   47.0353 C   0  0  0  0  0  0  0  0  0  0  0  0
  1  2  1  0
  2  3  2  0
  3  4  1  0
  1  5  2  0
  4  5  1  0
  3  6  1  0
  4  7  2  0
  6  8  1  0
  8  9  1  0
  7 10  1  0
  9 11  1  0
  5 12  1  0
  7 13  1  0
  8 13  2  0
 10 14  1  0
 12 15  1  0
 12 16  2  0
 14 17  1  0
 15 18  1  0
 13 19  1  0
 16 20  1  0
 18 20  2  0
 11 21  1  0
 19 21  2  0
 21 22  1  0
 11 23  2  0
 14 24  2  0
 24 25  1  0
 17 26  1  0
 25 26  2  0
 17 27  1  0
 15 28  1  6
 27 28  1  0
 19 29  1  0
 24 29  1  0
 22 30  1  0
 30 31  2  0
 22 32  2  0
 29 32  1  1
 27 33  1  6
 30 34  1  0
 34 35  1  0
 35 36  2  0
 36 37  1  0
 37 38  2  0
 37 39  1  0
 39 40  2  0
 40 41  1  0
 39 42  1  0
 35 43  1  0
 42 43  2  0
 41 44  1  0
 38 45  1  0
 41 45  2  0
M  END
$$$$
O14757_Pocket2Mol_idx-in-all-generaetd-238
     RDKit          3D

 40 47  0  0  0  0  0  0  0  0999 V2000
    4.8173    0.2791   42.6993 N   0  0  0  0  0  0  0  0  0  0  0  0
    5.3297   -0.7477   43.3688 C   0  0  0  0  0  0  0  0  0  0  0  0
    3.4732   -0.2235   42.4530 C   0  0  0  0  0  0  0  0  0  0  0  0
    4.4984   -1.7876   43.6214 C   0  0  0  0  0  0  0  0  0  0  0  0
    3.3438   -1.5190   42.9379 C   0  0  0  0  0  0  0  0  0  0  0  0
    2.1381   -2.3401   42.8254 C   0  0  0  0  0  0  0  0  0  0  0  0
    2.3894    0.3572   41.9843 N   0  0  0  0  0  0  0  0  0  0  0  0
    4.9180   -3.0430   44.3829 C   0  0  0  0  0  0  0  0  0  0  0  0
    5.9444   -2.9314   45.3934 C   0  0  0  0  0  0  0  0  0  0  0  0
    4.2808   -4.1329   44.3252 C   0  0  0  0  0  0  0  0  0  0  0  0
    3.1588   -4.4221   43.4852 O   0  0  0  0  0  0  0  0  0  0  0  0
    4.5704   -5.2518   45.1995 C   0  0  0  0  0  0  0  0  0  0  0  0
    1.9853   -3.6792   43.3495 C   0  0  0  0  0  0  0  0  0  0  0  0
    0.9181   -4.3294   43.4638 C   0  0  0  0  0  0  0  0  0  0  0  0
    6.7403   -1.6226   45.5272 C   0  0  2  0  0  0  0  0  0  0  0  0
    0.9752   -1.7845   42.3366 C   0  0  0  0  0  0  0  0  0  0  0  0
    6.2516   -3.7287   46.2722 C   0  0  0  0  0  0  0  0  0  0  0  0
   -0.2404   -2.4179   42.2529 C   0  0  0  0  0  0  0  0  0  0  0  0
   -1.3835   -1.8904   41.6559 N   0  0  0  0  0  0  0  0  0  0  0  0
    3.8706   -6.4216   45.1394 O   0  0  0  0  0  0  0  0  0  0  0  0
    0.9456   -0.2789   41.7649 C   0  0  0  0  0  0  0  0  0  0  0  0
   -0.2678   -3.6969   42.7575 C   0  0  0  0  0  0  0  0  0  0  0  0
    6.3913   -0.7000   44.3807 N   0  0  0  0  0  0  0  0  0  0  0  0
    7.9391   -1.5867   46.0069 C   0  0  0  0  0  0  0  0  0  0  0  0
    8.7787   -0.4879   45.9761 O   0  0  0  0  0  0  0  0  0  0  0  0
    5.3853   -5.1216   46.3780 C   0  0  0  0  0  0  0  0  0  0  0  0
    8.4504   -2.7517   46.6262 N   0  0  0  0  0  0  0  0  0  0  0  0
    7.4807   -3.7374   47.0380 C   0  0  0  0  0  0  0  0  0  0  0  0
    9.7261   -2.6138   47.3732 C   0  0  0  0  0  0  0  0  0  0  0  0
    9.9606   -3.7577   48.0581 C   0  0  0  0  0  0  0  0  0  0  0  0
   11.0999   -4.4648   47.7368 O   0  0  0  0  0  0  0  0  0  0  0  0
   10.9199   -5.0316   46.4526 C   0  0  0  0  0  0  0  0  0  0  0  0
   10.2272   -6.0822   46.3751 C   0  0  0  0  0  0  0  0  0  0  0  0
   11.3454   -4.3181   45.2884 C   0  0  0  0  0  0  0  0  0  0  0  0
    9.6833   -6.6841   47.5703 O   0  0  0  0  0  0  0  0  0  0  0  0
   10.2626   -7.0665   45.3234 C   0  0  0  0  0  0  0  0  0  0  0  0
    9.1410   -7.9540   47.6979 C   0  0  0  0  0  0  0  0  0  0  0  0
   11.9885   -3.0879   45.2862 C   0  0  0  0  0  0  0  0  0  0  0  0
   10.9553   -6.4812   44.2464 C   0  0  0  0  0  0  0  0  0  0  0  0
   11.4493   -5.1843   44.2067 C   0  0  0  0  0  0  0  0  0  0  0  0
  1  2  2  0
  1  3  1  0
  2  4  1  0
  3  5  1  0
  4  5  2  0
  5  6  1  0
  3  7  2  0
  4  8  1  0
  8  9  1  0
  8 10  2  0
 10 11  1  0
 10 12  1  0
  6 13  1  0
 11 13  1  0
 13 14  2  0
  9 15  1  0
  6 16  2  0
  9 17  2  0
 16 18  1  0
 18 19  1  0
 12 20  1  0
  7 21  1  0
 16 21  1  0
 14 22  1  0
 18 22  2  0
  2 23  1  0
 15 23  1  6
 15 24  1  0
 24 25  2  0
 12 26  2  0
 17 26  1  0
 24 27  1  0
 17 28  1  0
 27 28  1  0
 27 29  1  0
 29 30  1  0
 30 31  1  0
 31 32  1  0
 32 33  2  0
 32 34  1  0
 33 35  1  0
 33 36  1  0
 35 37  1  0
 34 38  1  0
 36 39  2  0
 34 40  2  0
 39 40  1  0
M  END
$$$$
O14757_Pocket2Mol_idx-in-all-generaetd-239
     RDKit          3D

 27 31  0  0  0  0  0  0  0  0999 V2000
    5.3514   -0.5125   43.1709 C   0  0  0  0  0  0  0  0  0  0  0  0
    5.1845   -1.6713   43.7896 C   0  0  0  0  0  0  0  0  0  0  0  0
    4.3975    0.1846   42.6789 N   0  0  0  0  0  0  0  0  0  0  0  0
    6.1110   -2.4794   44.5026 C   0  0  0  0  0  0  0  0  0  0  0  0
    3.1882   -0.2361   42.4346 C   0  0  0  0  0  0  0  0  0  0  0  0
    5.6737   -3.4701   45.3157 C   0  0  0  0  0  0  0  0  0  0  0  0
    2.8873   -1.5370   42.8148 N   0  0  0  0  0  0  0  0  0  0  0  0
    2.2882    0.4424   41.8227 N   0  0  0  0  0  0  0  0  0  0  0  0
    4.4679   -4.1651   44.9989 C   0  0  0  0  0  0  0  0  0  0  0  0
    7.3419   -1.8381   44.7891 C   0  0  0  0  0  0  0  0  0  0  0  0
    3.8600   -2.3782   43.6575 C   0  0  0  0  0  0  0  0  0  0  0  0
    3.5111   -3.5244   44.2317 N   0  0  0  0  0  0  0  0  0  0  0  0
    1.1058   -0.5347   41.7583 C   0  0  0  0  0  0  0  0  0  0  0  0
    1.5663   -1.8116   42.4239 C   0  0  0  0  0  0  0  0  0  0  0  0
    6.5651   -4.2288   46.1610 C   0  0  0  0  0  0  0  0  0  0  0  0
    0.8596   -3.0134   42.4732 C   0  0  0  0  0  0  0  0  0  0  0  0
    0.5770   -3.5524   43.4434 N   0  0  0  0  0  0  0  0  0  0  0  0
    0.0101   -4.7871   43.1410 N   0  0  0  0  0  0  0  0  0  0  0  0
    8.2064   -2.5082   45.7658 C   0  0  0  0  0  0  0  0  0  0  0  0
   -0.0258   -5.8973   43.9449 C   0  0  0  0  0  0  0  0  0  0  0  0
   -0.1542   -4.7315   41.8526 C   0  0  0  0  0  0  0  0  0  0  0  0
    7.7929   -3.6561   46.4560 C   0  0  0  0  0  0  0  0  0  0  0  0
    9.4720   -2.0081   46.0703 C   0  0  0  0  0  0  0  0  0  0  0  0
    9.9624   -0.8948   45.5702 O   0  0  0  0  0  0  0  0  0  0  0  0
    0.2014   -3.6203   41.2221 C   0  0  0  0  0  0  0  0  0  0  0  0
   10.3806   -2.6878   46.7484 O   0  0  0  0  0  0  0  0  0  0  0  0
   11.6817   -2.7762   46.2352 C   0  0  0  0  0  0  0  0  0  0  0  0
  1  2  1  0
  1  3  2  0
  2  4  1  0
  3  5  1  0
  4  6  1  0
  5  7  1  0
  5  8  2  0
  6  9  2  0
  4 10  2  0
  2 11  2  0
  7 11  1  0
  9 12  1  0
 11 12  1  0
  8 13  1  0
  7 14  1  0
 13 14  2  0
  6 15  1  0
 14 16  1  0
 16 17  2  0
 17 18  1  0
 10 19  1  0
 18 20  1  0
 18 21  1  0
 15 22  2  0
 19 22  1  0
 19 23  1  0
 23 24  2  0
 16 25  1  0
 21 25  2  0
 23 26  1  0
 26 27  1  0
M  END
$$$$
O14757_Pocket2Mol_idx-in-all-generaetd-240
     RDKit          3D

 39 46  0  0  0  0  0  0  0  0999 V2000
    1.5482   -0.3111   41.9233 C   0  0  0  0  0  0  0  0  0  0  0  0
    2.7284    0.2018   42.1525 N   0  0  0  0  0  0  0  0  0  0  0  0
    3.7893   -0.3016   42.7005 C   0  0  0  0  0  0  0  0  0  0  0  0
    3.3781   -1.7350   43.0000 C   0  0  0  0  0  0  0  0  0  0  0  0
    2.0339   -1.9619   42.6217 C   0  0  0  0  0  0  0  0  0  0  0  0
    4.1166   -2.4997   43.8458 C   0  0  0  0  0  0  0  0  0  0  0  0
    1.1731   -3.0051   42.5773 C   0  0  0  0  0  0  0  0  0  0  0  0
    0.4701   -3.2344   41.4901 C   0  0  0  0  0  0  0  0  0  0  0  0
    5.3799   -1.7814   44.2691 C   0  0  0  0  0  0  0  0  0  0  0  0
    5.0159   -0.0180   43.1201 N   0  0  0  0  0  0  0  0  0  0  0  0
    5.7693   -0.6937   43.8418 C   0  0  0  0  0  0  0  0  0  0  0  0
    0.8078   -3.6166   43.6782 C   0  0  0  0  0  0  0  0  0  0  0  0
    0.0663   -4.7011   43.7415 N   0  0  0  0  0  0  0  0  0  0  0  0
    6.2223   -2.6843   45.1565 C   0  0  0  0  0  0  0  0  0  0  0  0
    6.9599   -0.2351   44.2608 N   0  0  0  0  0  0  0  0  0  0  0  0
    5.9065   -3.9037   45.7499 N   0  0  0  0  0  0  0  0  0  0  0  0
   -0.5459   -5.1185   42.5870 C   0  0  0  0  0  0  0  0  0  0  0  0
    5.7480   -4.0340   46.9810 C   0  0  0  0  0  0  0  0  0  0  0  0
    7.4448   -1.8511   45.4198 C   0  0  0  0  0  0  0  0  0  0  0  0
    7.7572   -0.7827   45.0128 C   0  0  0  0  0  0  0  0  0  0  0  0
    8.4076   -2.7217   46.4541 C   0  0  0  0  0  0  0  0  0  0  0  0
    9.3167   -2.0988   47.1049 N   0  0  0  0  0  0  0  0  0  0  0  0
   -0.4719   -4.3893   41.5406 C   0  0  0  0  0  0  0  0  0  0  0  0
    8.3667   -4.0284   46.5743 N   0  0  0  0  0  0  0  0  0  0  0  0
    9.5309   -4.3147   47.3094 C   0  0  0  0  0  0  0  0  0  0  0  0
    5.3113   -3.3789   47.8005 O   0  0  0  0  0  0  0  0  0  0  0  0
    9.9022   -5.6301   47.7684 C   0  0  0  0  0  0  0  0  0  0  0  0
    5.4470   -5.5868   47.2096 C   0  0  0  0  0  0  0  0  0  0  0  0
   11.2254   -5.8679   48.0402 C   0  0  0  0  0  0  0  0  0  0  0  0
    8.9736   -6.6532   47.8548 C   0  0  0  0  0  0  0  0  0  0  0  0
   10.0616   -3.0670   47.6360 C   0  0  0  0  0  0  0  0  0  0  0  0
    7.5566   -6.3564   47.5477 N   0  0  0  0  0  0  0  0  0  0  0  0
    6.4157   -6.1721   48.0913 C   0  0  0  0  0  0  0  0  0  0  0  0
   12.3275   -4.8510   47.9324 C   0  0  0  0  0  0  0  0  0  0  0  0
    9.4585   -7.9662   48.0726 C   0  0  0  0  0  0  0  0  0  0  0  0
   11.3409   -2.8522   48.3712 C   0  0  0  0  0  0  0  0  0  0  0  0
   12.0488   -3.8720   48.8901 O   0  0  0  0  0  0  0  0  0  0  0  0
   10.7430   -8.1812   48.4145 C   0  0  0  0  0  0  0  0  0  0  0  0
   11.6907   -7.1707   48.3560 C   0  0  0  0  0  0  0  0  0  0  0  0
  1  2  1  0
  2  3  2  0
  3  4  1  0
  1  5  2  0
  4  5  1  0
  4  6  2  0
  5  7  1  0
  7  8  2  0
  6  9  1  0
  3 10  1  0
  9 11  2  0
 10 11  1  0
  7 12  1  0
 12 13  2  0
  9 14  1  0
 11 15  1  0
 14 16  1  0
 13 17  1  0
 16 18  1  0
 14 19  2  0
 15 20  2  0
 19 20  1  0
 19 21  1  0
 21 22  2  0
  8 23  1  0
 17 23  2  0
 21 24  1  0
 24 25  1  0
 18 26  2  0
 25 27  1  0
 18 28  1  0
 27 29  2  0
 27 30  1  0
 22 31  1  0
 25 31  2  0
 30 32  1  0
 28 33  1  0
 32 33  1  0
 29 34  1  0
 30 35  2  0
 31 36  1  0
 34 37  1  0
 36 37  1  0
 35 38  1  0
 29 39  1  0
 38 39  2  0
M  END
$$$$
O14757_Pocket2Mol_idx-in-all-generaetd-241
     RDKit          3D

 43 51  0  0  0  0  0  0  0  0999 V2000
    1.5482   -0.3111   41.9233 C   0  0  0  0  0  0  0  0  0  0  0  0
    2.7284    0.2018   42.1525 N   0  0  0  0  0  0  0  0  0  0  0  0
    3.7893   -0.3016   42.7005 C   0  0  0  0  0  0  0  0  0  0  0  0
    3.3781   -1.7350   43.0000 C   0  0  0  0  0  0  0  0  0  0  0  0
    2.0339   -1.9619   42.6217 C   0  0  0  0  0  0  0  0  0  0  0  0
    4.1166   -2.4997   43.8458 C   0  0  0  0  0  0  0  0  0  0  0  0
    1.1731   -3.0051   42.5773 C   0  0  0  0  0  0  0  0  0  0  0  0
    0.4701   -3.2344   41.4901 C   0  0  0  0  0  0  0  0  0  0  0  0
    5.3799   -1.7814   44.2691 C   0  0  0  0  0  0  0  0  0  0  0  0
    5.0159   -0.0180   43.1201 N   0  0  0  0  0  0  0  0  0  0  0  0
    5.7693   -0.6937   43.8418 C   0  0  0  0  0  0  0  0  0  0  0  0
    0.8078   -3.6166   43.6782 C   0  0  0  0  0  0  0  0  0  0  0  0
    0.0663   -4.7011   43.7415 N   0  0  0  0  0  0  0  0  0  0  0  0
    6.2223   -2.6843   45.1565 C   0  0  0  0  0  0  0  0  0  0  0  0
    6.9599   -0.2351   44.2608 N   0  0  0  0  0  0  0  0  0  0  0  0
    5.9065   -3.9037   45.7499 N   0  0  0  0  0  0  0  0  0  0  0  0
   -0.5459   -5.1185   42.5870 C   0  0  0  0  0  0  0  0  0  0  0  0
    5.7480   -4.0340   46.9810 C   0  0  0  0  0  0  0  0  0  0  0  0
    7.4448   -1.8511   45.4198 C   0  0  0  0  0  0  0  0  0  0  0  0
    7.7572   -0.7827   45.0128 C   0  0  0  0  0  0  0  0  0  0  0  0
    8.4076   -2.7217   46.4541 C   0  0  0  0  0  0  0  0  0  0  0  0
    9.3167   -2.0988   47.1049 N   0  0  0  0  0  0  0  0  0  0  0  0
   -0.4719   -4.3893   41.5406 C   0  0  0  0  0  0  0  0  0  0  0  0
    8.3667   -4.0284   46.5743 N   0  0  0  0  0  0  0  0  0  0  0  0
    9.5309   -4.3147   47.3094 C   0  0  0  0  0  0  0  0  0  0  0  0
    5.3113   -3.3789   47.8005 O   0  0  0  0  0  0  0  0  0  0  0  0
    9.9022   -5.6301   47.7684 C   0  0  0  0  0  0  0  0  0  0  0  0
    5.4470   -5.5868   47.2096 C   0  0  0  0  0  0  0  0  0  0  0  0
   11.2254   -5.8679   48.0402 C   0  0  0  0  0  0  0  0  0  0  0  0
    8.9736   -6.6532   47.8548 C   0  0  0  0  0  0  0  0  0  0  0  0
   10.0616   -3.0670   47.6360 C   0  0  0  0  0  0  0  0  0  0  0  0
    7.5566   -6.3564   47.5477 N   0  0  0  0  0  0  0  0  0  0  0  0
   12.3328   -4.8893   47.9268 C   0  0  2  0  0  0  0  0  0  0  0  0
   12.2085   -3.9673   46.9997 C   0  0  0  0  0  0  0  0  0  0  0  0
   11.5720   -2.8294   47.8112 C   0  0  0  0  0  0  0  0  0  0  0  0
   11.5497   -7.1871   48.4172 C   0  0  0  0  0  0  0  0  0  0  0  0
   13.5576   -5.8273   47.6737 C   0  0  0  0  0  0  0  0  0  0  0  0
   10.6555   -8.2234   48.5860 C   0  0  0  0  0  0  0  0  0  0  0  0
    9.3214   -7.9341   48.2947 C   0  0  0  0  0  0  0  0  0  0  0  0
   14.8413   -5.2792   47.8604 C   0  0  0  0  0  0  0  0  0  0  0  0
    6.4058   -6.1050   48.1525 C   0  0  0  0  0  0  0  0  0  0  0  0
   13.5462   -6.4047   46.3208 C   0  0  0  0  0  0  0  0  0  0  0  0
   13.2091   -7.0223   48.6446 C   0  0  0  0  0  0  0  0  0  0  0  0
  1  2  1  0
  2  3  2  0
  3  4  1  0
  1  5  2  0
  4  5  1  0
  4  6  2  0
  5  7  1  0
  7  8  2  0
  6  9  1  0
  3 10  1  0
  9 11  2  0
 10 11  1  0
  7 12  1  0
 12 13  2  0
  9 14  1  0
 11 15  1  0
 14 16  1  0
 13 17  1  0
 16 18  1  0
 14 19  2  0
 15 20  2  0
 19 20  1  0
 19 21  1  0
 21 22  2  0
  8 23  1  0
 17 23  2  0
 21 24  1  0
 24 25  1  0
 18 26  2  0
 25 27  1  0
 18 28  1  0
 27 29  2  0
 27 30  1  0
 22 31  1  0
 25 31  2  0
 30 32  1  0
 29 33  1  0
 33 34  1  6
 31 35  1  0
 34 35  1  0
 29 36  1  0
 33 37  1  0
 36 38  2  0
 30 39  2  0
 38 39  1  0
 37 40  1  0
 28 41  1  0
 32 41  1  0
 37 42  1  0
 36 43  1  0
 37 43  1  0
M  END
$$$$
O14757_Pocket2Mol_idx-in-all-generaetd-242
     RDKit          3D

 39 46  0  0  0  0  0  0  0  0999 V2000
    4.8173    0.2791   42.6993 N   0  0  0  0  0  0  0  0  0  0  0  0
    5.3297   -0.7477   43.3688 C   0  0  0  0  0  0  0  0  0  0  0  0
    3.4732   -0.2235   42.4530 C   0  0  0  0  0  0  0  0  0  0  0  0
    4.4984   -1.7876   43.6214 C   0  0  0  0  0  0  0  0  0  0  0  0
    3.3438   -1.5190   42.9379 C   0  0  0  0  0  0  0  0  0  0  0  0
    2.1381   -2.3401   42.8254 C   0  0  0  0  0  0  0  0  0  0  0  0
    2.3894    0.3572   41.9843 N   0  0  0  0  0  0  0  0  0  0  0  0
    4.9180   -3.0430   44.3829 C   0  0  0  0  0  0  0  0  0  0  0  0
    5.9444   -2.9314   45.3934 C   0  0  0  0  0  0  0  0  0  0  0  0
    4.2808   -4.1329   44.3252 C   0  0  0  0  0  0  0  0  0  0  0  0
    3.1588   -4.4221   43.4852 O   0  0  0  0  0  0  0  0  0  0  0  0
    4.5704   -5.2518   45.1995 C   0  0  0  0  0  0  0  0  0  0  0  0
    1.9853   -3.6792   43.3495 C   0  0  0  0  0  0  0  0  0  0  0  0
    0.9181   -4.3294   43.4638 C   0  0  0  0  0  0  0  0  0  0  0  0
    6.7403   -1.6226   45.5272 C   0  0  2  0  0  0  0  0  0  0  0  0
    0.9752   -1.7845   42.3366 C   0  0  0  0  0  0  0  0  0  0  0  0
    6.2516   -3.7287   46.2722 C   0  0  0  0  0  0  0  0  0  0  0  0
   -0.2404   -2.4179   42.2529 C   0  0  0  0  0  0  0  0  0  0  0  0
   -1.3835   -1.8904   41.6559 N   0  0  0  0  0  0  0  0  0  0  0  0
    3.8706   -6.4216   45.1394 O   0  0  0  0  0  0  0  0  0  0  0  0
    0.9456   -0.2789   41.7649 C   0  0  0  0  0  0  0  0  0  0  0  0
   -0.2678   -3.6969   42.7575 C   0  0  0  0  0  0  0  0  0  0  0  0
    6.3913   -0.7000   44.3807 N   0  0  0  0  0  0  0  0  0  0  0  0
    7.9391   -1.5867   46.0069 C   0  0  0  0  0  0  0  0  0  0  0  0
    7.1969   -3.5621   47.3287 C   0  0  0  0  0  0  0  0  0  0  0  0
    5.4958   -5.0534   46.2483 C   0  0  0  0  0  0  0  0  0  0  0  0
    7.4872   -4.5338   48.2539 O   0  0  0  0  0  0  0  0  0  0  0  0
    8.1281   -2.5304   47.0986 C   0  0  1  0  0  0  0  0  0  0  0  0
    8.7872   -0.5908   45.9403 O   0  0  0  0  0  0  0  0  0  0  0  0
    9.4892   -2.5717   47.7347 C   0  0  0  0  0  0  0  0  0  0  0  0
   10.5268   -2.9441   46.9599 C   0  0  0  0  0  0  0  0  0  0  0  0
   11.4734   -2.0640   46.5154 C   0  0  0  0  0  0  0  0  0  0  0  0
   10.5880   -4.1779   46.4457 C   0  0  0  0  0  0  0  0  0  0  0  0
   11.8137   -4.3609   45.5935 C   0  0  0  0  0  0  0  0  0  0  0  0
   11.9120   -5.7564   45.1569 O   0  0  0  0  0  0  0  0  0  0  0  0
   12.5491   -3.4558   45.3063 C   0  0  0  0  0  0  0  0  0  0  0  0
   11.2219   -0.6184   47.0784 O   0  0  0  0  0  0  0  0  0  0  0  0
   12.4512   -2.1607   45.7156 C   0  0  0  0  0  0  0  0  0  0  0  0
   12.6797   -6.5488   45.8232 C   0  0  0  0  0  0  0  0  0  0  0  0
  1  2  2  0
  1  3  1  0
  2  4  1  0
  3  5  1  0
  4  5  2  0
  5  6  1  0
  3  7  2  0
  4  8  1  0
  8  9  1  0
  8 10  2  0
 10 11  1  0
 10 12  1  0
  6 13  1  0
 11 13  1  0
 13 14  2  0
  9 15  1  0
  6 16  2  0
  9 17  2  0
 16 18  1  0
 18 19  1  0
 12 20  1  0
  7 21  1  0
 16 21  1  0
 14 22  1  0
 18 22  2  0
  2 23  1  0
 15 23  1  6
 15 24  1  0
 17 25  1  0
 12 26  2  0
 17 26  1  0
 25 27  2  0
 24 28  1  0
 25 28  1  0
 24 29  2  0
 28 30  1  6
 30 31  1  0
 31 32  2  0
 31 33  1  0
 33 34  2  0
 34 35  1  0
 34 36  1  0
 32 37  1  0
 32 38  1  0
 36 38  2  0
 35 39  1  0
M  END
$$$$
O14757_Pocket2Mol_idx-in-all-generaetd-243
     RDKit          3D

 41 49  0  0  0  0  0  0  0  0999 V2000
    4.8173    0.2791   42.6993 N   0  0  0  0  0  0  0  0  0  0  0  0
    5.3297   -0.7477   43.3688 C   0  0  0  0  0  0  0  0  0  0  0  0
    3.4732   -0.2235   42.4530 C   0  0  0  0  0  0  0  0  0  0  0  0
    4.4984   -1.7876   43.6214 C   0  0  0  0  0  0  0  0  0  0  0  0
    3.3438   -1.5190   42.9379 C   0  0  0  0  0  0  0  0  0  0  0  0
    2.1381   -2.3401   42.8254 C   0  0  0  0  0  0  0  0  0  0  0  0
    2.3894    0.3572   41.9843 N   0  0  0  0  0  0  0  0  0  0  0  0
    4.9180   -3.0430   44.3829 C   0  0  0  0  0  0  0  0  0  0  0  0
    5.9444   -2.9314   45.3934 C   0  0  0  0  0  0  0  0  0  0  0  0
    4.2808   -4.1329   44.3252 C   0  0  0  0  0  0  0  0  0  0  0  0
    3.1588   -4.4221   43.4852 O   0  0  0  0  0  0  0  0  0  0  0  0
    4.5704   -5.2518   45.1995 C   0  0  0  0  0  0  0  0  0  0  0  0
    1.9853   -3.6792   43.3495 C   0  0  0  0  0  0  0  0  0  0  0  0
    0.9181   -4.3294   43.4638 C   0  0  0  0  0  0  0  0  0  0  0  0
    6.7403   -1.6226   45.5272 C   0  0  2  0  0  0  0  0  0  0  0  0
    0.9752   -1.7845   42.3366 C   0  0  0  0  0  0  0  0  0  0  0  0
    6.2516   -3.7287   46.2722 C   0  0  0  0  0  0  0  0  0  0  0  0
   -0.2404   -2.4179   42.2529 C   0  0  0  0  0  0  0  0  0  0  0  0
   -1.3835   -1.8904   41.6559 N   0  0  0  0  0  0  0  0  0  0  0  0
    3.8706   -6.4216   45.1394 O   0  0  0  0  0  0  0  0  0  0  0  0
    0.9456   -0.2789   41.7649 C   0  0  0  0  0  0  0  0  0  0  0  0
   -0.2678   -3.6969   42.7575 C   0  0  0  0  0  0  0  0  0  0  0  0
    6.3913   -0.7000   44.3807 N   0  0  0  0  0  0  0  0  0  0  0  0
    7.9391   -1.5867   46.0069 C   0  0  0  0  0  0  0  0  0  0  0  0
    8.7787   -0.4879   45.9761 O   0  0  0  0  0  0  0  0  0  0  0  0
    5.3853   -5.1216   46.3780 C   0  0  0  0  0  0  0  0  0  0  0  0
    8.4504   -2.7517   46.6262 N   0  0  0  0  0  0  0  0  0  0  0  0
    7.4807   -3.7374   47.0380 C   0  0  0  0  0  0  0  0  0  0  0  0
    9.7261   -2.6138   47.3732 C   0  0  0  0  0  0  0  0  0  0  0  0
    9.9606   -3.7577   48.0581 C   0  0  0  0  0  0  0  0  0  0  0  0
   11.0999   -4.4648   47.7368 O   0  0  0  0  0  0  0  0  0  0  0  0
   10.9199   -5.0316   46.4526 C   0  0  0  0  0  0  0  0  0  0  0  0
   10.2272   -6.0822   46.3751 C   0  0  0  0  0  0  0  0  0  0  0  0
   11.3454   -4.3181   45.2884 C   0  0  0  0  0  0  0  0  0  0  0  0
    9.6833   -6.6841   47.5703 O   0  0  0  0  0  0  0  0  0  0  0  0
   10.0727   -6.7886   45.2347 C   0  0  0  0  0  0  0  0  0  0  0  0
    9.4443   -8.0321   45.3228 O   0  0  0  0  0  0  0  0  0  0  0  0
    9.2323   -7.9784   47.6769 C   0  0  0  0  0  0  0  0  0  0  0  0
    9.6183   -8.8235   46.5468 C   0  0  0  0  0  0  0  0  0  0  0  0
   10.6088   -6.3026   44.1245 C   0  0  0  0  0  0  0  0  0  0  0  0
   11.2063   -5.0631   44.1559 C   0  0  0  0  0  0  0  0  0  0  0  0
  1  2  2  0
  1  3  1  0
  2  4  1  0
  3  5  1  0
  4  5  2  0
  5  6  1  0
  3  7  2  0
  4  8  1  0
  8  9  1  0
  8 10  2  0
 10 11  1  0
 10 12  1  0
  6 13  1  0
 11 13  1  0
 13 14  2  0
  9 15  1  0
  6 16  2  0
  9 17  2  0
 16 18  1  0
 18 19  1  0
 12 20  1  0
  7 21  1  0
 16 21  1  0
 14 22  1  0
 18 22  2  0
  2 23  1  0
 15 23  1  6
 15 24  1  0
 24 25  2  0
 12 26  2  0
 17 26  1  0
 24 27  1  0
 17 28  1  0
 27 28  1  0
 27 29  1  0
 29 30  1  0
 30 31  1  0
 31 32  1  0
 32 33  1  0
 32 34  2  0
 33 35  1  0
 33 36  2  0
 36 37  1  0
 35 38  1  0
 37 39  1  0
 38 39  1  0
 36 40  1  0
 34 41  1  0
 40 41  2  0
M  END
$$$$
O14757_Pocket2Mol_idx-in-all-generaetd-244
     RDKit          3D

 48 56  0  0  0  0  0  0  0  0999 V2000
    5.3420    0.2589   42.8836 O   0  0  0  0  0  0  0  0  0  0  0  0
    5.1627   -0.7554   43.4753 C   0  0  0  0  0  0  0  0  0  0  0  0
    4.0509   -1.4657   43.4177 N   0  0  0  0  0  0  0  0  0  0  0  0
    5.9969   -1.2317   44.6840 C   0  0  0  0  0  0  0  0  0  0  0  0
    2.9618   -1.1021   42.5918 C   0  0  1  0  0  0  0  0  0  0  0  0
    7.3392   -0.8596   44.8412 C   0  0  0  0  0  0  0  0  0  0  0  0
    1.9754   -2.0820   42.2741 C   0  0  0  0  0  0  0  0  0  0  0  0
    5.5910   -2.4282   45.3439 C   0  0  0  0  0  0  0  0  0  0  0  0
    6.5874   -2.9636   46.1581 C   0  0  0  0  0  0  0  0  0  0  0  0
    4.2763   -3.0680   45.0493 N   0  0  0  0  0  0  0  0  0  0  0  0
    3.6188   -2.5886   44.2024 C   0  0  0  0  0  0  0  0  0  0  0  0
    8.1921   -1.4071   45.7505 C   0  0  0  0  0  0  0  0  0  0  0  0
    1.0154   -1.8839   41.2980 C   0  0  0  0  0  0  0  0  0  0  0  0
    2.5720   -3.3564   43.9063 C   0  0  0  0  0  0  0  0  0  0  0  0
    0.2502   -2.8976   41.0751 C   0  0  0  0  0  0  0  0  0  0  0  0
    6.1761   -4.1775   47.0209 C   0  0  0  0  0  0  0  0  0  0  0  0
    1.7266   -3.1047   43.0115 C   0  0  2  0  0  0  0  0  0  0  0  0
    2.3696   -4.5367   44.7536 N   0  0  0  0  0  0  0  0  0  0  0  0
    1.2264   -5.2346   44.4693 C   0  0  0  0  0  0  0  0  0  0  0  0
    0.7187   -3.8955   42.5465 C   0  0  0  0  0  0  0  0  0  0  0  0
    9.4576   -0.8949   46.0327 N   0  0  0  0  0  0  0  0  0  0  0  0
    0.8625   -6.3901   45.2462 C   0  0  0  0  0  0  0  0  0  0  0  0
    7.6467   -2.5139   46.4892 C   0  0  0  0  0  0  0  0  0  0  0  0
   10.4908   -1.5336   45.8242 C   0  0  0  0  0  0  0  0  0  0  0  0
    0.3057   -4.9299   43.2909 C   0  0  0  0  0  0  0  0  0  0  0  0
   11.5916   -1.4291   46.7436 C   0  0  0  0  0  0  0  0  0  0  0  0
   10.5566   -2.3672   44.8649 O   0  0  0  0  0  0  0  0  0  0  0  0
    2.4730    0.2084   42.8389 O   0  0  0  0  0  0  0  0  0  0  0  0
   11.6027   -2.2081   47.7725 N   0  0  0  0  0  0  0  0  0  0  0  0
   12.6189   -0.5862   46.5415 C   0  0  0  0  0  0  0  0  0  0  0  0
   13.6413   -0.4484   47.4129 C   0  0  0  0  0  0  0  0  0  0  0  0
   10.4764   -3.1097   48.1134 C   0  0  0  0  0  0  0  0  0  0  0  0
    9.5762   -2.4717   49.0753 C   0  0  0  0  0  0  0  0  0  0  0  0
    9.7761   -1.2394   49.5167 C   0  0  0  0  0  0  0  0  0  0  0  0
    8.6397   -3.3252   49.7339 C   0  0  0  0  0  0  0  0  0  0  0  0
    8.9861   -0.7034   50.5819 C   0  0  0  0  0  0  0  0  0  0  0  0
   14.7137    0.5128   47.0925 C   0  0  0  0  0  0  0  0  0  0  0  0
    8.1815   -1.5423   51.2387 C   0  0  0  0  0  0  0  0  0  0  0  0
    8.4156   -4.7176   49.2102 O   0  0  0  0  0  0  0  0  0  0  0  0
   13.6915   -1.2597   48.4795 C   0  0  0  0  0  0  0  0  0  0  0  0
   14.7842   -1.1839   49.3622 C   0  0  0  0  0  0  0  0  0  0  0  0
   12.5774   -2.1710   48.6835 C   0  0  0  0  0  0  0  0  0  0  0  0
    7.9848   -2.9066   50.8049 C   0  0  0  0  0  0  0  0  0  0  0  0
   15.8048   -0.2210   49.1389 C   0  0  0  0  0  0  0  0  0  0  0  0
   16.9217   -0.0644   50.0099 O   0  0  0  0  0  0  0  0  0  0  0  0
   15.7311    0.6187   48.0063 C   0  0  0  0  0  0  0  0  0  0  0  0
    7.1839   -5.2252   49.3646 C   0  0  0  0  0  0  0  0  0  0  0  0
    7.0767   -4.9329   47.7270 C   0  0  0  0  0  0  0  0  0  0  0  0
  1  2  2  0
  2  3  1  0
  2  4  1  0
  3  5  1  0
  4  6  2  0
  5  7  1  0
  4  8  1  0
  8  9  2  0
  8 10  1  0
  3 11  1  0
 10 11  2  0
  6 12  1  0
  7 13  2  0
 11 14  1  0
 13 15  1  0
  9 16  1  0
 17  7  1  6
 14 17  1  0
 14 18  2  0
 18 19  1  0
 15 20  2  0
 17 20  1  0
 12 21  1  0
 19 22  1  0
  9 23  1  0
 12 23  2  0
 21 24  1  0
 19 25  2  0
 20 25  1  0
 24 26  1  0
 24 27  2  0
  5 28  1  1
 26 29  1  0
 26 30  2  0
 30 31  1  0
 29 32  1  0
 32 33  1  0
 33 34  1  0
 33 35  2  0
 34 36  2  0
 31 37  2  0
 36 38  1  0
 35 39  1  0
 31 40  1  0
 40 41  2  0
 29 42  1  0
 40 42  1  0
 35 43  1  0
 38 43  2  0
 41 44  1  0
 44 45  1  0
 37 46  1  0
 44 46  2  0
 39 47  1  0
 16 48  1  0
 47 48  1  0
M  END
$$$$
O14757_Pocket2Mol_idx-in-all-generaetd-245
     RDKit          3D

 18 19  0  0  0  0  0  0  0  0999 V2000
    5.3420    0.2589   42.8836 O   0  0  0  0  0  0  0  0  0  0  0  0
    5.1627   -0.7554   43.4753 C   0  0  0  0  0  0  0  0  0  0  0  0
    4.0509   -1.4657   43.4177 N   0  0  0  0  0  0  0  0  0  0  0  0
    5.9969   -1.2317   44.6840 C   0  0  0  0  0  0  0  0  0  0  0  0
    2.9618   -1.1021   42.5918 C   0  0  0  0  0  0  0  0  0  0  0  0
    2.0342   -2.0118   42.3240 C   0  0  0  0  0  0  0  0  0  0  0  0
    5.7960   -2.3731   45.4134 C   0  0  0  0  0  0  0  0  0  0  0  0
    6.7643   -2.8673   46.3300 C   0  0  0  0  0  0  0  0  0  0  0  0
    7.8839   -1.8161   46.2935 C   0  0  0  0  0  0  0  0  0  0  0  0
    7.4792   -0.7120   45.0123 S   0  0  0  0  0  0  0  0  0  0  0  0
    2.7700    0.1737   42.3209 N   0  0  0  0  0  0  0  0  0  0  0  0
    9.0153   -1.9289   47.1051 C   0  0  0  0  0  0  0  0  0  0  0  0
    0.9354   -1.7573   41.5151 C   0  0  0  0  0  0  0  0  0  0  0  0
   10.0773   -1.8877   46.5377 O   0  0  0  0  0  0  0  0  0  0  0  0
    0.6281   -0.4674   41.2965 C   0  0  0  0  0  0  0  0  0  0  0  0
    1.6029    0.5007   41.6828 C   0  0  0  0  0  0  0  0  0  0  0  0
   -0.1218   -2.8508   41.2717 C   0  0  0  0  0  0  0  0  0  0  0  0
    8.9249   -1.6603   48.3395 O   0  0  0  0  0  0  0  0  0  0  0  0
  1  2  2  0
  2  3  1  0
  2  4  1  0
  3  5  1  0
  5  6  2  0
  4  7  2  0
  7  8  1  0
  8  9  2  0
  4 10  1  0
  9 10  1  0
  5 11  1  0
  9 12  1  0
  6 13  1  0
 12 14  2  0
 13 15  2  0
 11 16  2  0
 15 16  1  0
 13 17  1  0
 12 18  1  0
M  END
$$$$
O14757_Pocket2Mol_idx-in-all-generaetd-246
     RDKit          3D

 49 58  0  0  0  0  0  0  0  0999 V2000
    1.5482   -0.3111   41.9233 C   0  0  0  0  0  0  0  0  0  0  0  0
    2.7284    0.2018   42.1525 N   0  0  0  0  0  0  0  0  0  0  0  0
    3.7893   -0.3016   42.7005 C   0  0  0  0  0  0  0  0  0  0  0  0
    3.3781   -1.7350   43.0000 C   0  0  0  0  0  0  0  0  0  0  0  0
    2.0339   -1.9619   42.6217 C   0  0  0  0  0  0  0  0  0  0  0  0
    5.0090    0.1219   42.9340 N   0  0  0  0  0  0  0  0  0  0  0  0
    4.2895   -2.4979   43.6707 C   0  0  0  0  0  0  0  0  0  0  0  0
    5.8391   -0.6675   43.6343 C   0  0  0  0  0  0  0  0  0  0  0  0
    6.9849   -0.2377   44.0028 N   0  0  0  0  0  0  0  0  0  0  0  0
    4.0426   -3.8794   44.0832 C   0  0  0  0  0  0  0  0  0  0  0  0
    7.6796   -0.8734   44.9326 C   0  0  0  0  0  0  0  0  0  0  0  0
    1.1064   -2.9576   42.4211 C   0  0  0  0  0  0  0  0  0  0  0  0
    5.5298   -1.9496   44.0315 C   0  0  0  0  0  0  0  0  0  0  0  0
    3.8954   -4.1817   45.4718 C   0  0  0  0  0  0  0  0  0  0  0  0
    0.6765   -3.5480   43.4006 C   0  0  1  0  0  0  0  0  0  0  0  0
    0.5804   -3.2191   41.1635 C   0  0  0  0  0  0  0  0  0  0  0  0
    2.8083   -4.8227   45.9203 N   0  0  0  0  0  0  0  0  0  0  0  0
   -0.1574   -4.5754   42.9329 N   0  0  0  0  0  0  0  0  0  0  0  0
    6.5271   -2.5531   44.9677 C   0  0  0  0  0  0  0  0  0  0  0  0
   -0.2272   -4.3703   41.5137 C   0  0  0  0  0  0  0  0  0  0  0  0
    7.5095   -2.0029   45.3993 C   0  0  0  0  0  0  0  0  0  0  0  0
    8.2550   -2.6982   46.3988 C   0  0  0  0  0  0  0  0  0  0  0  0
    8.8975   -0.3029   45.3267 O   0  0  0  0  0  0  0  0  0  0  0  0
    4.8299   -4.4637   46.4212 C   0  0  0  0  0  0  0  0  0  0  0  0
    4.2707   -4.9248   47.6295 N   0  0  0  0  0  0  0  0  0  0  0  0
    3.2045   -5.2092   47.1521 C   0  0  0  0  0  0  0  0  0  0  0  0
    1.4482   -4.6186   45.4134 C   0  0  2  0  0  0  0  0  0  0  0  0
    1.2398   -3.5043   44.6236 O   0  0  0  0  0  0  0  0  0  0  0  0
    6.3317   -3.9297   46.0870 C   0  0  2  0  0  0  0  0  0  0  0  0
    9.5296   -2.5449   46.9776 C   0  0  0  0  0  0  0  0  0  0  0  0
    9.7921   -1.7530   47.9018 O   0  0  0  0  0  0  0  0  0  0  0  0
    7.3972   -3.8130   46.7939 C   0  0  0  0  0  0  0  0  0  0  0  0
   10.4154   -3.4217   46.6883 O   0  0  0  0  0  0  0  0  0  0  0  0
    0.5555   -4.7535   46.5674 C   0  0  0  0  0  0  0  0  0  0  0  0
   11.6497   -3.0596   47.0439 C   0  0  0  0  0  0  0  0  0  0  0  0
   12.3878   -4.1125   47.6990 C   0  0  1  0  0  0  0  0  0  0  0  0
   11.8800   -5.2760   47.5659 O   0  0  0  0  0  0  0  0  0  0  0  0
   12.1402   -1.9273   46.5416 C   0  0  0  0  0  0  0  0  0  0  0  0
   13.7566   -3.9428   47.4635 C   0  0  0  0  0  0  0  0  0  0  0  0
   11.3924   -5.9178   48.7514 C   0  0  0  0  0  0  0  0  0  0  0  0
   14.4126   -2.7430   47.0678 C   0  0  0  0  0  0  0  0  0  0  0  0
   13.4817   -1.7494   46.5455 C   0  0  0  0  0  0  0  0  0  0  0  0
   15.7358   -2.5357   47.0594 C   0  0  0  0  0  0  0  0  0  0  0  0
   14.1460   -0.8459   45.7964 C   0  0  0  0  0  0  0  0  0  0  0  0
   16.5904   -3.5170   47.6347 O   0  0  0  0  0  0  0  0  0  0  0  0
   13.2490    0.2931   45.1774 O   0  0  0  0  0  0  0  0  0  0  0  0
   15.4827   -0.4630   45.7844 C   0  0  0  0  0  0  0  0  0  0  0  0
   15.9998    0.6150   45.1061 O   0  0  0  0  0  0  0  0  0  0  0  0
   16.4109   -1.4727   46.3950 C   0  0  0  0  0  0  0  0  0  0  0  0
  1  2  1  0
  2  3  2  0
  3  4  1  0
  1  5  2  0
  4  5  1  0
  3  6  1  0
  4  7  2  0
  6  8  1  0
  8  9  1  0
  7 10  1  0
  9 11  1  0
  5 12  1  0
  7 13  1  0
  8 13  2  0
 10 14  1  0
 12 15  1  0
 12 16  2  0
 14 17  1  0
 15 18  1  0
 13 19  1  0
 16 20  1  0
 18 20  2  0
 11 21  1  0
 19 21  2  0
 21 22  1  0
 11 23  2  0
 14 24  2  0
 24 25  1  0
 17 26  1  0
 25 26  2  0
 17 27  1  0
 15 28  1  6
 27 28  1  0
 19 29  1  0
 24 29  1  0
 22 30  1  0
 30 31  2  0
 22 32  2  0
 29 32  1  1
 30 33  1  0
 27 34  1  1
 33 35  1  0
 35 36  1  0
 36 37  1  6
 35 38  2  0
 36 39  1  0
 37 40  1  0
 39 41  2  0
 38 42  1  0
 41 42  1  0
 41 43  1  0
 42 44  2  0
 43 45  1  0
 44 46  1  0
 44 47  1  0
 47 48  1  0
 43 49  2  0
 47 49  2  0
M  END
$$$$
O14757_Pocket2Mol_idx-in-all-generaetd-247
     RDKit          3D

 40 47  0  0  0  0  0  0  0  0999 V2000
    1.5482   -0.3111   41.9233 C   0  0  0  0  0  0  0  0  0  0  0  0
    2.7284    0.2018   42.1525 N   0  0  0  0  0  0  0  0  0  0  0  0
    3.7893   -0.3016   42.7005 C   0  0  0  0  0  0  0  0  0  0  0  0
    3.3781   -1.7350   43.0000 C   0  0  0  0  0  0  0  0  0  0  0  0
    2.0339   -1.9619   42.6217 C   0  0  0  0  0  0  0  0  0  0  0  0
    4.1166   -2.4997   43.8458 C   0  0  0  0  0  0  0  0  0  0  0  0
    1.1731   -3.0051   42.5773 C   0  0  0  0  0  0  0  0  0  0  0  0
    0.4701   -3.2344   41.4901 C   0  0  0  0  0  0  0  0  0  0  0  0
    5.3799   -1.7814   44.2691 C   0  0  0  0  0  0  0  0  0  0  0  0
    5.0159   -0.0180   43.1201 N   0  0  0  0  0  0  0  0  0  0  0  0
    5.7693   -0.6937   43.8418 C   0  0  0  0  0  0  0  0  0  0  0  0
    0.8078   -3.6166   43.6782 C   0  0  0  0  0  0  0  0  0  0  0  0
    0.0663   -4.7011   43.7415 N   0  0  0  0  0  0  0  0  0  0  0  0
    6.2223   -2.6843   45.1565 C   0  0  0  0  0  0  0  0  0  0  0  0
    6.9599   -0.2351   44.2608 N   0  0  0  0  0  0  0  0  0  0  0  0
    5.9065   -3.9037   45.7499 N   0  0  0  0  0  0  0  0  0  0  0  0
   -0.5459   -5.1185   42.5870 C   0  0  0  0  0  0  0  0  0  0  0  0
    5.7480   -4.0340   46.9810 C   0  0  0  0  0  0  0  0  0  0  0  0
    7.4448   -1.8511   45.4198 C   0  0  0  0  0  0  0  0  0  0  0  0
    7.7572   -0.7827   45.0128 C   0  0  0  0  0  0  0  0  0  0  0  0
    8.4076   -2.7217   46.4541 C   0  0  0  0  0  0  0  0  0  0  0  0
    9.3167   -2.0988   47.1049 N   0  0  0  0  0  0  0  0  0  0  0  0
   -0.4719   -4.3893   41.5406 C   0  0  0  0  0  0  0  0  0  0  0  0
    8.3667   -4.0284   46.5743 N   0  0  0  0  0  0  0  0  0  0  0  0
    9.5309   -4.3147   47.3094 C   0  0  0  0  0  0  0  0  0  0  0  0
    5.3113   -3.3789   47.8005 O   0  0  0  0  0  0  0  0  0  0  0  0
    9.9022   -5.6301   47.7684 C   0  0  0  0  0  0  0  0  0  0  0  0
    5.4470   -5.5868   47.2096 C   0  0  0  0  0  0  0  0  0  0  0  0
   11.2254   -5.8679   48.0402 C   0  0  0  0  0  0  0  0  0  0  0  0
    8.9736   -6.6532   47.8548 C   0  0  0  0  0  0  0  0  0  0  0  0
   10.0616   -3.0670   47.6360 C   0  0  0  0  0  0  0  0  0  0  0  0
    7.5566   -6.3564   47.5477 N   0  0  0  0  0  0  0  0  0  0  0  0
    6.4157   -6.1721   48.0913 C   0  0  0  0  0  0  0  0  0  0  0  0
   12.3275   -4.8510   47.9324 C   0  0  2  0  0  0  0  0  0  0  0  0
    9.4585   -7.9662   48.0726 C   0  0  0  0  0  0  0  0  0  0  0  0
   11.5288   -2.7910   48.1740 C   0  0  0  0  0  0  0  0  0  0  0  0
   13.6010   -5.5179   48.0202 O   0  0  0  0  0  0  0  0  0  0  0  0
   11.6306   -7.1387   48.1870 C   0  0  0  0  0  0  0  0  0  0  0  0
   12.2848   -3.4444   48.4497 C   0  0  0  0  0  0  0  0  0  0  0  0
   10.7799   -8.0886   48.2910 C   0  0  0  0  0  0  0  0  0  0  0  0
  1  2  1  0
  2  3  2  0
  3  4  1  0
  1  5  2  0
  4  5  1  0
  4  6  2  0
  5  7  1  0
  7  8  2  0
  6  9  1  0
  3 10  1  0
  9 11  2  0
 10 11  1  0
  7 12  1  0
 12 13  2  0
  9 14  1  0
 11 15  1  0
 14 16  1  0
 13 17  1  0
 16 18  1  0
 14 19  2  0
 15 20  2  0
 19 20  1  0
 19 21  1  0
 21 22  2  0
  8 23  1  0
 17 23  2  0
 21 24  1  0
 24 25  1  0
 18 26  2  0
 25 27  1  0
 18 28  1  0
 27 29  2  0
 27 30  1  0
 22 31  1  0
 25 31  2  0
 30 32  1  0
 28 33  1  0
 32 33  1  0
 29 34  1  0
 30 35  2  0
 31 36  1  0
 34 37  1  1
 29 38  1  0
 34 39  1  0
 36 39  2  0
 35 40  1  0
 38 40  2  0
M  END
$$$$
O14757_Pocket2Mol_idx-in-all-generaetd-248
     RDKit          3D

 19 22  0  0  0  0  0  0  0  0999 V2000
    5.5575   -0.4055   43.2321 N   0  0  0  0  0  0  0  0  0  0  0  0
    5.4916   -1.4617   44.0350 C   0  0  0  0  0  0  0  0  0  0  0  0
    4.3553   -0.1547   42.7099 N   0  0  0  0  0  0  0  0  0  0  0  0
    6.4774   -2.0184   44.9552 C   0  0  0  0  0  0  0  0  0  0  0  0
    6.3128   -3.0706   45.7239 C   0  0  0  0  0  0  0  0  0  0  0  0
    4.1470   -2.0953   43.9714 C   0  0  0  0  0  0  0  0  0  0  0  0
    3.5174   -1.1671   43.0817 C   0  0  0  0  0  0  0  0  0  0  0  0
    2.0908   -1.2389   42.6225 C   0  0  0  0  0  0  0  0  0  0  0  0
    1.4265   -2.4352   42.6947 C   0  0  0  0  0  0  0  0  0  0  0  0
    0.3212   -2.5848   41.8775 C   0  0  0  0  0  0  0  0  0  0  0  0
    1.3579   -0.0768   42.0708 C   0  0  0  0  0  0  0  0  0  0  0  0
    7.6237   -1.1527   45.2207 C   0  0  0  0  0  0  0  0  0  0  0  0
    7.6293   -3.1828   46.5019 C   0  0  2  0  0  0  0  0  0  0  0  0
    8.0037   -4.2341   47.3897 C   0  0  0  0  0  0  0  0  0  0  0  0
    0.0235   -0.6293   41.4640 S   0  0  0  0  0  0  0  0  0  0  0  0
    9.3802   -4.3529   47.5811 C   0  0  0  0  0  0  0  0  0  0  0  0
    8.5012   -1.8158   46.2053 C   0  0  1  0  0  0  0  0  0  0  0  0
   10.2026   -3.1244   47.4276 C   0  0  0  0  0  0  0  0  0  0  0  0
    9.7679   -2.0357   46.7066 C   0  0  0  0  0  0  0  0  0  0  0  0
  1  2  2  0
  1  3  1  0
  2  4  1  0
  4  5  2  0
  2  6  1  0
  3  7  2  0
  6  7  1  0
  7  8  1  0
  8  9  1  0
  9 10  2  0
  8 11  2  0
  4 12  1  0
 13  5  1  1
 13 14  1  0
 10 15  1  0
 11 15  1  0
 14 16  2  0
 17 12  1  6
 13 17  1  0
 16 18  1  0
 17 19  1  0
 18 19  2  0
M  END
$$$$
O14757_Pocket2Mol_idx-in-all-generaetd-249
     RDKit          3D

 25 29  0  0  0  0  0  0  0  0999 V2000
    5.3420    0.2589   42.8836 N   0  0  0  0  0  0  0  0  0  0  0  0
    5.6740   -0.8311   43.5645 C   0  0  0  0  0  0  0  0  0  0  0  0
    4.8288   -1.8236   43.8416 C   0  0  0  0  0  0  0  0  0  0  0  0
    3.6296   -1.5812   43.1756 C   0  0  0  0  0  0  0  0  0  0  0  0
    5.0882   -3.0359   44.6381 C   0  0  0  0  0  0  0  0  0  0  0  0
    6.1485   -2.9700   45.5258 C   0  0  0  0  0  0  0  0  0  0  0  0
    4.2991   -4.0949   44.5899 C   0  0  0  0  0  0  0  0  0  0  0  0
    2.3915   -2.2145   43.0037 C   0  0  0  0  0  0  0  0  0  0  0  0
    3.1185   -4.3300   43.8771 C   0  0  0  0  0  0  0  0  0  0  0  0
    2.6120   -5.5925   44.1861 O   0  0  0  0  0  0  0  0  0  0  0  0
    3.9103   -0.2359   42.6290 C   0  0  0  0  0  0  0  0  0  0  0  0
    2.2344   -3.4540   43.3650 N   0  0  0  0  0  0  0  0  0  0  0  0
    0.8119   -3.8495   43.1300 C   0  0  0  0  0  0  0  0  0  0  0  0
    1.5466   -1.4135   42.2460 C   0  0  0  0  0  0  0  0  0  0  0  0
    0.1571   -1.9641   41.9807 C   0  0  0  0  0  0  0  0  0  0  0  0
    2.1405    0.0322   41.9578 C   0  0  0  0  0  0  0  0  0  0  0  0
    7.1626   -1.9813   45.6899 C   0  0  0  0  0  0  0  0  0  0  0  0
   -0.5832   -1.3301   41.2297 O   0  0  0  0  0  0  0  0  0  0  0  0
    3.1019    0.4438   42.0540 N   0  0  0  0  0  0  0  0  0  0  0  0
    0.0477   -3.0540   42.4504 N   0  0  0  0  0  0  0  0  0  0  0  0
    6.8819   -0.9004   44.6492 C   0  0  0  0  0  0  0  0  0  0  0  0
    8.2297   -1.9892   46.4842 C   0  0  0  0  0  0  0  0  0  0  0  0
    8.5600   -3.0436   47.1661 O   0  0  0  0  0  0  0  0  0  0  0  0
    8.9512   -0.9135   46.5952 O   0  0  0  0  0  0  0  0  0  0  0  0
   10.3297   -1.1122   46.3387 C   0  0  0  0  0  0  0  0  0  0  0  0
  1  2  2  0
  2  3  1  0
  3  4  2  0
  3  5  1  0
  5  6  1  0
  5  7  2  0
  4  8  1  0
  7  9  1  0
  9 10  2  0
  1 11  1  0
  4 11  1  0
  8 12  1  0
  9 12  1  0
 12 13  1  0
  8 14  2  0
 14 15  1  0
 14 16  1  0
  6 17  2  0
 15 18  2  0
 11 19  2  0
 16 19  1  0
 13 20  2  0
 15 20  1  0
  2 21  1  0
 17 21  1  0
 17 22  1  0
 22 23  2  0
 22 24  1  0
 24 25  1  0
M  END
$$$$
O14757_Pocket2Mol_idx-in-all-generaetd-250
     RDKit          3D

 35 41  0  0  0  0  0  0  0  0999 V2000
    4.8037   -0.1366   42.7100 N   0  0  0  0  0  0  0  0  0  0  0  0
    3.6577   -0.7759   42.7186 C   0  0  0  0  0  0  0  0  0  0  0  0
    3.6660   -1.8665   43.4760 C   0  0  0  0  0  0  0  0  0  0  0  0
    2.7271   -2.8718   43.6599 C   0  0  0  0  0  0  0  0  0  0  0  0
    2.4846   -0.2994   42.1254 N   0  0  0  0  0  0  0  0  0  0  0  0
    5.0524   -1.7697   43.9367 C   0  0  0  0  0  0  0  0  0  0  0  0
    1.4917   -2.9000   43.0914 C   0  0  0  0  0  0  0  0  0  0  0  0
    3.1274   -3.9503   44.5163 C   0  0  0  0  0  0  0  0  0  0  0  0
    1.0744   -1.9066   42.1491 C   0  0  2  0  0  0  0  0  0  0  0  0
    5.6624   -0.7003   43.4895 C   0  0  0  0  0  0  0  0  0  0  0  0
    5.5753   -2.5784   45.0324 C   0  0  0  0  0  0  0  0  0  0  0  0
    0.4030   -3.6297   43.4883 N   0  0  0  0  0  0  0  0  0  0  0  0
    1.5052   -0.8077   41.7519 C   0  0  0  0  0  0  0  0  0  0  0  0
   -0.5645   -3.4039   42.5585 N   0  0  0  0  0  0  0  0  0  0  0  0
    2.5059   -5.1012   44.7935 C   0  0  0  0  0  0  0  0  0  0  0  0
    4.4581   -3.8218   45.2947 C   0  0  0  0  0  0  0  0  0  0  0  0
   -0.3089   -2.3979   41.8128 C   0  0  0  0  0  0  0  0  0  0  0  0
    6.6435   -2.6577   45.6991 C   0  0  0  0  0  0  0  0  0  0  0  0
    7.0869   -3.7008   46.4717 C   0  0  0  0  0  0  0  0  0  0  0  0
    7.5912   -1.5296   45.5455 C   0  0  0  0  0  0  0  0  0  0  0  0
    8.7765   -1.4352   46.2248 C   0  0  0  0  0  0  0  0  0  0  0  0
    6.3069   -4.7944   46.6836 O   0  0  0  0  0  0  0  0  0  0  0  0
    4.8984   -4.5252   46.1302 C   0  0  0  0  0  0  0  0  0  0  0  0
    4.2122   -5.9932   46.2216 C   0  0  0  0  0  0  0  0  0  0  0  0
    3.0046   -6.0549   45.6421 C   0  0  0  0  0  0  0  0  0  0  0  0
    8.2374   -3.8078   47.1146 C   0  0  0  0  0  0  0  0  0  0  0  0
    8.7057   -4.8761   47.9258 O   0  0  0  0  0  0  0  0  0  0  0  0
    9.1794   -2.6591   47.0517 C   0  0  0  0  0  0  0  0  0  0  0  0
   10.5338   -2.6412   47.7644 C   0  0  2  0  0  0  0  0  0  0  0  0
   10.6777   -1.8063   48.6438 O   0  0  0  0  0  0  0  0  0  0  0  0
   11.6098   -2.4469   46.8144 C   0  0  0  0  0  0  0  0  0  0  0  0
    9.4171   -5.8499   47.4270 C   0  0  0  0  0  0  0  0  0  0  0  0
   12.0887   -3.4036   46.1159 O   0  0  0  0  0  0  0  0  0  0  0  0
   11.8998   -1.2688   46.3431 O   0  0  0  0  0  0  0  0  0  0  0  0
   12.7471   -1.1093   45.1263 C   0  0  0  0  0  0  0  0  0  0  0  0
  1  2  2  0
  2  3  1  0
  3  4  2  0
  2  5  1  0
  3  6  1  0
  4  7  1  0
  4  8  1  0
  7  9  1  0
  1 10  1  0
  6 10  1  0
  6 11  2  0
  7 12  2  0
  5 13  2  0
  9 13  1  1
 12 14  1  0
  8 15  2  0
  8 16  1  0
 11 16  1  0
  9 17  1  0
 14 17  2  0
 11 18  1  0
 18 19  2  0
 18 20  1  0
 20 21  2  0
 19 22  1  0
 16 23  2  0
 22 23  1  0
 23 24  1  0
 15 25  1  0
 24 25  2  0
 19 26  1  0
 26 27  1  0
 21 28  1  0
 26 28  2  0
 28 29  1  0
 29 30  1  1
 29 31  1  0
 27 32  1  0
 31 33  2  0
 31 34  1  0
 34 35  1  0
M  END
$$$$
O14757_Pocket2Mol_idx-in-all-generaetd-251
     RDKit          3D

 49 58  0  0  0  0  0  0  0  0999 V2000
    1.5482   -0.3111   41.9233 C   0  0  0  0  0  0  0  0  0  0  0  0
    2.7284    0.2018   42.1525 N   0  0  0  0  0  0  0  0  0  0  0  0
    3.7893   -0.3016   42.7005 C   0  0  0  0  0  0  0  0  0  0  0  0
    3.3781   -1.7350   43.0000 C   0  0  0  0  0  0  0  0  0  0  0  0
    2.0339   -1.9619   42.6217 C   0  0  0  0  0  0  0  0  0  0  0  0
    5.0090    0.1219   42.9340 N   0  0  0  0  0  0  0  0  0  0  0  0
    4.2895   -2.4979   43.6707 C   0  0  0  0  0  0  0  0  0  0  0  0
    5.8391   -0.6675   43.6343 C   0  0  0  0  0  0  0  0  0  0  0  0
    6.9849   -0.2377   44.0028 N   0  0  0  0  0  0  0  0  0  0  0  0
    4.0426   -3.8794   44.0832 C   0  0  0  0  0  0  0  0  0  0  0  0
    7.6796   -0.8734   44.9326 C   0  0  0  0  0  0  0  0  0  0  0  0
    1.1064   -2.9576   42.4211 C   0  0  0  0  0  0  0  0  0  0  0  0
    5.5298   -1.9496   44.0315 C   0  0  0  0  0  0  0  0  0  0  0  0
    3.8954   -4.1817   45.4718 C   0  0  0  0  0  0  0  0  0  0  0  0
    0.6765   -3.5480   43.4006 C   0  0  1  0  0  0  0  0  0  0  0  0
    0.5804   -3.2191   41.1635 C   0  0  0  0  0  0  0  0  0  0  0  0
    2.8083   -4.8227   45.9203 N   0  0  0  0  0  0  0  0  0  0  0  0
   -0.1574   -4.5754   42.9329 N   0  0  0  0  0  0  0  0  0  0  0  0
    6.5271   -2.5531   44.9677 C   0  0  0  0  0  0  0  0  0  0  0  0
   -0.2272   -4.3703   41.5137 C   0  0  0  0  0  0  0  0  0  0  0  0
    7.5095   -2.0029   45.3993 C   0  0  0  0  0  0  0  0  0  0  0  0
    8.2550   -2.6982   46.3988 C   0  0  1  0  0  0  0  0  0  0  0  0
    8.8975   -0.3029   45.3267 O   0  0  0  0  0  0  0  0  0  0  0  0
    4.8299   -4.4637   46.4212 C   0  0  0  0  0  0  0  0  0  0  0  0
    4.2707   -4.9248   47.6295 N   0  0  0  0  0  0  0  0  0  0  0  0
    3.2045   -5.2092   47.1521 C   0  0  0  0  0  0  0  0  0  0  0  0
    1.4482   -4.6186   45.4134 C   0  0  0  0  0  0  0  0  0  0  0  0
    1.3256   -3.7660   44.6394 N   0  0  0  0  0  0  0  0  0  0  0  0
    9.2816   -2.1418   47.1273 N   0  0  0  0  0  0  0  0  0  0  0  0
   10.0629   -3.1324   47.8508 C   0  0  0  0  0  0  0  0  0  0  0  0
    6.3491   -3.8960   46.0844 C   0  0  2  0  0  0  0  0  0  0  0  0
    7.4349   -3.5889   46.9054 C   0  0  0  0  0  0  0  0  0  0  0  0
   10.3145   -2.7271   49.0818 O   0  0  0  0  0  0  0  0  0  0  0  0
    0.6213   -5.4445   45.7455 O   0  0  0  0  0  0  0  0  0  0  0  0
   11.0262   -3.8136   47.1050 C   0  0  0  0  0  0  0  0  0  0  0  0
   12.1704   -3.3854   46.7547 C   0  0  0  0  0  0  0  0  0  0  0  0
   13.1080   -4.1111   46.0053 C   0  0  0  0  0  0  0  0  0  0  0  0
   14.3489   -3.5966   45.7888 C   0  0  0  0  0  0  0  0  0  0  0  0
   12.7430   -5.2725   45.5056 C   0  0  0  0  0  0  0  0  0  0  0  0
   10.8315   -5.3520   46.8908 C   0  0  0  0  0  0  0  0  0  0  0  0
   11.5834   -5.8795   45.9965 C   0  0  0  0  0  0  0  0  0  0  0  0
   14.5673   -2.2844   45.3294 C   0  0  0  0  0  0  0  0  0  0  0  0
   15.6990   -1.9377   44.9307 C   0  0  0  0  0  0  0  0  0  0  0  0
   15.9777   -0.5351   44.4220 C   0  0  0  0  0  0  0  0  0  0  0  0
   15.4694   -4.3459   45.9452 C   0  0  0  0  0  0  0  0  0  0  0  0
   16.9310   -2.5950   45.1224 C   0  0  0  0  0  0  0  0  0  0  0  0
   14.9288   -0.1373   43.6242 C   0  0  0  0  0  0  0  0  0  0  0  0
   16.7901   -3.8944   45.6553 C   0  0  0  0  0  0  0  0  0  0  0  0
   14.2243    0.8824   44.3175 O   0  0  0  0  0  0  0  0  0  0  0  0
  1  2  1  0
  2  3  2  0
  3  4  1  0
  1  5  2  0
  4  5  1  0
  3  6  1  0
  4  7  2  0
  6  8  1  0
  8  9  1  0
  7 10  1  0
  9 11  1  0
  5 12  1  0
  7 13  1  0
  8 13  2  0
 10 14  1  0
 12 15  1  0
 12 16  2  0
 14 17  1  0
 15 18  1  0
 13 19  1  0
 16 20  1  0
 18 20  2  0
 11 21  1  0
 19 21  2  0
 21 22  1  0
 11 23  2  0
 14 24  2  0
 24 25  1  0
 17 26  1  0
 25 26  2  0
 17 27  1  0
 15 28  1  6
 27 28  1  0
 22 29  1  1
 29 30  1  0
 19 31  1  0
 24 31  1  0
 22 32  1  0
 31 32  1  1
 30 33  2  0
 27 34  2  0
 30 35  1  0
 35 36  2  0
 36 37  1  0
 37 38  1  0
 37 39  2  0
 35 40  1  0
 39 41  1  0
 40 41  2  0
 38 42  2  0
 42 43  1  0
 43 44  1  0
 38 45  1  0
 43 46  2  0
 44 47  1  0
 45 48  2  0
 46 48  1  0
 47 49  1  0
M  END
$$$$
O14757_Pocket2Mol_idx-in-all-generaetd-252
     RDKit          3D

 28 34  0  0  0  0  0  0  0  0999 V2000
    4.8173    0.2791   42.6993 N   0  0  0  0  0  0  0  0  0  0  0  0
    5.3297   -0.7477   43.3688 C   0  0  0  0  0  0  0  0  0  0  0  0
    3.4732   -0.2235   42.4530 C   0  0  0  0  0  0  0  0  0  0  0  0
    4.4984   -1.7876   43.6214 C   0  0  0  0  0  0  0  0  0  0  0  0
    3.3438   -1.5190   42.9379 C   0  0  0  0  0  0  0  0  0  0  0  0
    2.1381   -2.3401   42.8254 C   0  0  0  0  0  0  0  0  0  0  0  0
    2.3894    0.3572   41.9843 N   0  0  0  0  0  0  0  0  0  0  0  0
    4.9180   -3.0430   44.3829 C   0  0  0  0  0  0  0  0  0  0  0  0
    5.9444   -2.9314   45.3934 C   0  0  0  0  0  0  0  0  0  0  0  0
    4.2808   -4.1329   44.3252 C   0  0  0  0  0  0  0  0  0  0  0  0
    3.1588   -4.4221   43.4852 O   0  0  0  0  0  0  0  0  0  0  0  0
    4.5704   -5.2518   45.1995 C   0  0  0  0  0  0  0  0  0  0  0  0
    1.9853   -3.6792   43.3495 C   0  0  0  0  0  0  0  0  0  0  0  0
    0.9181   -4.3294   43.4638 C   0  0  0  0  0  0  0  0  0  0  0  0
    6.7403   -1.6226   45.5272 C   0  0  2  0  0  0  0  0  0  0  0  0
    0.9752   -1.7845   42.3366 C   0  0  0  0  0  0  0  0  0  0  0  0
    6.2516   -3.7287   46.2722 C   0  0  0  0  0  0  0  0  0  0  0  0
   -0.2404   -2.4179   42.2529 C   0  0  0  0  0  0  0  0  0  0  0  0
   -1.3835   -1.8904   41.6559 N   0  0  0  0  0  0  0  0  0  0  0  0
    3.8706   -6.4216   45.1394 O   0  0  0  0  0  0  0  0  0  0  0  0
    0.9456   -0.2789   41.7649 C   0  0  0  0  0  0  0  0  0  0  0  0
   -0.2678   -3.6969   42.7575 C   0  0  0  0  0  0  0  0  0  0  0  0
    6.3913   -0.7000   44.3807 N   0  0  0  0  0  0  0  0  0  0  0  0
    7.9391   -1.5867   46.0069 C   0  0  0  0  0  0  0  0  0  0  0  0
    7.1969   -3.5621   47.3287 C   0  0  0  0  0  0  0  0  0  0  0  0
    5.4958   -5.0534   46.2483 C   0  0  0  0  0  0  0  0  0  0  0  0
    8.7816   -0.5869   45.8733 O   0  0  0  0  0  0  0  0  0  0  0  0
    8.1347   -2.4986   47.1039 C   0  0  0  0  0  0  0  0  0  0  0  0
  1  2  2  0
  1  3  1  0
  2  4  1  0
  3  5  1  0
  4  5  2  0
  5  6  1  0
  3  7  2  0
  4  8  1  0
  8  9  1  0
  8 10  2  0
 10 11  1  0
 10 12  1  0
  6 13  1  0
 11 13  1  0
 13 14  2  0
  9 15  1  0
  6 16  2  0
  9 17  2  0
 16 18  1  0
 18 19  1  0
 12 20  1  0
  7 21  1  0
 16 21  1  0
 14 22  1  0
 18 22  2  0
  2 23  1  0
 15 23  1  6
 15 24  1  0
 17 25  1  0
 12 26  2  0
 17 26  1  0
 24 27  2  0
 24 28  1  0
 25 28  2  0
M  END
$$$$
O14757_Pocket2Mol_idx-in-all-generaetd-253
     RDKit          3D

 34 39  0  0  0  0  0  0  0  0999 V2000
    1.5482   -0.3111   41.9233 C   0  0  0  0  0  0  0  0  0  0  0  0
    2.7284    0.2018   42.1525 N   0  0  0  0  0  0  0  0  0  0  0  0
    3.7893   -0.3016   42.7005 C   0  0  0  0  0  0  0  0  0  0  0  0
    3.3781   -1.7350   43.0000 C   0  0  0  0  0  0  0  0  0  0  0  0
    2.0339   -1.9619   42.6217 C   0  0  0  0  0  0  0  0  0  0  0  0
    5.0090    0.1219   42.9340 N   0  0  0  0  0  0  0  0  0  0  0  0
    4.2895   -2.4979   43.6707 C   0  0  0  0  0  0  0  0  0  0  0  0
    5.8391   -0.6675   43.6343 C   0  0  0  0  0  0  0  0  0  0  0  0
    6.9849   -0.2377   44.0028 N   0  0  0  0  0  0  0  0  0  0  0  0
    4.0426   -3.8794   44.0832 C   0  0  0  0  0  0  0  0  0  0  0  0
    7.6796   -0.8734   44.9326 C   0  0  0  0  0  0  0  0  0  0  0  0
    1.1064   -2.9576   42.4211 C   0  0  0  0  0  0  0  0  0  0  0  0
    5.5298   -1.9496   44.0315 C   0  0  0  0  0  0  0  0  0  0  0  0
    3.8954   -4.1817   45.4718 C   0  0  0  0  0  0  0  0  0  0  0  0
    0.6765   -3.5480   43.4006 C   0  0  0  0  0  0  0  0  0  0  0  0
    0.5804   -3.2191   41.1635 C   0  0  0  0  0  0  0  0  0  0  0  0
    2.8083   -4.8227   45.9203 N   0  0  0  0  0  0  0  0  0  0  0  0
   -0.1574   -4.5754   42.9329 N   0  0  0  0  0  0  0  0  0  0  0  0
    6.5271   -2.5531   44.9677 C   0  0  0  0  0  0  0  0  0  0  0  0
   -0.2272   -4.3703   41.5137 C   0  0  0  0  0  0  0  0  0  0  0  0
    7.5095   -2.0029   45.3993 C   0  0  0  0  0  0  0  0  0  0  0  0
    8.2550   -2.6982   46.3988 C   0  0  0  0  0  0  0  0  0  0  0  0
    8.8975   -0.3029   45.3267 O   0  0  0  0  0  0  0  0  0  0  0  0
    8.2329   -4.0299   46.5900 C   0  0  0  0  0  0  0  0  0  0  0  0
    4.4216   -3.3558   46.3643 O   0  0  0  0  0  0  0  0  0  0  0  0
    9.1940   -1.9730   47.2364 C   0  0  0  0  0  0  0  0  0  0  0  0
    1.9550   -4.4083   46.8474 C   0  0  0  0  0  0  0  0  0  0  0  0
    8.9294   -4.7161   47.5720 C   0  0  0  0  0  0  0  0  0  0  0  0
    0.4763   -4.4303   46.2124 C   0  0  0  0  0  0  0  0  0  0  0  0
    8.7672   -6.1434   47.6719 O   0  0  0  0  0  0  0  0  0  0  0  0
    9.8670   -2.5869   48.2635 C   0  0  0  0  0  0  0  0  0  0  0  0
    9.4856   -6.9413   48.0952 C   0  0  0  0  0  0  0  0  0  0  0  0
    0.7826   -3.5251   44.8533 C   0  0  0  0  0  0  0  0  0  0  0  0
    9.7185   -3.9932   48.4488 C   0  0  0  0  0  0  0  0  0  0  0  0
  1  2  1  0
  2  3  2  0
  3  4  1  0
  1  5  2  0
  4  5  1  0
  3  6  1  0
  4  7  2  0
  6  8  1  0
  8  9  1  0
  7 10  1  0
  9 11  1  0
  5 12  1  0
  7 13  1  0
  8 13  2  0
 10 14  1  0
 12 15  1  0
 12 16  2  0
 14 17  1  0
 15 18  1  0
 13 19  1  0
 16 20  1  0
 18 20  2  0
 11 21  1  0
 19 21  2  0
 21 22  1  0
 11 23  2  0
 22 24  2  0
 14 25  2  0
 22 26  1  0
 17 27  1  0
 24 28  1  0
 27 29  1  0
 28 30  1  0
 26 31  2  0
 30 32  1  0
 15 33  2  3
 29 33  1  0
 28 34  2  0
 31 34  1  0
M  END
$$$$
O14757_Pocket2Mol_idx-in-all-generaetd-254
     RDKit          3D

 45 53  0  0  0  0  0  0  0  0999 V2000
    1.5482   -0.3111   41.9233 C   0  0  0  0  0  0  0  0  0  0  0  0
    2.7284    0.2018   42.1525 N   0  0  0  0  0  0  0  0  0  0  0  0
    3.7893   -0.3016   42.7005 C   0  0  0  0  0  0  0  0  0  0  0  0
    3.3781   -1.7350   43.0000 C   0  0  0  0  0  0  0  0  0  0  0  0
    2.0339   -1.9619   42.6217 C   0  0  0  0  0  0  0  0  0  0  0  0
    5.0090    0.1219   42.9340 N   0  0  0  0  0  0  0  0  0  0  0  0
    4.2895   -2.4979   43.6707 C   0  0  0  0  0  0  0  0  0  0  0  0
    5.8391   -0.6675   43.6343 C   0  0  0  0  0  0  0  0  0  0  0  0
    6.9849   -0.2377   44.0028 N   0  0  0  0  0  0  0  0  0  0  0  0
    4.0426   -3.8794   44.0832 C   0  0  0  0  0  0  0  0  0  0  0  0
    7.6796   -0.8734   44.9326 C   0  0  0  0  0  0  0  0  0  0  0  0
    1.1064   -2.9576   42.4211 C   0  0  0  0  0  0  0  0  0  0  0  0
    5.5298   -1.9496   44.0315 C   0  0  0  0  0  0  0  0  0  0  0  0
    3.8954   -4.1817   45.4718 C   0  0  0  0  0  0  0  0  0  0  0  0
    0.6765   -3.5480   43.4006 C   0  0  1  0  0  0  0  0  0  0  0  0
    0.5804   -3.2191   41.1635 C   0  0  0  0  0  0  0  0  0  0  0  0
    2.8083   -4.8227   45.9203 N   0  0  0  0  0  0  0  0  0  0  0  0
   -0.1574   -4.5754   42.9329 N   0  0  0  0  0  0  0  0  0  0  0  0
    6.5271   -2.5531   44.9677 C   0  0  0  0  0  0  0  0  0  0  0  0
   -0.2272   -4.3703   41.5137 C   0  0  0  0  0  0  0  0  0  0  0  0
    7.5095   -2.0029   45.3993 C   0  0  0  0  0  0  0  0  0  0  0  0
    8.2550   -2.6982   46.3988 C   0  0  1  0  0  0  0  0  0  0  0  0
    8.8975   -0.3029   45.3267 O   0  0  0  0  0  0  0  0  0  0  0  0
    4.8299   -4.4637   46.4212 C   0  0  0  0  0  0  0  0  0  0  0  0
    4.2707   -4.9248   47.6295 N   0  0  0  0  0  0  0  0  0  0  0  0
    3.2045   -5.2092   47.1521 C   0  0  0  0  0  0  0  0  0  0  0  0
    1.4482   -4.6186   45.4134 C   0  0  0  0  0  0  0  0  0  0  0  0
    1.3256   -3.7660   44.6394 N   0  0  0  0  0  0  0  0  0  0  0  0
    9.2816   -2.1418   47.1273 N   0  0  0  0  0  0  0  0  0  0  0  0
   10.0629   -3.1324   47.8508 C   0  0  0  0  0  0  0  0  0  0  0  0
    6.3491   -3.8960   46.0844 C   0  0  2  0  0  0  0  0  0  0  0  0
    7.4349   -3.5889   46.9054 C   0  0  0  0  0  0  0  0  0  0  0  0
   10.3145   -2.7271   49.0818 O   0  0  0  0  0  0  0  0  0  0  0  0
    0.6213   -5.4445   45.7455 O   0  0  0  0  0  0  0  0  0  0  0  0
   11.0262   -3.8136   47.1050 C   0  0  0  0  0  0  0  0  0  0  0  0
   12.1704   -3.3854   46.7547 C   0  0  0  0  0  0  0  0  0  0  0  0
   13.1080   -4.1111   46.0053 C   0  0  0  0  0  0  0  0  0  0  0  0
   14.3489   -3.5966   45.7888 C   0  0  0  0  0  0  0  0  0  0  0  0
   12.7430   -5.2725   45.5056 C   0  0  0  0  0  0  0  0  0  0  0  0
   14.6935   -2.2816   45.3353 C   0  0  0  0  0  0  0  0  0  0  0  0
   10.7905   -5.3371   46.8117 C   0  0  0  0  0  0  0  0  0  0  0  0
   15.8085   -1.9565   45.0154 O   0  0  0  0  0  0  0  0  0  0  0  0
   13.6262   -1.4997   45.2550 O   0  0  0  0  0  0  0  0  0  0  0  0
   13.6598   -5.9683   44.7490 O   0  0  0  0  0  0  0  0  0  0  0  0
   11.6328   -5.9592   45.9559 C   0  0  0  0  0  0  0  0  0  0  0  0
  1  2  1  0
  2  3  2  0
  3  4  1  0
  1  5  2  0
  4  5  1  0
  3  6  1  0
  4  7  2  0
  6  8  1  0
  8  9  1  0
  7 10  1  0
  9 11  1  0
  5 12  1  0
  7 13  1  0
  8 13  2  0
 10 14  1  0
 12 15  1  0
 12 16  2  0
 14 17  1  0
 15 18  1  0
 13 19  1  0
 16 20  1  0
 18 20  2  0
 11 21  1  0
 19 21  2  0
 21 22  1  0
 11 23  2  0
 14 24  2  0
 24 25  1  0
 17 26  1  0
 25 26  2  0
 17 27  1  0
 15 28  1  6
 27 28  1  0
 22 29  1  1
 29 30  1  0
 19 31  1  0
 24 31  1  0
 22 32  1  0
 31 32  1  1
 30 33  2  0
 27 34  2  0
 30 35  1  0
 35 36  2  0
 36 37  1  0
 37 38  1  0
 37 39  2  0
 38 40  1  0
 35 41  1  0
 40 42  2  0
 40 43  1  0
 39 44  1  0
 39 45  1  0
 41 45  2  0
M  END
$$$$
O14757_Pocket2Mol_idx-in-all-generaetd-255
     RDKit          3D

 35 41  0  0  0  0  0  0  0  0999 V2000
    4.8037   -0.1366   42.7100 N   0  0  0  0  0  0  0  0  0  0  0  0
    3.6577   -0.7759   42.7186 C   0  0  0  0  0  0  0  0  0  0  0  0
    3.6660   -1.8665   43.4760 C   0  0  0  0  0  0  0  0  0  0  0  0
    2.7271   -2.8718   43.6599 C   0  0  0  0  0  0  0  0  0  0  0  0
    2.4846   -0.2994   42.1254 N   0  0  0  0  0  0  0  0  0  0  0  0
    5.0524   -1.7697   43.9367 C   0  0  0  0  0  0  0  0  0  0  0  0
    1.4917   -2.9000   43.0914 C   0  0  0  0  0  0  0  0  0  0  0  0
    3.1274   -3.9503   44.5163 C   0  0  0  0  0  0  0  0  0  0  0  0
    1.0744   -1.9066   42.1491 C   0  0  2  0  0  0  0  0  0  0  0  0
    5.6624   -0.7003   43.4895 C   0  0  0  0  0  0  0  0  0  0  0  0
    5.5753   -2.5784   45.0324 C   0  0  0  0  0  0  0  0  0  0  0  0
    0.4030   -3.6297   43.4883 N   0  0  0  0  0  0  0  0  0  0  0  0
    1.5052   -0.8077   41.7519 C   0  0  0  0  0  0  0  0  0  0  0  0
   -0.5645   -3.4039   42.5585 N   0  0  0  0  0  0  0  0  0  0  0  0
    2.5059   -5.1012   44.7935 C   0  0  0  0  0  0  0  0  0  0  0  0
    4.4581   -3.8218   45.2947 C   0  0  0  0  0  0  0  0  0  0  0  0
   -0.3089   -2.3979   41.8128 C   0  0  0  0  0  0  0  0  0  0  0  0
    6.6435   -2.6577   45.6991 C   0  0  0  0  0  0  0  0  0  0  0  0
    7.0869   -3.7008   46.4717 C   0  0  0  0  0  0  0  0  0  0  0  0
    7.5912   -1.5296   45.5455 C   0  0  0  0  0  0  0  0  0  0  0  0
    8.7765   -1.4352   46.2248 C   0  0  0  0  0  0  0  0  0  0  0  0
    6.3069   -4.7944   46.6836 O   0  0  0  0  0  0  0  0  0  0  0  0
    4.8984   -4.5252   46.1302 C   0  0  0  0  0  0  0  0  0  0  0  0
    4.2122   -5.9932   46.2216 C   0  0  0  0  0  0  0  0  0  0  0  0
    8.3395   -3.6608   47.2172 C   0  0  0  0  0  0  0  0  0  0  0  0
    4.6690   -6.8778   47.1549 O   0  0  0  0  0  0  0  0  0  0  0  0
    9.1822   -2.5745   47.1243 C   0  0  0  0  0  0  0  0  0  0  0  0
   10.4419   -2.3733   47.8332 C   0  0  0  0  0  0  0  0  0  0  0  0
   10.5277   -1.5655   48.7043 O   0  0  0  0  0  0  0  0  0  0  0  0
    2.9373   -6.0805   45.7037 C   0  0  0  0  0  0  0  0  0  0  0  0
   11.4886   -2.8791   47.1590 O   0  0  0  0  0  0  0  0  0  0  0  0
   12.5752   -2.3359   47.1530 C   0  0  0  0  0  0  0  0  0  0  0  0
   13.6119   -3.1431   47.5861 C   0  0  0  0  0  0  0  0  0  0  0  0
   14.6644   -3.4220   46.7962 C   0  0  0  0  0  0  0  0  0  0  0  0
   15.8174   -4.3515   47.2105 C   0  0  0  0  0  0  0  0  0  0  0  0
  1  2  2  0
  2  3  1  0
  3  4  2  0
  2  5  1  0
  3  6  1  0
  4  7  1  0
  4  8  1  0
  7  9  1  0
  1 10  1  0
  6 10  1  0
  6 11  2  0
  7 12  2  0
  5 13  2  0
  9 13  1  1
 12 14  1  0
  8 15  2  0
  8 16  1  0
 11 16  1  0
  9 17  1  0
 14 17  2  0
 11 18  1  0
 18 19  2  0
 18 20  1  0
 20 21  2  0
 19 22  1  0
 16 23  2  0
 22 23  1  0
 23 24  1  0
 19 25  1  0
 24 26  1  0
 21 27  1  0
 25 27  2  0
 27 28  1  0
 28 29  2  0
 15 30  1  0
 24 30  2  0
 28 31  1  0
 31 32  1  0
 32 33  1  0
 33 34  2  3
 34 35  1  0
M  END
$$$$
O14757_Pocket2Mol_idx-in-all-generaetd-256
     RDKit          3D

 23 26  0  0  0  0  0  0  0  0999 V2000
    4.5156    0.0550   42.9895 N   0  0  0  0  0  0  0  0  0  0  0  0
    5.0618   -0.8645   43.5295 C   0  0  0  0  0  0  0  0  0  0  0  0
    4.4350   -2.0604   43.7783 C   0  0  0  0  0  0  0  0  0  0  0  0
    3.1949   -1.8657   43.0982 C   0  0  0  0  0  0  0  0  0  0  0  0
    4.9542   -3.1463   44.5335 C   0  0  0  0  0  0  0  0  0  0  0  0
    6.4558   -0.5585   44.1886 N   0  0  0  0  0  0  0  0  0  0  0  0
    4.2721   -4.3244   44.6685 C   0  0  0  0  0  0  0  0  0  0  0  0
    2.1703   -2.7509   42.8781 C   0  0  0  0  0  0  0  0  0  0  0  0
    5.9828   -2.9133   45.5213 C   0  0  0  0  0  0  0  0  0  0  0  0
    6.9086   -1.5074   45.1325 C   0  0  0  0  0  0  0  0  0  0  0  0
    3.2765   -0.4576   42.4761 C   0  0  0  0  0  0  0  0  0  0  0  0
    6.4419   -3.9195   46.2207 C   0  0  0  0  0  0  0  0  0  0  0  0
    5.7479   -5.0350   46.3913 C   0  0  0  0  0  0  0  0  0  0  0  0
    4.5713   -5.2600   45.5036 C   0  0  0  0  0  0  0  0  0  0  0  0
    7.9587   -1.3446   46.0046 C   0  0  0  0  0  0  0  0  0  0  0  0
    8.0130   -1.1133   47.1866 O   0  0  0  0  0  0  0  0  0  0  0  0
    2.3504    0.0664   41.9257 N   0  0  0  0  0  0  0  0  0  0  0  0
    9.1240   -1.0921   45.2760 O   0  0  0  0  0  0  0  0  0  0  0  0
    1.1057   -2.1789   42.0727 C   0  0  0  0  0  0  0  0  0  0  0  0
    1.1149   -0.7561   41.6324 C   0  0  0  0  0  0  0  0  0  0  0  0
   -0.1977   -3.0677   41.7547 C   0  0  0  0  0  0  0  0  0  0  0  0
   -0.4509   -3.3371   40.6075 O   0  0  0  0  0  0  0  0  0  0  0  0
   -0.6952   -3.5194   42.8143 O   0  0  0  0  0  0  0  0  0  0  0  0
  1  2  2  0
  2  3  1  0
  3  4  2  0
  3  5  1  0
  2  6  1  0
  5  7  2  0
  4  8  1  0
  5  9  1  0
  6 10  2  0
  9 10  1  0
  1 11  1  0
  4 11  1  0
  9 12  2  0
 12 13  1  0
  7 14  1  0
 13 14  2  0
 10 15  1  0
 15 16  2  0
 11 17  2  0
 15 18  1  0
  8 19  2  0
 17 20  1  0
 19 20  1  0
 19 21  1  0
 21 22  2  0
 21 23  1  0
M  END
$$$$
O14757_Pocket2Mol_idx-in-all-generaetd-257
     RDKit          3D

 31 35  0  0  0  0  0  0  0  0999 V2000
    5.5575   -0.4055   43.2321 N   0  0  0  0  0  0  0  0  0  0  0  0
    4.5233    0.0727   42.5988 N   0  0  0  0  0  0  0  0  0  0  0  0
    5.1726   -1.5114   43.9314 C   0  0  0  0  0  0  0  0  0  0  0  0
    5.9080   -2.2268   44.9217 C   0  0  0  0  0  0  0  0  0  0  0  0
    5.3635   -3.3861   45.5121 C   0  0  0  0  0  0  0  0  0  0  0  0
    7.1791   -1.7734   45.4544 C   0  0  0  0  0  0  0  0  0  0  0  0
    3.4069   -0.5377   42.5980 C   0  0  0  0  0  0  0  0  0  0  0  0
    2.1839   -0.4257   41.9942 C   0  0  0  0  0  0  0  0  0  0  0  0
    3.7449   -1.7453   43.5024 C   0  0  0  0  0  0  0  0  0  0  0  0
    7.8525   -0.6503   45.0420 O   0  0  0  0  0  0  0  0  0  0  0  0
    7.8789   -2.5576   46.3941 C   0  0  0  0  0  0  0  0  0  0  0  0
    2.8045   -2.7414   43.6928 C   0  0  0  0  0  0  0  0  0  0  0  0
    9.2115   -2.0969   46.8642 C   0  0  0  0  0  0  0  0  0  0  0  0
    4.0793   -3.8977   45.1232 C   0  0  0  0  0  0  0  0  0  0  0  0
    9.4064   -1.6424   47.9232 O   0  0  0  0  0  0  0  0  0  0  0  0
    3.1160   -3.7348   44.5196 N   0  0  0  0  0  0  0  0  0  0  0  0
   10.2271   -2.0181   45.9902 O   0  0  0  0  0  0  0  0  0  0  0  0
    1.5846   -2.6820   43.0143 C   0  0  0  0  0  0  0  0  0  0  0  0
   11.4761   -2.1798   46.4472 C   0  0  0  0  0  0  0  0  0  0  0  0
    1.2997   -1.5506   42.1525 C   0  0  0  0  0  0  0  0  0  0  0  0
    0.5555   -3.6734   43.1531 C   0  0  0  0  0  0  0  0  0  0  0  0
   -0.1252   -4.0680   42.0341 O   0  0  0  0  0  0  0  0  0  0  0  0
    0.3090   -4.1637   44.1784 O   0  0  0  0  0  0  0  0  0  0  0  0
    5.8996   -4.0688   46.5513 C   0  0  0  0  0  0  0  0  0  0  0  0
    7.2191   -3.6737   47.0406 C   0  0  0  0  0  0  0  0  0  0  0  0
   12.4471   -1.3624   45.7994 C   0  0  0  0  0  0  0  0  0  0  0  0
   11.7898   -3.1534   47.3130 C   0  0  0  0  0  0  0  0  0  0  0  0
   12.0382   -0.4127   44.8594 F   0  0  0  0  0  0  0  0  0  0  0  0
   13.1310   -3.4057   47.6950 C   0  0  0  0  0  0  0  0  0  0  0  0
   14.1502   -2.5622   47.1463 C   0  0  0  0  0  0  0  0  0  0  0  0
   13.7888   -1.5559   46.2147 C   0  0  0  0  0  0  0  0  0  0  0  0
  1  2  2  0
  1  3  1  0
  3  4  1  0
  4  5  2  0
  4  6  1  0
  2  7  1  0
  7  8  2  0
  3  9  2  0
  7  9  1  0
  6 10  1  0
  6 11  2  0
  9 12  1  0
 11 13  1  0
  5 14  1  0
 13 15  2  0
 12 16  1  0
 14 16  2  0
 13 17  1  0
 12 18  1  0
 17 19  1  0
  8 20  1  0
 18 20  2  0
 18 21  1  0
 21 22  1  0
 21 23  2  0
  5 24  1  0
 11 25  1  0
 24 25  2  0
 19 26  2  0
 19 27  1  0
 26 28  1  0
 27 29  2  0
 29 30  1  0
 26 31  1  0
 30 31  2  0
M  END
$$$$
O14757_Pocket2Mol_idx-in-all-generaetd-258
     RDKit          3D

 39 45  0  0  0  0  0  0  0  0999 V2000
    4.5156    0.0550   42.9895 N   0  0  0  0  0  0  0  0  0  0  0  0
    5.0618   -0.8645   43.5295 C   0  0  0  0  0  0  0  0  0  0  0  0
    4.4350   -2.0604   43.7783 C   0  0  0  0  0  0  0  0  0  0  0  0
    4.9987   -3.0994   44.5839 C   0  0  0  0  0  0  0  0  0  0  0  0
    3.2714   -1.8664   43.0632 C   0  0  0  0  0  0  0  0  0  0  0  0
    6.4064   -0.5942   44.3204 N   0  0  0  0  0  0  0  0  0  0  0  0
    4.3422   -4.3256   44.7203 C   0  0  0  0  0  0  0  0  0  0  0  0
    2.1845   -2.6668   42.8270 N   0  0  0  0  0  0  0  0  0  0  0  0
    3.3305   -0.5395   42.5465 N   0  0  0  0  0  0  0  0  0  0  0  0
    1.9502   -3.8972   43.4076 C   0  0  0  0  0  0  0  0  0  0  0  0
    2.7156   -4.1184   44.6954 N   0  0  0  0  0  0  0  0  0  0  0  0
    6.8581   -1.5862   45.1101 C   0  0  0  0  0  0  0  0  0  0  0  0
    6.1801   -2.8430   45.2383 C   0  0  0  0  0  0  0  0  0  0  0  0
    2.1454   -5.1901   45.5771 C   0  0  0  0  0  0  0  0  0  0  0  0
    8.0137   -1.3946   45.8526 C   0  0  0  0  0  0  0  0  0  0  0  0
    0.9733   -4.5725   43.2066 O   0  0  0  0  0  0  0  0  0  0  0  0
    2.2437    0.0035   41.8733 C   0  0  0  0  0  0  0  0  0  0  0  0
    1.3210   -2.2077   41.7009 C   0  0  0  0  0  0  0  0  0  0  0  0
    8.6047   -2.2876   46.6923 C   0  0  0  0  0  0  0  0  0  0  0  0
    7.9141   -3.5157   46.8869 C   0  0  0  0  0  0  0  0  0  0  0  0
    1.0501   -0.8658   41.6612 C   0  0  0  0  0  0  0  0  0  0  0  0
    6.7278   -3.7718   46.2525 C   0  0  0  0  0  0  0  0  0  0  0  0
    9.8280   -2.0492   47.3361 C   0  0  0  0  0  0  0  0  0  0  0  0
    9.8262   -1.5735   48.5432 C   0  0  0  0  0  0  0  0  0  0  0  0
   11.0745   -2.0905   46.6735 C   0  0  0  0  0  0  0  0  0  0  0  0
    8.5798   -1.4294   49.3788 F   0  0  0  0  0  0  0  0  0  0  0  0
   10.9754   -1.2454   49.3173 C   0  0  0  0  0  0  0  0  0  0  0  0
   12.2431   -1.7844   47.3194 C   0  0  0  0  0  0  0  0  0  0  0  0
   12.3027   -1.4029   48.7252 C   0  0  0  0  0  0  0  0  0  0  0  0
   13.5212   -1.8824   46.5853 C   0  0  0  0  0  0  0  0  0  0  0  0
    1.0433   -4.5208   46.3540 C   0  0  0  0  0  0  0  0  0  0  0  0
   13.6066   -1.3002   45.3939 C   0  0  0  0  0  0  0  0  0  0  0  0
   14.5955   -2.4639   47.1696 C   0  0  0  0  0  0  0  0  0  0  0  0
   15.8168   -2.5830   46.5159 C   0  0  0  0  0  0  0  0  0  0  0  0
   14.8225   -1.3422   44.6758 C   0  0  0  0  0  0  0  0  0  0  0  0
   14.9289   -0.7952   43.3581 C   0  0  0  0  0  0  0  0  0  0  0  0
   14.4910    0.3394   43.1945 C   0  0  0  0  0  0  0  0  0  0  0  0
   15.9476   -2.0535   45.2338 C   0  0  0  0  0  0  0  0  0  0  0  0
   14.8054    0.9781   41.8799 C   0  0  0  0  0  0  0  0  0  0  0  0
  1  2  2  0
  2  3  1  0
  3  4  1  0
  3  5  2  0
  2  6  1  0
  4  7  1  0
  5  8  1  0
  1  9  1  0
  5  9  1  0
  8 10  1  0
  7 11  1  0
 10 11  1  0
  6 12  2  0
  4 13  2  0
 12 13  1  0
 11 14  1  0
 12 15  1  0
 10 16  2  0
  9 17  1  0
  8 18  1  0
 15 19  2  0
 19 20  1  0
 17 21  1  0
 18 21  1  0
 13 22  1  0
 20 22  2  0
 19 23  1  0
 23 24  2  0
 23 25  1  0
 24 26  1  0
 24 27  1  0
 25 28  2  0
 27 29  2  0
 28 29  1  0
 28 30  1  0
 14 31  1  0
 30 32  2  0
 30 33  1  0
 33 34  2  0
 32 35  1  0
 35 36  1  0
 36 37  2  3
 34 38  1  0
 35 38  2  0
 37 39  1  0
M  END
$$$$
O14757_Pocket2Mol_idx-in-all-generaetd-259
     RDKit          3D

 27 31  0  0  0  0  0  0  0  0999 V2000
    5.3420    0.2589   42.8836 N   0  0  0  0  0  0  0  0  0  0  0  0
    5.6740   -0.8311   43.5645 C   0  0  0  0  0  0  0  0  0  0  0  0
    6.8416   -0.9240   44.3627 N   0  0  0  0  0  0  0  0  0  0  0  0
    4.1141    0.2821   42.2689 C   0  0  0  0  0  0  0  0  0  0  0  0
    3.2237   -0.7484   42.3921 N   0  0  0  0  0  0  0  0  0  0  0  0
    6.8097   -1.9585   45.3182 C   0  0  0  0  0  0  0  0  0  0  0  0
    3.5007   -1.8060   43.1511 C   0  0  0  0  0  0  0  0  0  0  0  0
    4.7020   -1.8573   43.8328 C   0  0  0  0  0  0  0  0  0  0  0  0
    5.4887   -2.6670   44.9856 C   0  0  0  0  0  0  0  0  0  0  0  0
    2.5208   -2.8458   43.2671 C   0  0  0  0  0  0  0  0  0  0  0  0
    2.6558   -3.8570   44.2541 C   0  0  0  0  0  0  0  0  0  0  0  0
    7.6468   -2.3589   46.2854 C   0  0  0  0  0  0  0  0  0  0  0  0
    3.8579   -4.1296   44.9532 N   0  0  0  0  0  0  0  0  0  0  0  0
    1.3096   -2.7520   42.6410 C   0  0  0  0  0  0  0  0  0  0  0  0
    4.9776   -3.8402   45.4939 C   0  0  0  0  0  0  0  0  0  0  0  0
    8.7023   -1.6088   46.4743 C   0  0  0  0  0  0  0  0  0  0  0  0
    9.5984   -1.8433   47.5139 C   0  0  0  0  0  0  0  0  0  0  0  0
    7.3782   -3.4221   47.2077 C   0  0  0  0  0  0  0  0  0  0  0  0
    1.5977   -4.7338   44.4801 C   0  0  0  0  0  0  0  0  0  0  0  0
    1.0668   -1.7644   41.4981 C   0  0  0  0  0  0  0  0  0  0  0  0
   10.8175   -0.9959   47.6882 O   0  0  0  0  0  0  0  0  0  0  0  0
   11.6053   -1.2371   48.6095 C   0  0  0  0  0  0  0  0  0  0  0  0
    0.3244   -3.6976   42.8655 C   0  0  0  0  0  0  0  0  0  0  0  0
   -0.8593   -3.6685   42.0130 N   0  0  0  0  0  0  0  0  0  0  0  0
    9.3117   -2.9246   48.2901 C   0  0  0  0  0  0  0  0  0  0  0  0
    8.3116   -3.6750   48.2577 C   0  0  0  0  0  0  0  0  0  0  0  0
    0.4962   -4.6658   43.7630 N   0  0  0  0  0  0  0  0  0  0  0  0
  1  2  2  0
  2  3  1  0
  1  4  1  0
  4  5  2  0
  3  6  1  0
  5  7  1  0
  2  8  1  0
  7  8  2  0
  6  9  2  0
  8  9  1  0
  7 10  1  0
 10 11  2  0
  6 12  1  0
 11 13  1  0
 10 14  1  0
  9 15  1  0
 13 15  1  0
 12 16  2  0
 16 17  1  0
 12 18  1  0
 11 19  1  0
 14 20  1  0
 17 21  1  0
 21 22  1  0
 14 23  2  0
 23 24  1  0
 17 25  2  0
 18 26  2  0
 25 26  1  0
 19 27  2  0
 23 27  1  0
M  END
$$$$
O14757_Pocket2Mol_idx-in-all-generaetd-260
     RDKit          3D

 28 31  0  0  0  0  0  0  0  0999 V2000
    5.5575   -0.4055   43.2321 N   0  0  0  0  0  0  0  0  0  0  0  0
    4.5233    0.0727   42.5988 N   0  0  0  0  0  0  0  0  0  0  0  0
    5.1726   -1.5114   43.9314 C   0  0  0  0  0  0  0  0  0  0  0  0
    5.9080   -2.2268   44.9217 C   0  0  0  0  0  0  0  0  0  0  0  0
    5.3635   -3.3861   45.5121 C   0  0  0  0  0  0  0  0  0  0  0  0
    7.1791   -1.7734   45.4544 C   0  0  0  0  0  0  0  0  0  0  0  0
    3.4069   -0.5377   42.5980 C   0  0  0  0  0  0  0  0  0  0  0  0
    2.1839   -0.4257   41.9942 C   0  0  0  0  0  0  0  0  0  0  0  0
    3.7449   -1.7453   43.5024 C   0  0  0  0  0  0  0  0  0  0  0  0
    7.8525   -0.6503   45.0420 O   0  0  0  0  0  0  0  0  0  0  0  0
    7.8789   -2.5576   46.3941 C   0  0  0  0  0  0  0  0  0  0  0  0
    2.8045   -2.7414   43.6928 C   0  0  0  0  0  0  0  0  0  0  0  0
    9.2115   -2.0969   46.8642 C   0  0  0  0  0  0  0  0  0  0  0  0
    4.0793   -3.8977   45.1232 C   0  0  0  0  0  0  0  0  0  0  0  0
    7.1913   -3.6941   46.9496 C   0  0  0  0  0  0  0  0  0  0  0  0
    6.0590   -4.0757   46.5019 C   0  0  0  0  0  0  0  0  0  0  0  0
    1.6490   -2.6373   42.8534 C   0  0  0  0  0  0  0  0  0  0  0  0
    0.5956   -3.6893   42.8101 C   0  0  0  0  0  0  0  0  0  0  0  0
    9.3005   -1.4726   47.8971 O   0  0  0  0  0  0  0  0  0  0  0  0
    3.0795   -3.7745   44.4084 N   0  0  0  0  0  0  0  0  0  0  0  0
   10.1712   -2.0975   45.9950 N   0  0  0  0  0  0  0  0  0  0  0  0
   11.4325   -2.0581   46.2821 C   0  0  0  0  0  0  0  0  0  0  0  0
    1.2929   -1.5279   42.1181 C   0  0  0  0  0  0  0  0  0  0  0  0
    0.0898   -4.0450   43.7276 O   0  0  0  0  0  0  0  0  0  0  0  0
   12.3734   -2.5745   45.3053 C   0  0  0  0  0  0  0  0  0  0  0  0
   13.6602   -2.3526   45.2980 O   0  0  0  0  0  0  0  0  0  0  0  0
   11.7756   -3.0423   44.3073 O   0  0  0  0  0  0  0  0  0  0  0  0
   -0.1283   -3.8032   41.5869 O   0  0  0  0  0  0  0  0  0  0  0  0
  1  2  2  0
  1  3  1  0
  3  4  1  0
  4  5  2  0
  4  6  1  0
  2  7  1  0
  7  8  2  0
  3  9  2  0
  7  9  1  0
  6 10  1  0
  6 11  2  0
  9 12  1  0
 11 13  1  0
  5 14  1  0
 11 15  1  0
  5 16  1  0
 15 16  2  0
 12 17  1  0
 17 18  1  0
 13 19  2  0
 12 20  2  0
 14 20  1  0
 13 21  1  0
 21 22  1  0
  8 23  1  0
 17 23  2  0
 18 24  1  0
 22 25  1  0
 25 26  2  0
 25 27  1  0
 18 28  2  0
M  END
$$$$
O14757_Pocket2Mol_idx-in-all-generaetd-261
     RDKit          3D

 44 52  0  0  0  0  0  0  0  0999 V2000
    1.5482   -0.3111   41.9233 C   0  0  0  0  0  0  0  0  0  0  0  0
    2.7284    0.2018   42.1525 N   0  0  0  0  0  0  0  0  0  0  0  0
    3.7893   -0.3016   42.7005 C   0  0  0  0  0  0  0  0  0  0  0  0
    3.3781   -1.7350   43.0000 C   0  0  0  0  0  0  0  0  0  0  0  0
    2.0339   -1.9619   42.6217 C   0  0  0  0  0  0  0  0  0  0  0  0
    5.0090    0.1219   42.9340 N   0  0  0  0  0  0  0  0  0  0  0  0
    4.2895   -2.4979   43.6707 C   0  0  0  0  0  0  0  0  0  0  0  0
    5.8391   -0.6675   43.6343 C   0  0  0  0  0  0  0  0  0  0  0  0
    6.9849   -0.2377   44.0028 N   0  0  0  0  0  0  0  0  0  0  0  0
    4.0426   -3.8794   44.0832 C   0  0  0  0  0  0  0  0  0  0  0  0
    7.6796   -0.8734   44.9326 C   0  0  0  0  0  0  0  0  0  0  0  0
    1.1064   -2.9576   42.4211 C   0  0  0  0  0  0  0  0  0  0  0  0
    5.5298   -1.9496   44.0315 C   0  0  0  0  0  0  0  0  0  0  0  0
    3.8954   -4.1817   45.4718 C   0  0  0  0  0  0  0  0  0  0  0  0
    0.6765   -3.5480   43.4006 C   0  0  1  0  0  0  0  0  0  0  0  0
    0.5804   -3.2191   41.1635 C   0  0  0  0  0  0  0  0  0  0  0  0
    2.8083   -4.8227   45.9203 N   0  0  0  0  0  0  0  0  0  0  0  0
   -0.1574   -4.5754   42.9329 N   0  0  0  0  0  0  0  0  0  0  0  0
    6.5271   -2.5531   44.9677 C   0  0  0  0  0  0  0  0  0  0  0  0
   -0.2272   -4.3703   41.5137 C   0  0  0  0  0  0  0  0  0  0  0  0
    7.5095   -2.0029   45.3993 C   0  0  0  0  0  0  0  0  0  0  0  0
    8.2550   -2.6982   46.3988 C   0  0  0  0  0  0  0  0  0  0  0  0
    8.8975   -0.3029   45.3267 O   0  0  0  0  0  0  0  0  0  0  0  0
    4.8299   -4.4637   46.4212 C   0  0  0  0  0  0  0  0  0  0  0  0
    4.2707   -4.9248   47.6295 N   0  0  0  0  0  0  0  0  0  0  0  0
    3.2045   -5.2092   47.1521 C   0  0  0  0  0  0  0  0  0  0  0  0
    1.4482   -4.6186   45.4134 C   0  0  1  0  0  0  0  0  0  0  0  0
    1.2398   -3.5043   44.6236 O   0  0  0  0  0  0  0  0  0  0  0  0
    7.8521   -3.9584   46.8773 C   0  0  0  0  0  0  0  0  0  0  0  0
    8.4079   -4.7553   47.7407 C   0  0  0  0  0  0  0  0  0  0  0  0
    5.9516   -3.8110   45.9146 C   0  0  0  0  0  0  0  0  0  0  0  0
    6.6436   -4.3892   46.6649 C   0  0  0  0  0  0  0  0  0  0  0  0
    9.5111   -5.5246   47.2994 O   0  0  0  0  0  0  0  0  0  0  0  0
   10.6238   -5.0197   46.8534 C   0  0  0  0  0  0  0  0  0  0  0  0
   11.5866   -4.7361   47.6189 C   0  0  0  0  0  0  0  0  0  0  0  0
    1.2153   -5.7944   44.5753 C   0  0  0  0  0  0  0  0  0  0  0  0
   10.7023   -4.6532   45.4361 C   0  0  0  0  0  0  0  0  0  0  0  0
   11.7209   -4.2457   45.0565 C   0  0  0  0  0  0  0  0  0  0  0  0
   11.5467   -4.9832   49.1186 O   0  0  0  0  0  0  0  0  0  0  0  0
   12.3505   -5.8268   49.5929 C   0  0  0  0  0  0  0  0  0  0  0  0
   12.8150   -3.9071   45.8420 C   0  0  0  0  0  0  0  0  0  0  0  0
   12.7609   -4.0921   47.1778 C   0  0  0  0  0  0  0  0  0  0  0  0
   14.1653   -3.1593   45.3623 C   0  0  0  0  0  0  0  0  0  0  0  0
   13.9634   -1.9912   44.7328 C   0  0  0  0  0  0  0  0  0  0  0  0
  1  2  1  0
  2  3  2  0
  3  4  1  0
  1  5  2  0
  4  5  1  0
  3  6  1  0
  4  7  2  0
  6  8  1  0
  8  9  1  0
  7 10  1  0
  9 11  1  0
  5 12  1  0
  7 13  1  0
  8 13  2  0
 10 14  1  0
 12 15  1  0
 12 16  2  0
 14 17  1  0
 15 18  1  0
 13 19  1  0
 16 20  1  0
 18 20  2  0
 11 21  1  0
 19 21  2  0
 21 22  1  0
 11 23  2  0
 14 24  2  0
 24 25  1  0
 17 26  1  0
 25 26  2  0
 17 27  1  0
 15 28  1  6
 27 28  1  0
 22 29  2  0
 29 30  1  0
 19 31  1  0
 24 31  1  0
 29 32  1  0
 31 32  2  0
 30 33  1  0
 33 34  1  0
 34 35  2  0
 27 36  1  6
 34 37  1  0
 37 38  2  0
 35 39  1  0
 39 40  1  0
 38 41  1  0
 35 42  1  0
 41 42  2  0
 41 43  1  0
 43 44  1  0
M  END
$$$$
O14757_Pocket2Mol_idx-in-all-generaetd-262
     RDKit          3D

 39 46  0  0  0  0  0  0  0  0999 V2000
    4.8173    0.2791   42.6993 N   0  0  0  0  0  0  0  0  0  0  0  0
    5.3297   -0.7477   43.3688 C   0  0  0  0  0  0  0  0  0  0  0  0
    3.4732   -0.2235   42.4530 C   0  0  0  0  0  0  0  0  0  0  0  0
    4.4984   -1.7876   43.6214 C   0  0  0  0  0  0  0  0  0  0  0  0
    3.3438   -1.5190   42.9379 C   0  0  0  0  0  0  0  0  0  0  0  0
    2.1381   -2.3401   42.8254 C   0  0  0  0  0  0  0  0  0  0  0  0
    2.3894    0.3572   41.9843 N   0  0  0  0  0  0  0  0  0  0  0  0
    4.9180   -3.0430   44.3829 C   0  0  0  0  0  0  0  0  0  0  0  0
    5.9444   -2.9314   45.3934 C   0  0  0  0  0  0  0  0  0  0  0  0
    4.2808   -4.1329   44.3252 C   0  0  0  0  0  0  0  0  0  0  0  0
    3.1588   -4.4221   43.4852 O   0  0  0  0  0  0  0  0  0  0  0  0
    4.5704   -5.2518   45.1995 C   0  0  0  0  0  0  0  0  0  0  0  0
    1.9853   -3.6792   43.3495 C   0  0  0  0  0  0  0  0  0  0  0  0
    0.9181   -4.3294   43.4638 C   0  0  0  0  0  0  0  0  0  0  0  0
    6.7403   -1.6226   45.5272 C   0  0  2  0  0  0  0  0  0  0  0  0
    0.9752   -1.7845   42.3366 C   0  0  0  0  0  0  0  0  0  0  0  0
    6.2516   -3.7287   46.2722 C   0  0  0  0  0  0  0  0  0  0  0  0
   -0.2404   -2.4179   42.2529 C   0  0  0  0  0  0  0  0  0  0  0  0
   -1.3835   -1.8904   41.6559 N   0  0  0  0  0  0  0  0  0  0  0  0
    3.8706   -6.4216   45.1394 O   0  0  0  0  0  0  0  0  0  0  0  0
    0.9456   -0.2789   41.7649 C   0  0  0  0  0  0  0  0  0  0  0  0
   -0.2678   -3.6969   42.7575 C   0  0  0  0  0  0  0  0  0  0  0  0
    6.3913   -0.7000   44.3807 N   0  0  0  0  0  0  0  0  0  0  0  0
    7.9391   -1.5867   46.0069 C   0  0  0  0  0  0  0  0  0  0  0  0
    8.7787   -0.4879   45.9761 O   0  0  0  0  0  0  0  0  0  0  0  0
    5.3853   -5.1216   46.3780 C   0  0  0  0  0  0  0  0  0  0  0  0
    8.4504   -2.7517   46.6262 N   0  0  0  0  0  0  0  0  0  0  0  0
    7.4807   -3.7374   47.0380 C   0  0  0  0  0  0  0  0  0  0  0  0
    9.7261   -2.6138   47.3732 C   0  0  0  0  0  0  0  0  0  0  0  0
    9.9606   -3.7577   48.0581 C   0  0  0  0  0  0  0  0  0  0  0  0
   11.0999   -4.4648   47.7368 O   0  0  0  0  0  0  0  0  0  0  0  0
   10.9199   -5.0316   46.4526 C   0  0  0  0  0  0  0  0  0  0  0  0
   10.2272   -6.0822   46.3751 C   0  0  0  0  0  0  0  0  0  0  0  0
   11.3454   -4.3181   45.2884 C   0  0  0  0  0  0  0  0  0  0  0  0
   11.3250   -4.9698   44.1087 C   0  0  0  0  0  0  0  0  0  0  0  0
    9.6987   -6.7623   47.6218 O   0  0  0  0  0  0  0  0  0  0  0  0
    8.4878   -7.5788   47.6714 C   0  0  0  0  0  0  0  0  0  0  0  0
   10.7720   -6.3220   44.1856 C   0  0  0  0  0  0  0  0  0  0  0  0
   10.2748   -6.8523   45.2165 C   0  0  0  0  0  0  0  0  0  0  0  0
  1  2  2  0
  1  3  1  0
  2  4  1  0
  3  5  1  0
  4  5  2  0
  5  6  1  0
  3  7  2  0
  4  8  1  0
  8  9  1  0
  8 10  2  0
 10 11  1  0
 10 12  1  0
  6 13  1  0
 11 13  1  0
 13 14  2  0
  9 15  1  0
  6 16  2  0
  9 17  2  0
 16 18  1  0
 18 19  1  0
 12 20  1  0
  7 21  1  0
 16 21  1  0
 14 22  1  0
 18 22  2  0
  2 23  1  0
 15 23  1  6
 15 24  1  0
 24 25  2  0
 12 26  2  0
 17 26  1  0
 24 27  1  0
 17 28  1  0
 27 28  1  0
 27 29  1  0
 29 30  1  0
 30 31  1  0
 31 32  1  0
 32 33  2  0
 32 34  1  0
 34 35  2  0
 33 36  1  0
 36 37  1  0
 35 38  1  0
 33 39  1  0
 38 39  2  0
M  END
$$$$
O14757_Pocket2Mol_idx-in-all-generaetd-263
     RDKit          3D

 45 51  0  0  0  0  0  0  0  0999 V2000
    5.3420    0.2589   42.8836 O   0  0  0  0  0  0  0  0  0  0  0  0
    5.1627   -0.7554   43.4753 C   0  0  0  0  0  0  0  0  0  0  0  0
    4.0509   -1.4657   43.4177 N   0  0  0  0  0  0  0  0  0  0  0  0
    5.9969   -1.2317   44.6840 C   0  0  0  0  0  0  0  0  0  0  0  0
    2.9618   -1.1021   42.5918 C   0  0  1  0  0  0  0  0  0  0  0  0
    7.3392   -0.8596   44.8412 C   0  0  0  0  0  0  0  0  0  0  0  0
    1.9754   -2.0820   42.2741 C   0  0  0  0  0  0  0  0  0  0  0  0
    5.5910   -2.4282   45.3439 C   0  0  0  0  0  0  0  0  0  0  0  0
    6.5874   -2.9636   46.1581 C   0  0  0  0  0  0  0  0  0  0  0  0
    4.2763   -3.0680   45.0493 N   0  0  0  0  0  0  0  0  0  0  0  0
    3.6188   -2.5886   44.2024 C   0  0  0  0  0  0  0  0  0  0  0  0
    8.1921   -1.4071   45.7505 C   0  0  0  0  0  0  0  0  0  0  0  0
    1.0154   -1.8839   41.2980 C   0  0  0  0  0  0  0  0  0  0  0  0
    2.5720   -3.3564   43.9063 C   0  0  0  0  0  0  0  0  0  0  0  0
    0.2502   -2.8976   41.0751 C   0  0  0  0  0  0  0  0  0  0  0  0
    6.1761   -4.1775   47.0209 C   0  0  0  0  0  0  0  0  0  0  0  0
    1.7266   -3.1047   43.0115 C   0  0  2  0  0  0  0  0  0  0  0  0
    2.3696   -4.5367   44.7536 N   0  0  0  0  0  0  0  0  0  0  0  0
    1.2264   -5.2346   44.4693 C   0  0  0  0  0  0  0  0  0  0  0  0
    0.7187   -3.8955   42.5465 C   0  0  0  0  0  0  0  0  0  0  0  0
    9.4576   -0.8949   46.0327 N   0  0  0  0  0  0  0  0  0  0  0  0
    0.8625   -6.3901   45.2462 C   0  0  0  0  0  0  0  0  0  0  0  0
    7.6467   -2.5139   46.4892 C   0  0  0  0  0  0  0  0  0  0  0  0
   10.4908   -1.5336   45.8242 C   0  0  0  0  0  0  0  0  0  0  0  0
    0.3057   -4.9299   43.2909 C   0  0  0  0  0  0  0  0  0  0  0  0
   11.5916   -1.4291   46.7436 C   0  0  0  0  0  0  0  0  0  0  0  0
   10.5566   -2.3672   44.8649 O   0  0  0  0  0  0  0  0  0  0  0  0
   12.8421   -1.9355   46.2823 C   0  0  0  0  0  0  0  0  0  0  0  0
   13.4833   -2.8582   46.9841 C   0  0  0  0  0  0  0  0  0  0  0  0
   11.4002   -1.1447   48.0540 C   0  0  0  0  0  0  0  0  0  0  0  0
   10.2867   -0.4569   48.4999 O   0  0  0  0  0  0  0  0  0  0  0  0
   12.3327   -1.4798   48.9564 C   0  0  0  0  0  0  0  0  0  0  0  0
   14.7901   -3.3162   46.6439 C   0  0  0  0  0  0  0  0  0  0  0  0
   12.1651   -1.3050   50.3239 O   0  0  0  0  0  0  0  0  0  0  0  0
   15.6765   -2.5740   46.0979 C   0  0  0  0  0  0  0  0  0  0  0  0
   13.4417   -2.4710   48.5369 C   0  0  0  0  0  0  0  0  0  0  0  0
   15.5553   -1.2853   45.8338 C   0  0  0  0  0  0  0  0  0  0  0  0
   15.4119   -0.8806   44.5116 C   0  0  0  0  0  0  0  0  0  0  0  0
   15.4231    0.5245   44.1215 C   0  0  0  0  0  0  0  0  0  0  0  0
    2.4635    0.2112   42.8525 C   0  0  0  0  0  0  0  0  0  0  0  0
   15.1051    1.3384   44.9492 C   0  0  0  0  0  0  0  0  0  0  0  0
   14.8723    2.7962   44.5534 C   0  0  0  0  0  0  0  0  0  0  0  0
   16.1745   -0.1562   46.4809 C   0  0  0  0  0  0  0  0  0  0  0  0
   16.5190   -0.4117   47.9235 O   0  0  0  0  0  0  0  0  0  0  0  0
   15.7878    1.2204   46.3272 C   0  0  0  0  0  0  0  0  0  0  0  0
  1  2  2  0
  2  3  1  0
  2  4  1  0
  3  5  1  0
  4  6  2  0
  5  7  1  0
  4  8  1  0
  8  9  2  0
  8 10  1  0
  3 11  1  0
 10 11  2  0
  6 12  1  0
  7 13  2  0
 11 14  1  0
 13 15  1  0
  9 16  1  0
 17  7  1  6
 14 17  1  0
 14 18  2  0
 18 19  1  0
 15 20  2  0
 17 20  1  0
 12 21  1  0
 19 22  1  0
  9 23  1  0
 12 23  2  0
 21 24  1  0
 19 25  2  0
 20 25  1  0
 24 26  1  0
 24 27  2  0
 26 28  2  0
 28 29  1  0
 26 30  1  0
 30 31  1  0
 30 32  2  0
 29 33  1  0
 32 34  1  0
 33 35  2  3
 29 36  2  0
 32 36  1  0
 35 37  1  0
 37 38  2  0
 38 39  1  0
  5 40  1  1
 39 41  2  0
 41 42  1  0
 37 43  1  0
 43 44  1  0
 41 45  1  0
 43 45  2  0
M  END
$$$$
O14757_Pocket2Mol_idx-in-all-generaetd-264
     RDKit          3D

 35 38  0  0  0  0  0  0  0  0999 V2000
    3.7044    0.1389   42.5158 N   0  0  0  0  0  0  0  0  0  0  0  0
    3.0206   -1.0018   42.4929 C   0  0  0  0  0  0  0  0  0  0  0  0
    3.4791   -2.0817   43.2077 C   0  0  0  0  0  0  0  0  0  0  0  0
    4.8540    0.3862   43.0582 N   0  0  0  0  0  0  0  0  0  0  0  0
    5.1377   -0.9552   43.7144 C   0  0  0  0  0  0  0  0  0  0  0  0
    1.5846   -1.0753   41.7644 C   0  0  0  0  0  0  0  0  0  0  0  0
    4.6026   -2.0358   43.8129 C   0  0  0  0  0  0  0  0  0  0  0  0
    5.1584   -3.1511   44.6069 C   0  0  0  0  0  0  0  0  0  0  0  0
    6.6094   -0.7911   44.3696 N   0  0  0  0  0  0  0  0  0  0  0  0
    4.4744   -4.3270   44.8472 C   0  0  0  0  0  0  0  0  0  0  0  0
    6.9275   -1.8713   45.2437 C   0  0  0  0  0  0  0  0  0  0  0  0
    8.2702   -1.7750   45.8768 C   0  0  0  0  0  0  0  0  0  0  0  0
    0.9365   -0.0867   41.7346 O   0  0  0  0  0  0  0  0  0  0  0  0
    6.2322   -3.0484   45.3118 C   0  0  0  0  0  0  0  0  0  0  0  0
    6.7747   -4.0433   46.1202 N   0  0  0  0  0  0  0  0  0  0  0  0
    1.2161   -2.2739   41.2518 N   0  0  0  0  0  0  0  0  0  0  0  0
    9.0373   -0.5649   45.9132 O   0  0  0  0  0  0  0  0  0  0  0  0
    3.8907   -5.0906   43.9511 O   0  0  0  0  0  0  0  0  0  0  0  0
    4.3454   -4.8388   46.1621 N   0  0  0  0  0  0  0  0  0  0  0  0
    3.4531   -5.8952   46.4159 C   0  0  0  0  0  0  0  0  0  0  0  0
    8.6904   -2.8983   46.6073 N   0  0  0  0  0  0  0  0  0  0  0  0
    7.9257   -3.9393   46.7384 C   0  0  0  0  0  0  0  0  0  0  0  0
    8.4765   -4.8975   47.5307 O   0  0  0  0  0  0  0  0  0  0  0  0
   10.0100   -2.6771   47.3464 C   0  0  0  0  0  0  0  0  0  0  0  0
   10.0326   -1.8380   48.3764 C   0  0  0  0  0  0  0  0  0  0  0  0
   11.1123   -3.0851   46.6870 C   0  0  0  0  0  0  0  0  0  0  0  0
   11.1072   -3.8213   45.4597 C   0  0  0  0  0  0  0  0  0  0  0  0
   11.0296   -5.0092   45.4509 C   0  0  0  0  0  0  0  0  0  0  0  0
   12.3326   -2.5048   47.0028 C   0  0  0  0  0  0  0  0  0  0  0  0
   13.5735   -2.8551   46.3066 C   0  0  0  0  0  0  0  0  0  0  0  0
   12.4256   -1.8909   48.2805 C   0  0  0  0  0  0  0  0  0  0  0  0
   14.2729   -1.7734   45.7615 C   0  0  0  0  0  0  0  0  0  0  0  0
   11.2610   -1.5364   48.9357 C   0  0  0  0  0  0  0  0  0  0  0  0
   15.4866   -1.6718   45.8102 O   0  0  0  0  0  0  0  0  0  0  0  0
   13.5379   -0.6960   45.4876 O   0  0  0  0  0  0  0  0  0  0  0  0
  1  2  2  0
  2  3  1  0
  1  4  1  0
  4  5  2  0
  2  6  1  0
  3  7  2  0
  5  7  1  0
  7  8  1  0
  5  9  1  0
  8 10  1  0
  9 11  2  0
 11 12  1  0
  6 13  2  0
  8 14  2  0
 11 14  1  0
 14 15  1  0
  6 16  1  0
 12 17  2  0
 10 18  2  0
 10 19  1  0
 19 20  1  0
 12 21  1  0
 15 22  1  0
 21 22  1  0
 22 23  2  0
 21 24  1  0
 24 25  2  0
 24 26  1  0
 26 27  1  0
 27 28  2  0
 26 29  2  0
 29 30  1  0
 29 31  1  0
 30 32  1  0
 25 33  1  0
 31 33  2  0
 32 34  2  0
 32 35  1  0
M  END
$$$$
O14757_Pocket2Mol_idx-in-all-generaetd-265
     RDKit          3D

 50 60  0  0  0  0  0  0  0  0999 V2000
    1.5482   -0.3111   41.9233 C   0  0  0  0  0  0  0  0  0  0  0  0
    2.7284    0.2018   42.1525 N   0  0  0  0  0  0  0  0  0  0  0  0
    3.7893   -0.3016   42.7005 C   0  0  0  0  0  0  0  0  0  0  0  0
    3.3781   -1.7350   43.0000 C   0  0  0  0  0  0  0  0  0  0  0  0
    2.0339   -1.9619   42.6217 C   0  0  0  0  0  0  0  0  0  0  0  0
    5.0090    0.1219   42.9340 N   0  0  0  0  0  0  0  0  0  0  0  0
    4.2895   -2.4979   43.6707 C   0  0  0  0  0  0  0  0  0  0  0  0
    5.8391   -0.6675   43.6343 C   0  0  0  0  0  0  0  0  0  0  0  0
    6.9849   -0.2377   44.0028 N   0  0  0  0  0  0  0  0  0  0  0  0
    4.0426   -3.8794   44.0832 C   0  0  0  0  0  0  0  0  0  0  0  0
    7.6796   -0.8734   44.9326 C   0  0  0  0  0  0  0  0  0  0  0  0
    1.1064   -2.9576   42.4211 C   0  0  0  0  0  0  0  0  0  0  0  0
    5.5298   -1.9496   44.0315 C   0  0  0  0  0  0  0  0  0  0  0  0
    3.8954   -4.1817   45.4718 C   0  0  0  0  0  0  0  0  0  0  0  0
    0.6765   -3.5480   43.4006 C   0  0  1  0  0  0  0  0  0  0  0  0
    0.5804   -3.2191   41.1635 C   0  0  0  0  0  0  0  0  0  0  0  0
    2.8083   -4.8227   45.9203 N   0  0  0  0  0  0  0  0  0  0  0  0
   -0.1574   -4.5754   42.9329 N   0  0  0  0  0  0  0  0  0  0  0  0
    6.5271   -2.5531   44.9677 C   0  0  0  0  0  0  0  0  0  0  0  0
   -0.2272   -4.3703   41.5137 C   0  0  0  0  0  0  0  0  0  0  0  0
    7.5095   -2.0029   45.3993 C   0  0  0  0  0  0  0  0  0  0  0  0
    8.2550   -2.6982   46.3988 C   0  0  2  0  0  0  0  0  0  0  0  0
    8.8975   -0.3029   45.3267 O   0  0  0  0  0  0  0  0  0  0  0  0
    4.8299   -4.4637   46.4212 C   0  0  0  0  0  0  0  0  0  0  0  0
    4.2707   -4.9248   47.6295 N   0  0  0  0  0  0  0  0  0  0  0  0
    3.2045   -5.2092   47.1521 C   0  0  0  0  0  0  0  0  0  0  0  0
    1.4482   -4.6186   45.4134 C   0  0  2  0  0  0  0  0  0  0  0  0
    1.2398   -3.5043   44.6236 O   0  0  0  0  0  0  0  0  0  0  0  0
    6.3317   -3.9297   46.0870 C   0  0  2  0  0  0  0  0  0  0  0  0
    9.5296   -2.5449   46.9776 C   0  0  0  0  0  0  0  0  0  0  0  0
    9.7921   -1.7530   47.9018 O   0  0  0  0  0  0  0  0  0  0  0  0
    7.4454   -3.8344   46.8035 C   0  0  0  0  0  0  0  0  0  0  0  0
   10.5010   -3.0847   46.3190 O   0  0  0  0  0  0  0  0  0  0  0  0
    0.5569   -4.7693   46.5649 C   0  0  0  0  0  0  0  0  0  0  0  0
   11.7452   -2.8462   46.6234 C   0  0  0  0  0  0  0  0  0  0  0  0
   12.4344   -1.8951   45.7393 C   0  0  0  0  0  0  0  0  0  0  0  0
   12.4612   -3.5429   47.5581 C   0  0  0  0  0  0  0  0  0  0  0  0
   11.7737   -4.5216   48.4115 C   0  0  0  0  0  0  0  0  0  0  0  0
   13.7761   -1.6251   45.9829 C   0  0  0  0  0  0  0  0  0  0  0  0
   13.7909   -3.1787   47.7950 C   0  0  0  0  0  0  0  0  0  0  0  0
   14.4374   -0.6496   45.1506 C   0  0  0  0  0  0  0  0  0  0  0  0
   14.5863   -3.8413   48.8675 C   0  0  0  0  0  0  0  0  0  0  0  0
   14.3043   -2.2958   47.0697 C   0  0  0  0  0  0  0  0  0  0  0  0
   13.8320   -4.7924   49.6737 C   0  0  0  0  0  0  0  0  0  0  0  0
   12.4875   -5.0991   49.4197 C   0  0  0  0  0  0  0  0  0  0  0  0
   14.3080   -0.7793   43.8464 C   0  0  0  0  0  0  0  0  0  0  0  0
   15.0777    0.2123   43.0439 C   0  0  0  0  0  0  0  0  0  0  0  0
   15.6268    1.2487   43.7741 C   0  0  0  0  0  0  0  0  0  0  0  0
   15.0546    0.3286   45.9011 C   0  0  0  0  0  0  0  0  0  0  0  0
   15.6447    1.2973   45.0442 C   0  0  0  0  0  0  0  0  0  0  0  0
  1  2  1  0
  2  3  2  0
  3  4  1  0
  1  5  2  0
  4  5  1  0
  3  6  1  0
  4  7  2  0
  6  8  1  0
  8  9  1  0
  7 10  1  0
  9 11  1  0
  5 12  1  0
  7 13  1  0
  8 13  2  0
 10 14  1  0
 12 15  1  0
 12 16  2  0
 14 17  1  0
 15 18  1  0
 13 19  1  0
 16 20  1  0
 18 20  2  0
 11 21  1  0
 19 21  2  0
 21 22  1  0
 11 23  2  0
 14 24  2  0
 24 25  1  0
 17 26  1  0
 25 26  2  0
 17 27  1  0
 15 28  1  6
 27 28  1  0
 19 29  1  0
 24 29  1  0
 22 30  1  6
 30 31  2  0
 22 32  1  0
 29 32  1  1
 30 33  1  0
 27 34  1  1
 33 35  1  0
 35 36  2  0
 35 37  1  0
 37 38  2  0
 36 39  1  0
 37 40  1  0
 39 41  1  0
 40 42  2  0
 39 43  2  0
 40 43  1  0
 42 44  1  0
 38 45  1  0
 44 45  2  0
 41 46  2  0
 46 47  1  0
 47 48  2  0
 41 49  1  0
 48 50  1  0
 49 50  2  0
M  END
$$$$
O14757_Pocket2Mol_idx-in-all-generaetd-266
     RDKit          3D

 35 42  0  0  0  0  0  0  0  0999 V2000
    4.8173    0.2791   42.6993 N   0  0  0  0  0  0  0  0  0  0  0  0
    5.3297   -0.7477   43.3688 C   0  0  0  0  0  0  0  0  0  0  0  0
    3.4732   -0.2235   42.4530 C   0  0  0  0  0  0  0  0  0  0  0  0
    4.4984   -1.7876   43.6214 C   0  0  0  0  0  0  0  0  0  0  0  0
    3.3438   -1.5190   42.9379 C   0  0  0  0  0  0  0  0  0  0  0  0
    2.1381   -2.3401   42.8254 C   0  0  0  0  0  0  0  0  0  0  0  0
    2.3894    0.3572   41.9843 N   0  0  0  0  0  0  0  0  0  0  0  0
    4.9180   -3.0430   44.3829 C   0  0  0  0  0  0  0  0  0  0  0  0
    5.9444   -2.9314   45.3934 C   0  0  0  0  0  0  0  0  0  0  0  0
    4.2808   -4.1329   44.3252 C   0  0  0  0  0  0  0  0  0  0  0  0
    3.1588   -4.4221   43.4852 O   0  0  0  0  0  0  0  0  0  0  0  0
    4.5704   -5.2518   45.1995 C   0  0  0  0  0  0  0  0  0  0  0  0
    1.9853   -3.6792   43.3495 C   0  0  0  0  0  0  0  0  0  0  0  0
    0.9181   -4.3294   43.4638 C   0  0  0  0  0  0  0  0  0  0  0  0
    6.7403   -1.6226   45.5272 C   0  0  2  0  0  0  0  0  0  0  0  0
    0.9752   -1.7845   42.3366 C   0  0  0  0  0  0  0  0  0  0  0  0
    6.2516   -3.7287   46.2722 C   0  0  0  0  0  0  0  0  0  0  0  0
   -0.2404   -2.4179   42.2529 C   0  0  0  0  0  0  0  0  0  0  0  0
   -1.3835   -1.8904   41.6559 N   0  0  0  0  0  0  0  0  0  0  0  0
    3.8706   -6.4216   45.1394 O   0  0  0  0  0  0  0  0  0  0  0  0
    0.9456   -0.2789   41.7649 C   0  0  0  0  0  0  0  0  0  0  0  0
   -0.2678   -3.6969   42.7575 C   0  0  0  0  0  0  0  0  0  0  0  0
    6.3913   -0.7000   44.3807 N   0  0  0  0  0  0  0  0  0  0  0  0
    7.9391   -1.5867   46.0069 C   0  0  0  0  0  0  0  0  0  0  0  0
    7.1969   -3.5621   47.3287 C   0  0  0  0  0  0  0  0  0  0  0  0
    5.4958   -5.0534   46.2483 C   0  0  0  0  0  0  0  0  0  0  0  0
    7.4872   -4.5338   48.2539 O   0  0  0  0  0  0  0  0  0  0  0  0
    8.1281   -2.5304   47.0986 C   0  0  1  0  0  0  0  0  0  0  0  0
    8.7872   -0.5908   45.9403 O   0  0  0  0  0  0  0  0  0  0  0  0
    9.4892   -2.5717   47.7347 C   0  0  0  0  0  0  0  0  0  0  0  0
   10.5268   -2.9441   46.9599 C   0  0  0  0  0  0  0  0  0  0  0  0
   11.4734   -2.0640   46.5154 C   0  0  0  0  0  0  0  0  0  0  0  0
   10.5880   -4.1779   46.4457 C   0  0  0  0  0  0  0  0  0  0  0  0
   11.8137   -4.3609   45.5935 C   0  0  0  0  0  0  0  0  0  0  0  0
   12.5092   -3.0627   45.5354 C   0  0  0  0  0  0  0  0  0  0  0  0
  1  2  2  0
  1  3  1  0
  2  4  1  0
  3  5  1  0
  4  5  2  0
  5  6  1  0
  3  7  2  0
  4  8  1  0
  8  9  1  0
  8 10  2  0
 10 11  1  0
 10 12  1  0
  6 13  1  0
 11 13  1  0
 13 14  2  0
  9 15  1  0
  6 16  2  0
  9 17  2  0
 16 18  1  0
 18 19  1  0
 12 20  1  0
  7 21  1  0
 16 21  1  0
 14 22  1  0
 18 22  2  0
  2 23  1  0
 15 23  1  6
 15 24  1  0
 17 25  1  0
 12 26  2  0
 17 26  1  0
 25 27  2  0
 24 28  1  0
 25 28  1  0
 24 29  2  0
 28 30  1  6
 30 31  1  0
 31 32  1  0
 31 33  2  0
 33 34  1  0
 32 35  1  0
 34 35  2  0
M  END
$$$$
O14757_Pocket2Mol_idx-in-all-generaetd-267
     RDKit          3D

 31 36  0  0  0  0  0  0  0  0999 V2000
    5.3420    0.2589   42.8836 O   0  0  0  0  0  0  0  0  0  0  0  0
    5.1627   -0.7554   43.4753 C   0  0  0  0  0  0  0  0  0  0  0  0
    4.0509   -1.4657   43.4177 N   0  0  0  0  0  0  0  0  0  0  0  0
    5.9969   -1.2317   44.6840 C   0  0  0  0  0  0  0  0  0  0  0  0
    2.9618   -1.1021   42.5918 C   0  0  0  0  0  0  0  0  0  0  0  0
    7.3392   -0.8596   44.8412 C   0  0  0  0  0  0  0  0  0  0  0  0
    1.9754   -2.0820   42.2741 C   0  0  0  0  0  0  0  0  0  0  0  0
    5.5910   -2.4282   45.3439 C   0  0  0  0  0  0  0  0  0  0  0  0
    6.5874   -2.9636   46.1581 C   0  0  0  0  0  0  0  0  0  0  0  0
    4.2763   -3.0680   45.0493 N   0  0  0  0  0  0  0  0  0  0  0  0
    3.6188   -2.5886   44.2024 C   0  0  0  0  0  0  0  0  0  0  0  0
    8.1921   -1.4071   45.7505 C   0  0  0  0  0  0  0  0  0  0  0  0
    1.0154   -1.8839   41.2980 C   0  0  0  0  0  0  0  0  0  0  0  0
    2.5720   -3.3564   43.9063 C   0  0  0  0  0  0  0  0  0  0  0  0
    0.2502   -2.8976   41.0751 C   0  0  0  0  0  0  0  0  0  0  0  0
    0.2230   -3.9124   42.0516 C   0  0  0  0  0  0  0  0  0  0  0  0
    2.2879   -4.6260   44.7113 N   0  0  0  0  0  0  0  0  0  0  0  0
    1.7585   -3.1585   42.9749 N   0  0  0  0  0  0  0  0  0  0  0  0
    7.7776   -2.5440   46.4766 C   0  0  0  0  0  0  0  0  0  0  0  0
    0.8620   -4.0153   42.9214 C   0  0  0  0  0  0  0  0  0  0  0  0
    2.9942   -0.0014   41.9856 O   0  0  0  0  0  0  0  0  0  0  0  0
    8.6110   -3.0684   47.3244 O   0  0  0  0  0  0  0  0  0  0  0  0
    9.7976   -3.4246   46.8484 C   0  0  0  0  0  0  0  0  0  0  0  0
   10.8224   -2.4283   47.1956 C   0  0  0  0  0  0  0  0  0  0  0  0
    0.9965   -5.0741   43.9477 C   0  0  0  0  0  0  0  0  0  0  0  0
   10.2995   -4.6400   47.3839 C   0  0  0  0  0  0  0  0  0  0  0  0
   12.1422   -2.5515   46.4710 C   0  0  1  0  0  0  0  0  0  0  0  0
   11.5967   -5.1065   46.7160 C   0  0  2  0  0  0  0  0  0  0  0  0
   12.0961   -6.3272   46.9386 O   0  0  0  0  0  0  0  0  0  0  0  0
   12.7050   -3.9966   46.8348 C   0  0  0  0  0  0  0  0  0  0  0  0
   12.0468   -2.4787   45.0749 O   0  0  0  0  0  0  0  0  0  0  0  0
  1  2  2  0
  2  3  1  0
  2  4  1  0
  3  5  1  0
  4  6  2  0
  5  7  1  0
  4  8  1  0
  8  9  2  0
  8 10  1  0
  3 11  1  0
 10 11  2  0
  6 12  1  0
  7 13  2  0
 11 14  1  0
 13 15  1  0
 15 16  2  0
 14 17  2  0
  7 18  1  0
 14 18  1  0
  9 19  1  0
 12 19  2  0
 16 20  1  0
 18 20  1  0
  5 21  2  0
 19 22  1  0
 22 23  1  0
 23 24  1  0
 17 25  1  0
 20 25  2  0
 23 26  1  0
 24 27  1  0
 26 28  1  0
 28 29  1  1
 27 30  1  0
 28 30  1  0
 27 31  1  6
M  END
$$$$
O14757_Pocket2Mol_idx-in-all-generaetd-268
     RDKit          3D

 42 48  0  0  0  0  0  0  0  0999 V2000
    5.3420    0.2589   42.8836 O   0  0  0  0  0  0  0  0  0  0  0  0
    5.1627   -0.7554   43.4753 C   0  0  0  0  0  0  0  0  0  0  0  0
    4.0509   -1.4657   43.4177 N   0  0  0  0  0  0  0  0  0  0  0  0
    5.9969   -1.2317   44.6840 C   0  0  0  0  0  0  0  0  0  0  0  0
    2.9618   -1.1021   42.5918 C   0  0  0  0  0  0  0  0  0  0  0  0
    7.3392   -0.8596   44.8412 C   0  0  0  0  0  0  0  0  0  0  0  0
    1.9754   -2.0820   42.2741 C   0  0  0  0  0  0  0  0  0  0  0  0
    5.5910   -2.4282   45.3439 C   0  0  0  0  0  0  0  0  0  0  0  0
    6.5874   -2.9636   46.1581 C   0  0  0  0  0  0  0  0  0  0  0  0
    4.2763   -3.0680   45.0493 N   0  0  0  0  0  0  0  0  0  0  0  0
    3.6188   -2.5886   44.2024 C   0  0  0  0  0  0  0  0  0  0  0  0
    8.1921   -1.4071   45.7505 C   0  0  0  0  0  0  0  0  0  0  0  0
    1.0154   -1.8839   41.2980 C   0  0  0  0  0  0  0  0  0  0  0  0
    2.5720   -3.3564   43.9063 C   0  0  0  0  0  0  0  0  0  0  0  0
    0.2502   -2.8976   41.0751 C   0  0  0  0  0  0  0  0  0  0  0  0
    6.1761   -4.1775   47.0209 C   0  0  0  0  0  0  0  0  0  0  0  0
    1.7266   -3.1047   43.0115 C   0  0  2  0  0  0  0  0  0  0  0  0
    2.3696   -4.5367   44.7536 N   0  0  0  0  0  0  0  0  0  0  0  0
    1.2264   -5.2346   44.4693 C   0  0  0  0  0  0  0  0  0  0  0  0
    0.7187   -3.8955   42.5465 C   0  0  0  0  0  0  0  0  0  0  0  0
    9.4576   -0.8949   46.0327 N   0  0  0  0  0  0  0  0  0  0  0  0
    0.8625   -6.3901   45.2462 C   0  0  0  0  0  0  0  0  0  0  0  0
    7.6467   -2.5139   46.4892 C   0  0  0  0  0  0  0  0  0  0  0  0
   10.4908   -1.5336   45.8242 C   0  0  0  0  0  0  0  0  0  0  0  0
    0.3057   -4.9299   43.2909 C   0  0  0  0  0  0  0  0  0  0  0  0
   11.5916   -1.4291   46.7436 C   0  0  0  0  0  0  0  0  0  0  0  0
   10.5566   -2.3672   44.8649 O   0  0  0  0  0  0  0  0  0  0  0  0
   12.8421   -1.9355   46.2823 C   0  0  0  0  0  0  0  0  0  0  0  0
   13.4833   -2.8582   46.9841 C   0  0  0  0  0  0  0  0  0  0  0  0
   11.4002   -1.1447   48.0540 C   0  0  0  0  0  0  0  0  0  0  0  0
   10.2867   -0.4569   48.4999 O   0  0  0  0  0  0  0  0  0  0  0  0
   12.3327   -1.4798   48.9564 C   0  0  0  0  0  0  0  0  0  0  0  0
   14.7901   -3.3162   46.6439 C   0  0  0  0  0  0  0  0  0  0  0  0
   12.1651   -1.3050   50.3239 O   0  0  0  0  0  0  0  0  0  0  0  0
   15.6765   -2.5740   46.0979 C   0  0  0  0  0  0  0  0  0  0  0  0
   13.4417   -2.4710   48.5369 C   0  0  0  0  0  0  0  0  0  0  0  0
    3.0238    0.0742   42.0657 O   0  0  0  0  0  0  0  0  0  0  0  0
   16.9621   -3.2473   45.5967 C   0  0  0  0  0  0  0  0  0  0  0  0
   17.0811   -4.5622   45.6708 C   0  0  0  0  0  0  0  0  0  0  0  0
   14.7039   -4.6671   47.0178 C   0  0  0  0  0  0  0  0  0  0  0  0
   13.8590   -5.5263   47.5476 C   0  0  0  0  0  0  0  0  0  0  0  0
   16.0575   -5.4130   46.4065 C   0  0  0  0  0  0  0  0  0  0  0  0
  1  2  2  0
  2  3  1  0
  2  4  1  0
  3  5  1  0
  4  6  2  0
  5  7  1  0
  4  8  1  0
  8  9  2  0
  8 10  1  0
  3 11  1  0
 10 11  2  0
  6 12  1  0
  7 13  2  0
 11 14  1  0
 13 15  1  0
  9 16  1  0
 17  7  1  6
 14 17  1  0
 14 18  2  0
 18 19  1  0
 15 20  2  0
 17 20  1  0
 12 21  1  0
 19 22  1  0
  9 23  1  0
 12 23  2  0
 21 24  1  0
 19 25  2  0
 20 25  1  0
 24 26  1  0
 24 27  2  0
 26 28  2  0
 28 29  1  0
 26 30  1  0
 30 31  1  0
 30 32  2  0
 29 33  1  0
 32 34  1  0
 33 35  2  0
 29 36  2  0
 32 36  1  0
  5 37  2  0
 35 38  1  0
 38 39  2  0
 33 40  1  0
 40 41  1  0
 39 42  1  0
 40 42  2  0
M  END
$$$$
O14757_Pocket2Mol_idx-in-all-generaetd-269
     RDKit          3D

 30 35  0  0  0  0  0  0  0  0999 V2000
    5.3420    0.2589   42.8836 O   0  0  0  0  0  0  0  0  0  0  0  0
    5.1627   -0.7554   43.4753 C   0  0  0  0  0  0  0  0  0  0  0  0
    4.0509   -1.4657   43.4177 N   0  0  0  0  0  0  0  0  0  0  0  0
    5.9969   -1.2317   44.6840 C   0  0  0  0  0  0  0  0  0  0  0  0
    2.9618   -1.1021   42.5918 C   0  0  0  0  0  0  0  0  0  0  0  0
    7.3392   -0.8596   44.8412 C   0  0  0  0  0  0  0  0  0  0  0  0
    1.9754   -2.0820   42.2741 C   0  0  0  0  0  0  0  0  0  0  0  0
    5.5910   -2.4282   45.3439 C   0  0  0  0  0  0  0  0  0  0  0  0
    6.5874   -2.9636   46.1581 C   0  0  0  0  0  0  0  0  0  0  0  0
    4.2763   -3.0680   45.0493 N   0  0  0  0  0  0  0  0  0  0  0  0
    3.6188   -2.5886   44.2024 C   0  0  0  0  0  0  0  0  0  0  0  0
    8.1921   -1.4071   45.7505 C   0  0  0  0  0  0  0  0  0  0  0  0
    1.0154   -1.8839   41.2980 C   0  0  0  0  0  0  0  0  0  0  0  0
    2.5720   -3.3564   43.9063 C   0  0  0  0  0  0  0  0  0  0  0  0
    0.2502   -2.8976   41.0751 C   0  0  0  0  0  0  0  0  0  0  0  0
    0.2230   -3.9124   42.0516 C   0  0  0  0  0  0  0  0  0  0  0  0
    2.2879   -4.6260   44.7113 N   0  0  0  0  0  0  0  0  0  0  0  0
    1.7585   -3.1585   42.9749 N   0  0  0  0  0  0  0  0  0  0  0  0
    7.7776   -2.5440   46.4766 C   0  0  0  0  0  0  0  0  0  0  0  0
    0.8620   -4.0153   42.9214 C   0  0  0  0  0  0  0  0  0  0  0  0
    2.9942   -0.0014   41.9856 O   0  0  0  0  0  0  0  0  0  0  0  0
    8.6110   -3.0684   47.3244 O   0  0  0  0  0  0  0  0  0  0  0  0
    9.7976   -3.4246   46.8484 C   0  0  2  0  0  0  0  0  0  0  0  0
    1.0964   -4.9712   43.9641 C   0  0  0  0  0  0  0  0  0  0  0  0
   10.0722   -4.6814   46.7411 C   0  0  0  0  0  0  0  0  0  0  0  0
   10.8818   -2.6768   47.6438 C   0  0  2  0  0  0  0  0  0  0  0  0
   11.4386   -5.0078   46.3781 C   0  0  0  0  0  0  0  0  0  0  0  0
   10.6461   -1.2441   47.8324 O   0  0  0  0  0  0  0  0  0  0  0  0
   12.4454   -4.4319   47.1677 C   0  0  0  0  0  0  0  0  0  0  0  0
   12.2929   -2.9035   47.1845 C   0  0  0  0  0  0  0  0  0  0  0  0
  1  2  2  0
  2  3  1  0
  2  4  1  0
  3  5  1  0
  4  6  2  0
  5  7  1  0
  4  8  1  0
  8  9  2  0
  8 10  1  0
  3 11  1  0
 10 11  2  0
  6 12  1  0
  7 13  2  0
 11 14  1  0
 13 15  1  0
 15 16  2  0
 14 17  2  0
  7 18  1  0
 14 18  1  0
  9 19  1  0
 12 19  2  0
 16 20  1  0
 18 20  1  0
  5 21  2  0
 19 22  1  0
 23 22  1  1
 17 24  1  0
 20 24  2  0
 23 25  1  0
 23 26  1  0
 25 27  1  0
 26 28  1  6
 27 29  1  0
 26 30  1  0
 29 30  1  0
M  END
$$$$
O14757_Pocket2Mol_idx-in-all-generaetd-270
     RDKit          3D

 27 30  0  0  0  0  0  0  0  0999 V2000
    5.5575   -0.4055   43.2321 N   0  0  0  0  0  0  0  0  0  0  0  0
    4.5233    0.0727   42.5988 N   0  0  0  0  0  0  0  0  0  0  0  0
    5.1726   -1.5114   43.9314 C   0  0  0  0  0  0  0  0  0  0  0  0
    5.9080   -2.2268   44.9217 C   0  0  0  0  0  0  0  0  0  0  0  0
    5.3635   -3.3861   45.5121 C   0  0  0  0  0  0  0  0  0  0  0  0
    7.1791   -1.7734   45.4544 C   0  0  0  0  0  0  0  0  0  0  0  0
    3.4069   -0.5377   42.5980 C   0  0  0  0  0  0  0  0  0  0  0  0
    2.1839   -0.4257   41.9942 C   0  0  0  0  0  0  0  0  0  0  0  0
    3.7449   -1.7453   43.5024 C   0  0  0  0  0  0  0  0  0  0  0  0
    7.8525   -0.6503   45.0420 O   0  0  0  0  0  0  0  0  0  0  0  0
    7.8789   -2.5576   46.3941 C   0  0  0  0  0  0  0  0  0  0  0  0
    2.8045   -2.7414   43.6928 C   0  0  0  0  0  0  0  0  0  0  0  0
    9.2115   -2.0969   46.8642 C   0  0  0  0  0  0  0  0  0  0  0  0
    4.0793   -3.8977   45.1232 C   0  0  0  0  0  0  0  0  0  0  0  0
    9.4064   -1.6424   47.9232 O   0  0  0  0  0  0  0  0  0  0  0  0
    3.1160   -3.7348   44.5196 N   0  0  0  0  0  0  0  0  0  0  0  0
   10.2271   -2.0181   45.9902 O   0  0  0  0  0  0  0  0  0  0  0  0
    1.5846   -2.6820   43.0143 C   0  0  0  0  0  0  0  0  0  0  0  0
   11.4761   -2.1798   46.4472 C   0  0  0  0  0  0  0  0  0  0  0  0
    7.2409   -3.6513   46.9381 C   0  0  0  0  0  0  0  0  0  0  0  0
    1.2492   -1.5070   42.1695 C   0  0  0  0  0  0  0  0  0  0  0  0
    0.5019   -3.7675   43.1967 C   0  0  0  0  0  0  0  0  0  0  0  0
    6.0495   -4.1366   46.6035 C   0  0  0  0  0  0  0  0  0  0  0  0
   -0.0338   -4.1944   42.0509 O   0  0  0  0  0  0  0  0  0  0  0  0
    0.1450   -4.1044   44.2749 O   0  0  0  0  0  0  0  0  0  0  0  0
   12.4450   -1.3498   45.8065 C   0  0  0  0  0  0  0  0  0  0  0  0
   11.8832   -3.6808   46.2292 C   0  0  0  0  0  0  0  0  0  0  0  0
  1  2  2  0
  1  3  1  0
  3  4  1  0
  4  5  2  0
  4  6  1  0
  2  7  1  0
  7  8  2  0
  3  9  2  0
  7  9  1  0
  6 10  1  0
  6 11  2  0
  9 12  1  0
 11 13  1  0
  5 14  1  0
 13 15  2  0
 12 16  1  0
 14 16  2  0
 13 17  1  0
 12 18  1  0
 17 19  1  0
 11 20  1  0
  8 21  1  0
 18 21  2  0
 18 22  1  0
  5 23  1  0
 20 23  2  0
 22 24  2  0
 22 25  1  0
 19 26  1  0
 19 27  1  0
M  END
$$$$
O14757_Pocket2Mol_idx-in-all-generaetd-271
     RDKit          3D

 41 47  0  0  0  0  0  0  0  0999 V2000
    1.5482   -0.3111   41.9233 C   0  0  0  0  0  0  0  0  0  0  0  0
    2.7284    0.2018   42.1525 N   0  0  0  0  0  0  0  0  0  0  0  0
    3.7893   -0.3016   42.7005 C   0  0  0  0  0  0  0  0  0  0  0  0
    3.3781   -1.7350   43.0000 C   0  0  0  0  0  0  0  0  0  0  0  0
    2.0339   -1.9619   42.6217 C   0  0  0  0  0  0  0  0  0  0  0  0
    4.1166   -2.4997   43.8458 C   0  0  0  0  0  0  0  0  0  0  0  0
    1.1731   -3.0051   42.5773 C   0  0  0  0  0  0  0  0  0  0  0  0
    0.4701   -3.2344   41.4901 C   0  0  0  0  0  0  0  0  0  0  0  0
    5.3799   -1.7814   44.2691 C   0  0  0  0  0  0  0  0  0  0  0  0
    5.0159   -0.0180   43.1201 N   0  0  0  0  0  0  0  0  0  0  0  0
    5.7693   -0.6937   43.8418 C   0  0  0  0  0  0  0  0  0  0  0  0
    0.8078   -3.6166   43.6782 C   0  0  0  0  0  0  0  0  0  0  0  0
    0.0663   -4.7011   43.7415 N   0  0  0  0  0  0  0  0  0  0  0  0
    6.2223   -2.6843   45.1565 C   0  0  0  0  0  0  0  0  0  0  0  0
    6.9599   -0.2351   44.2608 N   0  0  0  0  0  0  0  0  0  0  0  0
    5.9065   -3.9037   45.7499 N   0  0  0  0  0  0  0  0  0  0  0  0
   -0.5459   -5.1185   42.5870 C   0  0  0  0  0  0  0  0  0  0  0  0
    5.7480   -4.0340   46.9810 C   0  0  0  0  0  0  0  0  0  0  0  0
    7.4448   -1.8511   45.4198 C   0  0  0  0  0  0  0  0  0  0  0  0
    7.7572   -0.7827   45.0128 C   0  0  0  0  0  0  0  0  0  0  0  0
    8.4076   -2.7217   46.4541 C   0  0  0  0  0  0  0  0  0  0  0  0
    9.3167   -2.0988   47.1049 N   0  0  0  0  0  0  0  0  0  0  0  0
   -0.4719   -4.3893   41.5406 C   0  0  0  0  0  0  0  0  0  0  0  0
    8.3667   -4.0284   46.5743 N   0  0  0  0  0  0  0  0  0  0  0  0
    9.5309   -4.3147   47.3094 C   0  0  0  0  0  0  0  0  0  0  0  0
    5.3113   -3.3789   47.8005 O   0  0  0  0  0  0  0  0  0  0  0  0
    9.9022   -5.6301   47.7684 C   0  0  0  0  0  0  0  0  0  0  0  0
    5.4470   -5.5868   47.2096 C   0  0  0  0  0  0  0  0  0  0  0  0
   11.2254   -5.8679   48.0402 C   0  0  0  0  0  0  0  0  0  0  0  0
    8.9736   -6.6532   47.8548 C   0  0  0  0  0  0  0  0  0  0  0  0
   10.0616   -3.0670   47.6360 C   0  0  0  0  0  0  0  0  0  0  0  0
    7.5566   -6.3564   47.5477 N   0  0  0  0  0  0  0  0  0  0  0  0
    6.4157   -6.1721   48.0913 C   0  0  0  0  0  0  0  0  0  0  0  0
    9.3646   -7.8782   48.1671 C   0  0  0  0  0  0  0  0  0  0  0  0
   12.3073   -4.8526   47.9155 O   0  0  0  0  0  0  0  0  0  0  0  0
    8.3867   -8.9995   48.3228 C   0  0  0  0  0  0  0  0  0  0  0  0
   13.1568   -4.8915   46.9272 C   0  0  0  0  0  0  0  0  0  0  0  0
   11.6864   -7.0886   48.4553 C   0  0  0  0  0  0  0  0  0  0  0  0
   13.0565   -7.4208   48.7922 O   0  0  0  0  0  0  0  0  0  0  0  0
   13.2453   -8.5552   49.2605 C   0  0  0  0  0  0  0  0  0  0  0  0
   10.7344   -8.1447   48.5646 C   0  0  0  0  0  0  0  0  0  0  0  0
  1  2  1  0
  2  3  2  0
  3  4  1  0
  1  5  2  0
  4  5  1  0
  4  6  2  0
  5  7  1  0
  7  8  2  0
  6  9  1  0
  3 10  1  0
  9 11  2  0
 10 11  1  0
  7 12  1  0
 12 13  2  0
  9 14  1  0
 11 15  1  0
 14 16  1  0
 13 17  1  0
 16 18  1  0
 14 19  2  0
 15 20  2  0
 19 20  1  0
 19 21  1  0
 21 22  2  0
  8 23  1  0
 17 23  2  0
 21 24  1  0
 24 25  1  0
 18 26  2  0
 25 27  1  0
 18 28  1  0
 27 29  2  0
 27 30  1  0
 22 31  1  0
 25 31  2  0
 30 32  1  0
 28 33  1  0
 32 33  1  0
 30 34  2  0
 29 35  1  0
 34 36  1  0
 35 37  1  0
 29 38  1  0
 38 39  1  0
 39 40  1  0
 34 41  1  0
 38 41  2  0
M  END
$$$$
O14757_Pocket2Mol_idx-in-all-generaetd-272
     RDKit          3D

 35 40  0  0  0  0  0  0  0  0999 V2000
    1.5482   -0.3111   41.9233 C   0  0  0  0  0  0  0  0  0  0  0  0
    2.7284    0.2018   42.1525 N   0  0  0  0  0  0  0  0  0  0  0  0
    3.7893   -0.3016   42.7005 C   0  0  0  0  0  0  0  0  0  0  0  0
    3.3781   -1.7350   43.0000 C   0  0  0  0  0  0  0  0  0  0  0  0
    2.0339   -1.9619   42.6217 C   0  0  0  0  0  0  0  0  0  0  0  0
    4.1166   -2.4997   43.8458 C   0  0  0  0  0  0  0  0  0  0  0  0
    1.1731   -3.0051   42.5773 C   0  0  0  0  0  0  0  0  0  0  0  0
    0.4701   -3.2344   41.4901 C   0  0  0  0  0  0  0  0  0  0  0  0
    5.3799   -1.7814   44.2691 C   0  0  0  0  0  0  0  0  0  0  0  0
    5.0159   -0.0180   43.1201 N   0  0  0  0  0  0  0  0  0  0  0  0
    5.7693   -0.6937   43.8418 C   0  0  0  0  0  0  0  0  0  0  0  0
    0.8078   -3.6166   43.6782 C   0  0  0  0  0  0  0  0  0  0  0  0
    0.0663   -4.7011   43.7415 N   0  0  0  0  0  0  0  0  0  0  0  0
    6.2223   -2.6843   45.1565 C   0  0  0  0  0  0  0  0  0  0  0  0
    6.9599   -0.2351   44.2608 N   0  0  0  0  0  0  0  0  0  0  0  0
    5.9065   -3.9037   45.7499 N   0  0  0  0  0  0  0  0  0  0  0  0
   -0.5459   -5.1185   42.5870 C   0  0  0  0  0  0  0  0  0  0  0  0
    5.7480   -4.0340   46.9810 C   0  0  0  0  0  0  0  0  0  0  0  0
    7.4448   -1.8511   45.4198 C   0  0  0  0  0  0  0  0  0  0  0  0
    7.7572   -0.7827   45.0128 C   0  0  0  0  0  0  0  0  0  0  0  0
    8.4076   -2.7217   46.4541 C   0  0  0  0  0  0  0  0  0  0  0  0
    9.3167   -2.0988   47.1049 N   0  0  0  0  0  0  0  0  0  0  0  0
   -0.4719   -4.3893   41.5406 C   0  0  0  0  0  0  0  0  0  0  0  0
    8.3667   -4.0284   46.5743 N   0  0  0  0  0  0  0  0  0  0  0  0
   10.1532   -2.5726   47.9567 C   0  0  0  0  0  0  0  0  0  0  0  0
   11.0726   -1.7892   48.6998 C   0  0  0  0  0  0  0  0  0  0  0  0
   10.4886   -0.9372   49.4584 C   0  0  0  0  0  0  0  0  0  0  0  0
    8.9772   -4.5617   47.6013 C   0  0  0  0  0  0  0  0  0  0  0  0
    9.9765   -3.9922   48.2636 C   0  0  0  0  0  0  0  0  0  0  0  0
   11.3393   -0.1462   50.3539 C   0  0  0  0  0  0  0  0  0  0  0  0
   12.4892   -1.8956   48.4941 C   0  0  0  0  0  0  0  0  0  0  0  0
   13.2944   -1.0338   49.2320 C   0  0  0  0  0  0  0  0  0  0  0  0
   14.7574   -1.1588   49.0944 O   0  0  0  0  0  0  0  0  0  0  0  0
   12.8218   -0.1743   50.2473 C   0  0  0  0  0  0  0  0  0  0  0  0
   15.1592   -0.9530   47.8749 C   0  0  0  0  0  0  0  0  0  0  0  0
  1  2  1  0
  2  3  2  0
  3  4  1  0
  1  5  2  0
  4  5  1  0
  4  6  2  0
  5  7  1  0
  7  8  2  0
  6  9  1  0
  3 10  1  0
  9 11  2  0
 10 11  1  0
  7 12  1  0
 12 13  2  0
  9 14  1  0
 11 15  1  0
 14 16  1  0
 13 17  1  0
 16 18  1  0
 14 19  2  0
 15 20  2  0
 19 20  1  0
 19 21  1  0
 21 22  2  0
  8 23  1  0
 17 23  2  0
 21 24  1  0
 22 25  1  0
 25 26  1  0
 26 27  2  0
 24 28  2  0
 25 29  2  0
 28 29  1  0
 27 30  1  0
 26 31  1  0
 31 32  2  0
 32 33  1  0
 30 34  2  0
 32 34  1  0
 33 35  1  0
M  END
$$$$
O14757_Pocket2Mol_idx-in-all-generaetd-273
     RDKit          3D

 50 57  0  0  0  0  0  0  0  0999 V2000
    5.3420    0.2589   42.8836 O   0  0  0  0  0  0  0  0  0  0  0  0
    5.1627   -0.7554   43.4753 C   0  0  0  0  0  0  0  0  0  0  0  0
    4.0509   -1.4657   43.4177 N   0  0  0  0  0  0  0  0  0  0  0  0
    5.9969   -1.2317   44.6840 C   0  0  0  0  0  0  0  0  0  0  0  0
    2.9618   -1.1021   42.5918 C   0  0  1  0  0  0  0  0  0  0  0  0
    7.3392   -0.8596   44.8412 C   0  0  0  0  0  0  0  0  0  0  0  0
    1.9754   -2.0820   42.2741 C   0  0  0  0  0  0  0  0  0  0  0  0
    5.5910   -2.4282   45.3439 C   0  0  0  0  0  0  0  0  0  0  0  0
    6.5874   -2.9636   46.1581 C   0  0  0  0  0  0  0  0  0  0  0  0
    4.2763   -3.0680   45.0493 N   0  0  0  0  0  0  0  0  0  0  0  0
    3.6188   -2.5886   44.2024 C   0  0  0  0  0  0  0  0  0  0  0  0
    8.1921   -1.4071   45.7505 C   0  0  0  0  0  0  0  0  0  0  0  0
    1.0154   -1.8839   41.2980 C   0  0  0  0  0  0  0  0  0  0  0  0
    2.5720   -3.3564   43.9063 C   0  0  0  0  0  0  0  0  0  0  0  0
    0.2502   -2.8976   41.0751 C   0  0  0  0  0  0  0  0  0  0  0  0
    6.1761   -4.1775   47.0209 C   0  0  0  0  0  0  0  0  0  0  0  0
    1.7266   -3.1047   43.0115 C   0  0  2  0  0  0  0  0  0  0  0  0
    2.3696   -4.5367   44.7536 N   0  0  0  0  0  0  0  0  0  0  0  0
    1.2264   -5.2346   44.4693 C   0  0  0  0  0  0  0  0  0  0  0  0
    0.7187   -3.8955   42.5465 C   0  0  0  0  0  0  0  0  0  0  0  0
    9.4576   -0.8949   46.0327 N   0  0  0  0  0  0  0  0  0  0  0  0
    0.8625   -6.3901   45.2462 C   0  0  0  0  0  0  0  0  0  0  0  0
    7.6467   -2.5139   46.4892 C   0  0  0  0  0  0  0  0  0  0  0  0
   10.4908   -1.5336   45.8242 C   0  0  0  0  0  0  0  0  0  0  0  0
    0.3057   -4.9299   43.2909 C   0  0  0  0  0  0  0  0  0  0  0  0
   11.5916   -1.4291   46.7436 C   0  0  0  0  0  0  0  0  0  0  0  0
   10.5566   -2.3672   44.8649 O   0  0  0  0  0  0  0  0  0  0  0  0
    2.4730    0.2084   42.8389 O   0  0  0  0  0  0  0  0  0  0  0  0
   11.6027   -2.2081   47.7725 N   0  0  0  0  0  0  0  0  0  0  0  0
   12.6189   -0.5862   46.5415 C   0  0  0  0  0  0  0  0  0  0  0  0
   13.6413   -0.4484   47.4129 C   0  0  0  0  0  0  0  0  0  0  0  0
   10.4764   -3.1097   48.1134 C   0  0  0  0  0  0  0  0  0  0  0  0
    9.5762   -2.4717   49.0753 C   0  0  0  0  0  0  0  0  0  0  0  0
    9.7761   -1.2394   49.5167 C   0  0  0  0  0  0  0  0  0  0  0  0
    8.6397   -3.3252   49.7339 C   0  0  0  0  0  0  0  0  0  0  0  0
    8.9861   -0.7034   50.5819 C   0  0  0  0  0  0  0  0  0  0  0  0
   14.7137    0.5128   47.0925 C   0  0  0  0  0  0  0  0  0  0  0  0
    8.3536   -4.6815   49.2042 C   0  0  0  0  0  0  0  0  0  0  0  0
    7.9034   -2.7594   50.6763 C   0  0  0  0  0  0  0  0  0  0  0  0
    6.9327   -5.0150   49.0248 N   0  0  0  0  0  0  0  0  0  0  0  0
    8.1305   -1.4992   51.1482 C   0  0  0  0  0  0  0  0  0  0  0  0
    6.3852   -3.9495   48.3951 C   0  0  0  0  0  0  0  0  0  0  0  0
   13.6768   -1.2836   48.4696 C   0  0  0  0  0  0  0  0  0  0  0  0
   14.7714   -1.2324   49.3357 C   0  0  0  0  0  0  0  0  0  0  0  0
   14.6039    1.3613   46.0092 C   0  0  0  0  0  0  0  0  0  0  0  0
   12.6493   -2.2371   48.6639 C   0  0  0  0  0  0  0  0  0  0  0  0
   14.8829   -2.0104   50.4915 O   0  0  0  0  0  0  0  0  0  0  0  0
   14.9668    0.8083   44.8594 O   0  0  0  0  0  0  0  0  0  0  0  0
   15.7319   -0.4469   49.2517 O   0  0  0  0  0  0  0  0  0  0  0  0
   13.8717    2.3433   45.9789 O   0  0  0  0  0  0  0  0  0  0  0  0
  1  2  2  0
  2  3  1  0
  2  4  1  0
  3  5  1  0
  4  6  2  0
  5  7  1  0
  4  8  1  0
  8  9  2  0
  8 10  1  0
  3 11  1  0
 10 11  2  0
  6 12  1  0
  7 13  2  0
 11 14  1  0
 13 15  1  0
  9 16  1  0
 17  7  1  6
 14 17  1  0
 14 18  2  0
 18 19  1  0
 15 20  2  0
 17 20  1  0
 12 21  1  0
 19 22  1  0
  9 23  1  0
 12 23  2  0
 21 24  1  0
 19 25  2  0
 20 25  1  0
 24 26  1  0
 24 27  2  0
  5 28  1  1
 26 29  1  0
 26 30  2  0
 30 31  1  0
 29 32  1  0
 32 33  1  0
 33 34  1  0
 33 35  2  0
 34 36  2  0
 31 37  1  0
 35 38  1  0
 35 39  1  0
 38 40  1  0
 36 41  1  0
 39 41  2  0
 16 42  1  0
 40 42  1  0
 31 43  2  0
 43 44  1  0
 37 45  1  0
 29 46  1  0
 43 46  1  0
 44 47  1  0
 45 48  2  0
 44 49  2  0
 45 50  1  0
M  END
$$$$
O14757_Pocket2Mol_idx-in-all-generaetd-274
     RDKit          3D

 40 47  0  0  0  0  0  0  0  0999 V2000
    1.5482   -0.3111   41.9233 C   0  0  0  0  0  0  0  0  0  0  0  0
    2.7284    0.2018   42.1525 N   0  0  0  0  0  0  0  0  0  0  0  0
    3.7893   -0.3016   42.7005 C   0  0  0  0  0  0  0  0  0  0  0  0
    3.3781   -1.7350   43.0000 C   0  0  0  0  0  0  0  0  0  0  0  0
    2.0339   -1.9619   42.6217 C   0  0  0  0  0  0  0  0  0  0  0  0
    4.1166   -2.4997   43.8458 C   0  0  0  0  0  0  0  0  0  0  0  0
    1.1731   -3.0051   42.5773 C   0  0  0  0  0  0  0  0  0  0  0  0
    0.4701   -3.2344   41.4901 C   0  0  0  0  0  0  0  0  0  0  0  0
    5.3799   -1.7814   44.2691 C   0  0  0  0  0  0  0  0  0  0  0  0
    5.0159   -0.0180   43.1201 N   0  0  0  0  0  0  0  0  0  0  0  0
    5.7693   -0.6937   43.8418 C   0  0  0  0  0  0  0  0  0  0  0  0
    0.8078   -3.6166   43.6782 C   0  0  0  0  0  0  0  0  0  0  0  0
    0.0663   -4.7011   43.7415 N   0  0  0  0  0  0  0  0  0  0  0  0
    6.2223   -2.6843   45.1565 C   0  0  0  0  0  0  0  0  0  0  0  0
    6.9599   -0.2351   44.2608 N   0  0  0  0  0  0  0  0  0  0  0  0
    5.9065   -3.9037   45.7499 N   0  0  0  0  0  0  0  0  0  0  0  0
   -0.5459   -5.1185   42.5870 C   0  0  0  0  0  0  0  0  0  0  0  0
    5.7480   -4.0340   46.9810 C   0  0  0  0  0  0  0  0  0  0  0  0
    7.4448   -1.8511   45.4198 C   0  0  0  0  0  0  0  0  0  0  0  0
    7.7572   -0.7827   45.0128 C   0  0  0  0  0  0  0  0  0  0  0  0
    8.4076   -2.7217   46.4541 C   0  0  0  0  0  0  0  0  0  0  0  0
    9.3167   -2.0988   47.1049 N   0  0  0  0  0  0  0  0  0  0  0  0
   -0.4719   -4.3893   41.5406 C   0  0  0  0  0  0  0  0  0  0  0  0
    8.3667   -4.0284   46.5743 N   0  0  0  0  0  0  0  0  0  0  0  0
    9.5309   -4.3147   47.3094 C   0  0  0  0  0  0  0  0  0  0  0  0
    5.3113   -3.3789   47.8005 O   0  0  0  0  0  0  0  0  0  0  0  0
    9.9022   -5.6301   47.7684 C   0  0  0  0  0  0  0  0  0  0  0  0
    5.4470   -5.5868   47.2096 C   0  0  0  0  0  0  0  0  0  0  0  0
   11.2254   -5.8679   48.0402 C   0  0  0  0  0  0  0  0  0  0  0  0
    8.9736   -6.6532   47.8548 C   0  0  0  0  0  0  0  0  0  0  0  0
   10.0616   -3.0670   47.6360 C   0  0  0  0  0  0  0  0  0  0  0  0
    7.5566   -6.3564   47.5477 N   0  0  0  0  0  0  0  0  0  0  0  0
    6.4157   -6.1721   48.0913 C   0  0  0  0  0  0  0  0  0  0  0  0
   12.3275   -4.8510   47.9324 C   0  0  0  0  0  0  0  0  0  0  0  0
    9.4585   -7.9662   48.0726 C   0  0  0  0  0  0  0  0  0  0  0  0
   11.5288   -2.7910   48.1740 C   0  0  0  0  0  0  0  0  0  0  0  0
   11.6989   -7.1590   48.3688 C   0  0  0  0  0  0  0  0  0  0  0  0
   13.5698   -5.4689   47.7894 O   0  0  0  0  0  0  0  0  0  0  0  0
   12.1939   -3.5900   48.0995 N   0  0  0  0  0  0  0  0  0  0  0  0
   10.7983   -8.0891   48.3686 C   0  0  0  0  0  0  0  0  0  0  0  0
  1  2  1  0
  2  3  2  0
  3  4  1  0
  1  5  2  0
  4  5  1  0
  4  6  2  0
  5  7  1  0
  7  8  2  0
  6  9  1  0
  3 10  1  0
  9 11  2  0
 10 11  1  0
  7 12  1  0
 12 13  2  0
  9 14  1  0
 11 15  1  0
 14 16  1  0
 13 17  1  0
 16 18  1  0
 14 19  2  0
 15 20  2  0
 19 20  1  0
 19 21  1  0
 21 22  2  0
  8 23  1  0
 17 23  2  0
 21 24  1  0
 24 25  1  0
 18 26  2  0
 25 27  1  0
 18 28  1  0
 27 29  2  0
 27 30  1  0
 22 31  1  0
 25 31  2  0
 30 32  1  0
 28 33  1  0
 32 33  1  0
 29 34  1  0
 30 35  2  0
 31 36  1  0
 29 37  1  0
 34 38  2  0
 34 39  1  0
 36 39  2  0
 35 40  1  0
 37 40  2  0
M  END
$$$$
O14757_Pocket2Mol_idx-in-all-generaetd-275
     RDKit          3D

 34 39  0  0  0  0  0  0  0  0999 V2000
    1.5482   -0.3111   41.9233 C   0  0  0  0  0  0  0  0  0  0  0  0
    2.7284    0.2018   42.1525 N   0  0  0  0  0  0  0  0  0  0  0  0
    3.7893   -0.3016   42.7005 C   0  0  0  0  0  0  0  0  0  0  0  0
    3.3781   -1.7350   43.0000 C   0  0  0  0  0  0  0  0  0  0  0  0
    2.0339   -1.9619   42.6217 C   0  0  0  0  0  0  0  0  0  0  0  0
    4.1166   -2.4997   43.8458 C   0  0  0  0  0  0  0  0  0  0  0  0
    1.1731   -3.0051   42.5773 C   0  0  0  0  0  0  0  0  0  0  0  0
    0.4701   -3.2344   41.4901 C   0  0  0  0  0  0  0  0  0  0  0  0
    5.3799   -1.7814   44.2691 C   0  0  0  0  0  0  0  0  0  0  0  0
    5.0159   -0.0180   43.1201 N   0  0  0  0  0  0  0  0  0  0  0  0
    5.7693   -0.6937   43.8418 C   0  0  0  0  0  0  0  0  0  0  0  0
    0.8078   -3.6166   43.6782 C   0  0  0  0  0  0  0  0  0  0  0  0
    0.0663   -4.7011   43.7415 N   0  0  0  0  0  0  0  0  0  0  0  0
    6.2223   -2.6843   45.1565 C   0  0  0  0  0  0  0  0  0  0  0  0
    6.9599   -0.2351   44.2608 N   0  0  0  0  0  0  0  0  0  0  0  0
    5.9065   -3.9037   45.7499 N   0  0  0  0  0  0  0  0  0  0  0  0
   -0.5459   -5.1185   42.5870 C   0  0  0  0  0  0  0  0  0  0  0  0
    5.7480   -4.0340   46.9810 C   0  0  0  0  0  0  0  0  0  0  0  0
    7.4448   -1.8511   45.4198 C   0  0  0  0  0  0  0  0  0  0  0  0
    7.7572   -0.7827   45.0128 C   0  0  0  0  0  0  0  0  0  0  0  0
    8.4076   -2.7217   46.4541 C   0  0  0  0  0  0  0  0  0  0  0  0
    9.3167   -2.0988   47.1049 N   0  0  0  0  0  0  0  0  0  0  0  0
   -0.4719   -4.3893   41.5406 C   0  0  0  0  0  0  0  0  0  0  0  0
    5.0887   -3.4849   47.7878 O   0  0  0  0  0  0  0  0  0  0  0  0
    6.6862   -5.0913   47.4809 C   0  0  0  0  0  0  0  0  0  0  0  0
    8.0012   -4.4642   47.9733 C   0  0  0  0  0  0  0  0  0  0  0  0
    8.3252   -3.8858   46.6511 O   0  0  0  0  0  0  0  0  0  0  0  0
   10.2305   -2.8903   47.7858 O   0  0  0  0  0  0  0  0  0  0  0  0
   11.5307   -2.6759   47.2852 C   0  0  0  0  0  0  0  0  0  0  0  0
   11.7232   -3.0362   46.0071 C   0  0  0  0  0  0  0  0  0  0  0  0
   12.0298   -1.4129   47.7923 C   0  0  0  0  0  0  0  0  0  0  0  0
   13.2993   -1.0524   47.2189 C   0  0  0  0  0  0  0  0  0  0  0  0
   13.0901   -2.6687   45.4161 C   0  0  0  0  0  0  0  0  0  0  0  0
   13.4062   -1.2973   45.7434 C   0  0  0  0  0  0  0  0  0  0  0  0
  1  2  1  0
  2  3  2  0
  3  4  1  0
  1  5  2  0
  4  5  1  0
  4  6  2  0
  5  7  1  0
  7  8  2  0
  6  9  1  0
  3 10  1  0
  9 11  2  0
 10 11  1  0
  7 12  1  0
 12 13  2  0
  9 14  1  0
 11 15  1  0
 14 16  1  0
 13 17  1  0
 16 18  1  0
 14 19  2  0
 15 20  2  0
 19 20  1  0
 19 21  1  0
 21 22  2  3
  8 23  1  0
 17 23  2  0
 18 24  2  0
 18 25  1  0
 25 26  1  0
 21 27  1  0
 26 27  1  0
 22 28  1  0
 28 29  1  0
 29 30  1  0
 29 31  1  0
 31 32  1  0
 30 33  1  0
 32 34  1  0
 33 34  1  0
M  END
$$$$
O14757_Pocket2Mol_idx-in-all-generaetd-276
     RDKit          3D

 22 23  0  0  0  0  0  0  0  0999 V2000
    5.5575   -0.4055   43.2321 N   0  0  0  0  0  0  0  0  0  0  0  0
    4.3352   -0.4199   42.8749 C   0  0  0  0  0  0  0  0  0  0  0  0
    5.9990   -1.3122   44.1764 C   0  0  0  0  0  0  0  0  0  0  0  0
    3.4120   -1.4389   43.1188 C   0  0  0  0  0  0  0  0  0  0  0  0
    3.8361   -2.4046   43.9422 C   0  0  0  0  0  0  0  0  0  0  0  0
    5.1679   -2.3747   44.5447 C   0  0  0  0  0  0  0  0  0  0  0  0
    3.0502   -3.5480   44.2767 N   0  0  0  0  0  0  0  0  0  0  0  0
    2.0554   -1.5626   42.6416 C   0  0  0  0  0  0  0  0  0  0  0  0
    5.7066   -3.3299   45.4765 C   0  0  0  0  0  0  0  0  0  0  0  0
    3.7427    0.5760   42.0003 N   0  0  0  0  0  0  0  0  0  0  0  0
    4.9790   -3.9414   46.1775 O   0  0  0  0  0  0  0  0  0  0  0  0
    7.0173   -3.0376   45.8484 N   0  0  0  0  0  0  0  0  0  0  0  0
    1.3468   -2.6561   42.5594 C   0  0  0  0  0  0  0  0  0  0  0  0
    1.8548   -3.6188   43.5814 C   0  0  0  0  0  0  0  0  0  0  0  0
    0.1121   -2.8705   41.8647 C   0  0  0  0  0  0  0  0  0  0  0  0
   -0.0333   -4.0085   41.3088 O   0  0  0  0  0  0  0  0  0  0  0  0
   -0.7265   -1.9501   41.6394 O   0  0  0  0  0  0  0  0  0  0  0  0
    7.6791   -3.9358   46.8241 C   0  0  0  0  0  0  0  0  0  0  0  0
    8.0479   -3.2371   47.9570 C   0  0  0  0  0  0  0  0  0  0  0  0
    9.1219   -2.2287   47.8950 C   0  0  0  0  0  0  0  0  0  0  0  0
    9.4560   -1.9381   46.5954 O   0  0  0  0  0  0  0  0  0  0  0  0
    9.6064   -0.6329   46.1922 C   0  0  0  0  0  0  0  0  0  0  0  0
  1  2  2  0
  1  3  1  0
  2  4  1  0
  4  5  2  0
  3  6  2  0
  5  6  1  0
  5  7  1  0
  4  8  1  0
  6  9  1  0
  2 10  1  0
  9 11  2  0
  9 12  1  0
  8 13  2  0
  7 14  2  0
 13 14  1  0
 13 15  1  0
 15 16  2  0
 15 17  1  0
 12 18  1  0
 18 19  1  0
 19 20  1  0
 20 21  1  0
 21 22  1  0
M  END
$$$$
O14757_Pocket2Mol_idx-in-all-generaetd-277
     RDKit          3D

 28 33  0  0  0  0  0  0  0  0999 V2000
    4.8037   -0.1366   42.7100 N   0  0  0  0  0  0  0  0  0  0  0  0
    3.6577   -0.7759   42.7186 C   0  0  0  0  0  0  0  0  0  0  0  0
    3.6660   -1.8665   43.4760 C   0  0  0  0  0  0  0  0  0  0  0  0
    2.7271   -2.8718   43.6599 C   0  0  0  0  0  0  0  0  0  0  0  0
    2.4846   -0.2994   42.1254 N   0  0  0  0  0  0  0  0  0  0  0  0
    5.0524   -1.7697   43.9367 C   0  0  0  0  0  0  0  0  0  0  0  0
    1.4917   -2.9000   43.0914 C   0  0  0  0  0  0  0  0  0  0  0  0
    3.1274   -3.9503   44.5163 C   0  0  0  0  0  0  0  0  0  0  0  0
    1.0744   -1.9066   42.1491 C   0  0  2  0  0  0  0  0  0  0  0  0
    5.6624   -0.7003   43.4895 C   0  0  0  0  0  0  0  0  0  0  0  0
    5.5753   -2.5784   45.0324 C   0  0  0  0  0  0  0  0  0  0  0  0
    0.4030   -3.6297   43.4883 N   0  0  0  0  0  0  0  0  0  0  0  0
    1.5052   -0.8077   41.7519 C   0  0  0  0  0  0  0  0  0  0  0  0
   -0.5645   -3.4039   42.5585 N   0  0  0  0  0  0  0  0  0  0  0  0
    2.5059   -5.1012   44.7935 C   0  0  0  0  0  0  0  0  0  0  0  0
    4.4581   -3.8218   45.2947 C   0  0  0  0  0  0  0  0  0  0  0  0
   -0.3089   -2.3979   41.8128 C   0  0  0  0  0  0  0  0  0  0  0  0
    6.6435   -2.6577   45.6991 C   0  0  0  0  0  0  0  0  0  0  0  0
    7.0869   -3.7008   46.4717 C   0  0  0  0  0  0  0  0  0  0  0  0
    7.5912   -1.5296   45.5455 C   0  0  0  0  0  0  0  0  0  0  0  0
    8.7765   -1.4352   46.2248 C   0  0  0  0  0  0  0  0  0  0  0  0
    6.3069   -4.7944   46.6836 O   0  0  0  0  0  0  0  0  0  0  0  0
    4.8984   -4.5252   46.1302 C   0  0  0  0  0  0  0  0  0  0  0  0
    9.6034   -0.3601   46.1107 O   0  0  0  0  0  0  0  0  0  0  0  0
    8.3110   -3.6697   47.1583 C   0  0  0  0  0  0  0  0  0  0  0  0
    8.7295   -4.7717   47.9929 O   0  0  0  0  0  0  0  0  0  0  0  0
    9.1986   -2.5567   47.0561 C   0  0  0  0  0  0  0  0  0  0  0  0
    9.6367   -5.5320   47.5431 C   0  0  0  0  0  0  0  0  0  0  0  0
  1  2  2  0
  2  3  1  0
  3  4  2  0
  2  5  1  0
  3  6  1  0
  4  7  1  0
  4  8  1  0
  7  9  1  0
  1 10  1  0
  6 10  1  0
  6 11  2  0
  7 12  2  0
  5 13  2  0
  9 13  1  1
 12 14  1  0
  8 15  1  0
  8 16  2  0
 11 16  1  0
  9 17  1  0
 14 17  2  0
 11 18  1  0
 18 19  2  0
 18 20  1  0
 20 21  2  0
 19 22  1  0
 16 23  1  0
 22 23  1  0
 21 24  1  0
 19 25  1  0
 25 26  1  0
 21 27  1  0
 25 27  2  0
 26 28  1  0
M  END
$$$$
O14757_Pocket2Mol_idx-in-all-generaetd-278
     RDKit          3D

 30 35  0  0  0  0  0  0  0  0999 V2000
    5.5575   -0.4055   43.2321 N   0  0  0  0  0  0  0  0  0  0  0  0
    4.5233    0.0727   42.5988 N   0  0  0  0  0  0  0  0  0  0  0  0
    5.1726   -1.5114   43.9314 C   0  0  0  0  0  0  0  0  0  0  0  0
    5.9080   -2.2268   44.9217 C   0  0  0  0  0  0  0  0  0  0  0  0
    5.3635   -3.3861   45.5121 C   0  0  0  0  0  0  0  0  0  0  0  0
    7.1791   -1.7734   45.4544 C   0  0  0  0  0  0  0  0  0  0  0  0
    3.4069   -0.5377   42.5980 C   0  0  0  0  0  0  0  0  0  0  0  0
    2.1839   -0.4257   41.9942 C   0  0  0  0  0  0  0  0  0  0  0  0
    3.7449   -1.7453   43.5024 C   0  0  0  0  0  0  0  0  0  0  0  0
    7.8525   -0.6503   45.0420 O   0  0  0  0  0  0  0  0  0  0  0  0
    7.8789   -2.5576   46.3941 C   0  0  0  0  0  0  0  0  0  0  0  0
    2.8045   -2.7414   43.6928 C   0  0  1  0  0  0  0  0  0  0  0  0
    9.2115   -2.0969   46.8642 C   0  0  0  0  0  0  0  0  0  0  0  0
    4.0793   -3.8977   45.1232 C   0  0  1  0  0  0  0  0  0  0  0  0
    7.1913   -3.6941   46.9496 C   0  0  0  0  0  0  0  0  0  0  0  0
    6.0590   -4.0757   46.5019 C   0  0  0  0  0  0  0  0  0  0  0  0
    1.6490   -2.6373   42.8534 C   0  0  0  0  0  0  0  0  0  0  0  0
    0.5956   -3.6893   42.8101 C   0  0  0  0  0  0  0  0  0  0  0  0
    9.3005   -1.4726   47.8971 O   0  0  0  0  0  0  0  0  0  0  0  0
    1.3376   -1.5114   42.0773 C   0  0  0  0  0  0  0  0  0  0  0  0
    3.0680   -3.8779   44.4095 C   0  0  1  0  0  0  0  0  0  0  0  0
    0.6235   -4.4716   43.7755 C   0  0  0  0  0  0  0  0  0  0  0  0
    1.9482   -4.8212   44.4690 N   0  0  0  0  0  0  0  0  0  0  0  0
    2.2980   -5.9094   45.3439 C   0  0  0  0  0  0  0  0  0  0  0  0
    3.9139   -5.2979   45.9567 C   0  0  0  0  0  0  0  0  0  0  0  0
   10.2096   -2.4213   46.1194 N   0  0  0  0  0  0  0  0  0  0  0  0
   11.5515   -2.0818   46.5303 C   0  0  0  0  0  0  0  0  0  0  0  0
   12.2461   -1.2417   45.7316 C   0  0  0  0  0  0  0  0  0  0  0  0
   12.3241   -1.6276   44.4595 O   0  0  0  0  0  0  0  0  0  0  0  0
   13.3326   -0.5418   46.2077 O   0  0  0  0  0  0  0  0  0  0  0  0
  1  2  2  0
  1  3  1  0
  3  4  1  0
  4  5  2  0
  4  6  1  0
  2  7  1  0
  7  8  2  0
  3  9  2  0
  7  9  1  0
  6 10  1  0
  6 11  2  0
  9 12  1  0
 11 13  1  0
  5 14  1  0
 11 15  1  0
  5 16  1  0
 15 16  2  0
 12 17  1  6
 17 18  1  0
 13 19  2  0
  8 20  1  0
 17 20  2  0
 12 21  1  0
 14 21  1  0
 18 22  1  0
 21 23  1  1
 22 23  1  0
 23 24  1  0
 14 25  1  6
 24 25  1  0
 13 26  1  0
 26 27  1  0
 27 28  1  0
 28 29  1  0
 28 30  2  0
M  END
$$$$
O14757_Pocket2Mol_idx-in-all-generaetd-279
     RDKit          3D

 39 45  0  0  0  0  0  0  0  0999 V2000
    1.5482   -0.3111   41.9233 C   0  0  0  0  0  0  0  0  0  0  0  0
    2.7284    0.2018   42.1525 N   0  0  0  0  0  0  0  0  0  0  0  0
    3.7893   -0.3016   42.7005 C   0  0  0  0  0  0  0  0  0  0  0  0
    3.3781   -1.7350   43.0000 C   0  0  0  0  0  0  0  0  0  0  0  0
    2.0339   -1.9619   42.6217 C   0  0  0  0  0  0  0  0  0  0  0  0
    4.1166   -2.4997   43.8458 C   0  0  0  0  0  0  0  0  0  0  0  0
    1.1731   -3.0051   42.5773 C   0  0  0  0  0  0  0  0  0  0  0  0
    0.4701   -3.2344   41.4901 C   0  0  0  0  0  0  0  0  0  0  0  0
    5.3799   -1.7814   44.2691 C   0  0  0  0  0  0  0  0  0  0  0  0
    5.0159   -0.0180   43.1201 N   0  0  0  0  0  0  0  0  0  0  0  0
    5.7693   -0.6937   43.8418 C   0  0  0  0  0  0  0  0  0  0  0  0
    0.8078   -3.6166   43.6782 C   0  0  0  0  0  0  0  0  0  0  0  0
    0.0663   -4.7011   43.7415 N   0  0  0  0  0  0  0  0  0  0  0  0
    6.2223   -2.6843   45.1565 C   0  0  0  0  0  0  0  0  0  0  0  0
    1.4459   -3.3095   45.0236 O   0  0  0  0  0  0  0  0  0  0  0  0
   -0.5278   -5.1074   42.5506 C   0  0  0  0  0  0  0  0  0  0  0  0
   -1.3099   -6.2193   42.5332 N   0  0  0  0  0  0  0  0  0  0  0  0
   -0.3906   -4.3573   41.3904 C   0  0  0  0  0  0  0  0  0  0  0  0
    7.0535   -0.4845   44.4478 N   0  0  0  0  0  0  0  0  0  0  0  0
    0.6210   -3.8397   46.1835 C   0  0  0  0  0  0  0  0  0  0  0  0
    6.2906   -3.7888   45.8815 C   0  0  0  0  0  0  0  0  0  0  0  0
    7.3965   -1.5466   45.3147 C   0  0  0  0  0  0  0  0  0  0  0  0
    5.1449   -4.4973   46.0473 O   0  0  0  0  0  0  0  0  0  0  0  0
    7.4148   -4.1081   46.6372 C   0  0  0  0  0  0  0  0  0  0  0  0
    8.5011   -3.1747   46.6693 C   0  0  0  0  0  0  0  0  0  0  0  0
    8.4580   -1.9168   46.0438 C   0  0  0  0  0  0  0  0  0  0  0  0
    9.8193   -3.4927   47.5654 C   0  0  0  0  0  0  0  0  0  0  0  0
    4.3482   -4.5667   47.1383 C   0  0  0  0  0  0  0  0  0  0  0  0
   10.8925   -3.4519   46.9633 C   0  0  0  0  0  0  0  0  0  0  0  0
   11.7691   -2.4393   47.2298 N   0  0  0  0  0  0  0  0  0  0  0  0
   11.2139   -4.2187   45.9637 O   0  0  0  0  0  0  0  0  0  0  0  0
   11.4211   -1.3352   48.1062 C   0  0  0  0  0  0  0  0  0  0  0  0
   12.9700   -2.0259   46.3630 C   0  0  2  0  0  0  0  0  0  0  0  0
   14.1908   -2.4014   46.9102 C   0  0  0  0  0  0  0  0  0  0  0  0
   12.9777   -0.6793   45.9217 C   0  0  0  0  0  0  0  0  0  0  0  0
   13.5043    0.1496   47.0311 C   0  0  1  0  0  0  0  0  0  0  0  0
   12.7033   -0.2435   48.2695 C   0  0  0  0  0  0  0  0  0  0  0  0
   15.1219   -1.4503   47.3287 C   0  0  0  0  0  0  0  0  0  0  0  0
   14.8769   -0.0362   47.2603 C   0  0  0  0  0  0  0  0  0  0  0  0
  1  2  1  0
  2  3  2  0
  3  4  1  0
  1  5  2  0
  4  5  1  0
  4  6  2  0
  5  7  1  0
  7  8  2  0
  6  9  1  0
  3 10  1  0
  9 11  1  0
 10 11  1  0
  7 12  1  0
 12 13  2  0
  9 14  2  0
 12 15  1  0
 13 16  1  0
 16 17  1  0
  8 18  1  0
 16 18  2  0
 11 19  2  0
 15 20  1  0
 14 21  1  0
 14 22  1  0
 19 22  1  0
 21 23  1  0
 21 24  2  0
 24 25  1  0
 22 26  2  0
 25 26  2  0
 25 27  1  0
 23 28  1  0
 27 29  1  0
 29 30  1  0
 29 31  2  0
 30 32  1  0
 30 33  1  0
 33 34  1  1
 33 35  1  0
 35 36  1  0
 32 37  1  0
 36 37  1  1
 34 38  1  0
 36 39  1  0
 38 39  1  0
M  END
$$$$
O14757_Pocket2Mol_idx-in-all-generaetd-280
     RDKit          3D

 35 40  0  0  0  0  0  0  0  0999 V2000
    1.5482   -0.3111   41.9233 C   0  0  0  0  0  0  0  0  0  0  0  0
    2.7284    0.2018   42.1525 N   0  0  0  0  0  0  0  0  0  0  0  0
    3.7893   -0.3016   42.7005 C   0  0  0  0  0  0  0  0  0  0  0  0
    3.3781   -1.7350   43.0000 C   0  0  0  0  0  0  0  0  0  0  0  0
    2.0339   -1.9619   42.6217 C   0  0  0  0  0  0  0  0  0  0  0  0
    4.1166   -2.4997   43.8458 C   0  0  0  0  0  0  0  0  0  0  0  0
    1.1731   -3.0051   42.5773 C   0  0  0  0  0  0  0  0  0  0  0  0
    0.4701   -3.2344   41.4901 C   0  0  0  0  0  0  0  0  0  0  0  0
    5.3799   -1.7814   44.2691 C   0  0  0  0  0  0  0  0  0  0  0  0
    5.0159   -0.0180   43.1201 N   0  0  0  0  0  0  0  0  0  0  0  0
    5.7693   -0.6937   43.8418 C   0  0  0  0  0  0  0  0  0  0  0  0
    0.8078   -3.6166   43.6782 C   0  0  0  0  0  0  0  0  0  0  0  0
    0.0663   -4.7011   43.7415 N   0  0  0  0  0  0  0  0  0  0  0  0
    6.2223   -2.6843   45.1565 C   0  0  0  0  0  0  0  0  0  0  0  0
    6.9599   -0.2351   44.2608 N   0  0  0  0  0  0  0  0  0  0  0  0
    5.9065   -3.9037   45.7499 N   0  0  0  0  0  0  0  0  0  0  0  0
   -0.5459   -5.1185   42.5870 C   0  0  0  0  0  0  0  0  0  0  0  0
    5.7480   -4.0340   46.9810 C   0  0  0  0  0  0  0  0  0  0  0  0
    7.4448   -1.8511   45.4198 C   0  0  0  0  0  0  0  0  0  0  0  0
    7.7572   -0.7827   45.0128 C   0  0  0  0  0  0  0  0  0  0  0  0
    8.4076   -2.7217   46.4541 C   0  0  0  0  0  0  0  0  0  0  0  0
    9.3167   -2.0988   47.1049 N   0  0  0  0  0  0  0  0  0  0  0  0
   -0.4719   -4.3893   41.5406 C   0  0  0  0  0  0  0  0  0  0  0  0
    8.3667   -4.0284   46.5743 N   0  0  0  0  0  0  0  0  0  0  0  0
    9.5309   -4.3147   47.3094 C   0  0  0  0  0  0  0  0  0  0  0  0
    5.3113   -3.3789   47.8005 O   0  0  0  0  0  0  0  0  0  0  0  0
    9.9022   -5.6301   47.7684 C   0  0  0  0  0  0  0  0  0  0  0  0
    5.4470   -5.5868   47.2096 C   0  0  0  0  0  0  0  0  0  0  0  0
   11.2254   -5.8679   48.0402 C   0  0  0  0  0  0  0  0  0  0  0  0
    8.9736   -6.6532   47.8548 C   0  0  0  0  0  0  0  0  0  0  0  0
   10.0304   -3.0313   47.6499 C   0  0  0  0  0  0  0  0  0  0  0  0
    9.2796   -7.8883   48.2003 C   0  0  0  0  0  0  0  0  0  0  0  0
   11.5958   -6.9956   48.2332 C   0  0  0  0  0  0  0  0  0  0  0  0
   13.0330   -7.4255   48.6316 O   0  0  0  0  0  0  0  0  0  0  0  0
   10.7766   -8.2427   48.5583 C   0  0  0  0  0  0  0  0  0  0  0  0
  1  2  1  0
  2  3  2  0
  3  4  1  0
  1  5  2  0
  4  5  1  0
  4  6  2  0
  5  7  1  0
  7  8  2  0
  6  9  1  0
  3 10  1  0
  9 11  2  0
 10 11  1  0
  7 12  1  0
 12 13  2  0
  9 14  1  0
 11 15  1  0
 14 16  1  0
 13 17  1  0
 16 18  1  0
 14 19  2  0
 15 20  2  0
 19 20  1  0
 19 21  1  0
 21 22  2  0
  8 23  1  0
 17 23  2  0
 21 24  1  0
 24 25  1  0
 18 26  2  0
 25 27  1  0
 18 28  1  0
 27 29  2  0
 27 30  1  0
 22 31  1  0
 25 31  2  0
 30 32  2  0
 29 33  1  0
 33 34  1  0
 32 35  1  0
 33 35  2  0
M  END
$$$$
O14757_Pocket2Mol_idx-in-all-generaetd-281
     RDKit          3D

 27 31  0  0  0  0  0  0  0  0999 V2000
    5.3420    0.2589   42.8836 N   0  0  0  0  0  0  0  0  0  0  0  0
    5.6740   -0.8311   43.5645 C   0  0  0  0  0  0  0  0  0  0  0  0
    6.8416   -0.9240   44.3627 N   0  0  0  0  0  0  0  0  0  0  0  0
    4.1141    0.2821   42.2689 C   0  0  0  0  0  0  0  0  0  0  0  0
    3.2237   -0.7484   42.3921 N   0  0  0  0  0  0  0  0  0  0  0  0
    6.8097   -1.9585   45.3182 C   0  0  0  0  0  0  0  0  0  0  0  0
    3.5007   -1.8060   43.1511 C   0  0  0  0  0  0  0  0  0  0  0  0
    4.7020   -1.8573   43.8328 C   0  0  0  0  0  0  0  0  0  0  0  0
    5.4887   -2.6670   44.9856 C   0  0  0  0  0  0  0  0  0  0  0  0
    2.5208   -2.8458   43.2671 C   0  0  0  0  0  0  0  0  0  0  0  0
    2.6558   -3.8570   44.2541 C   0  0  0  0  0  0  0  0  0  0  0  0
    7.6468   -2.3589   46.2854 C   0  0  0  0  0  0  0  0  0  0  0  0
    3.8579   -4.1296   44.9532 N   0  0  0  0  0  0  0  0  0  0  0  0
    1.3096   -2.7520   42.6410 C   0  0  0  0  0  0  0  0  0  0  0  0
    4.9776   -3.8402   45.4939 C   0  0  0  0  0  0  0  0  0  0  0  0
    0.9912   -1.7393   41.6079 C   0  0  0  0  0  0  0  0  0  0  0  0
    1.5259   -4.6645   44.4644 C   0  0  0  0  0  0  0  0  0  0  0  0
    8.7139   -1.5535   46.4661 C   0  0  0  0  0  0  0  0  0  0  0  0
    0.4108   -4.5978   43.8261 C   0  0  0  0  0  0  0  0  0  0  0  0
    0.2723   -3.6471   42.8519 C   0  0  0  0  0  0  0  0  0  0  0  0
    8.9754   -0.4915   45.6953 O   0  0  0  0  0  0  0  0  0  0  0  0
    7.5178   -3.6030   46.9556 C   0  0  0  0  0  0  0  0  0  0  0  0
    9.6743   -1.8921   47.4216 C   0  0  0  0  0  0  0  0  0  0  0  0
    8.3047   -3.8557   47.9435 C   0  0  0  0  0  0  0  0  0  0  0  0
    8.2251   -5.1110   48.8054 O   0  0  0  0  0  0  0  0  0  0  0  0
    8.2839   -5.1054   50.0525 C   0  0  0  0  0  0  0  0  0  0  0  0
    9.4766   -2.9974   48.2380 C   0  0  0  0  0  0  0  0  0  0  0  0
  1  2  2  0
  2  3  1  0
  1  4  1  0
  4  5  2  0
  3  6  1  0
  5  7  1  0
  2  8  1  0
  7  8  2  0
  6  9  2  0
  8  9  1  0
  7 10  1  0
 10 11  2  0
  6 12  1  0
 11 13  1  0
 10 14  1  0
  9 15  1  0
 13 15  1  0
 14 16  1  0
 11 17  1  0
 12 18  2  0
 17 19  2  0
 14 20  2  0
 19 20  1  0
 18 21  1  0
 12 22  1  0
 18 23  1  0
 22 24  2  0
 24 25  1  0
 25 26  1  0
 23 27  2  0
 24 27  1  0
M  END
$$$$
O14757_Pocket2Mol_idx-in-all-generaetd-282
     RDKit          3D

 43 51  0  0  0  0  0  0  0  0999 V2000
    4.8173    0.2791   42.6993 N   0  0  0  0  0  0  0  0  0  0  0  0
    5.3297   -0.7477   43.3688 C   0  0  0  0  0  0  0  0  0  0  0  0
    3.4732   -0.2235   42.4530 C   0  0  0  0  0  0  0  0  0  0  0  0
    4.4984   -1.7876   43.6214 C   0  0  0  0  0  0  0  0  0  0  0  0
    3.3438   -1.5190   42.9379 C   0  0  0  0  0  0  0  0  0  0  0  0
    2.1381   -2.3401   42.8254 C   0  0  0  0  0  0  0  0  0  0  0  0
    2.3894    0.3572   41.9843 N   0  0  0  0  0  0  0  0  0  0  0  0
    4.9180   -3.0430   44.3829 C   0  0  0  0  0  0  0  0  0  0  0  0
    5.9444   -2.9314   45.3934 C   0  0  0  0  0  0  0  0  0  0  0  0
    4.2808   -4.1329   44.3252 C   0  0  0  0  0  0  0  0  0  0  0  0
    3.1588   -4.4221   43.4852 O   0  0  0  0  0  0  0  0  0  0  0  0
    4.5704   -5.2518   45.1995 C   0  0  0  0  0  0  0  0  0  0  0  0
    1.9853   -3.6792   43.3495 C   0  0  0  0  0  0  0  0  0  0  0  0
    0.9181   -4.3294   43.4638 C   0  0  0  0  0  0  0  0  0  0  0  0
    6.7403   -1.6226   45.5272 C   0  0  2  0  0  0  0  0  0  0  0  0
    0.9752   -1.7845   42.3366 C   0  0  0  0  0  0  0  0  0  0  0  0
    6.2516   -3.7287   46.2722 C   0  0  0  0  0  0  0  0  0  0  0  0
   -0.2404   -2.4179   42.2529 C   0  0  0  0  0  0  0  0  0  0  0  0
   -1.3835   -1.8904   41.6559 N   0  0  0  0  0  0  0  0  0  0  0  0
    3.8706   -6.4216   45.1394 O   0  0  0  0  0  0  0  0  0  0  0  0
    0.9456   -0.2789   41.7649 C   0  0  0  0  0  0  0  0  0  0  0  0
   -0.2678   -3.6969   42.7575 C   0  0  0  0  0  0  0  0  0  0  0  0
    6.3913   -0.7000   44.3807 N   0  0  0  0  0  0  0  0  0  0  0  0
    7.9391   -1.5867   46.0069 C   0  0  0  0  0  0  0  0  0  0  0  0
    8.7787   -0.4879   45.9761 O   0  0  0  0  0  0  0  0  0  0  0  0
    5.3853   -5.1216   46.3780 C   0  0  0  0  0  0  0  0  0  0  0  0
    8.4504   -2.7517   46.6262 N   0  0  0  0  0  0  0  0  0  0  0  0
    7.4807   -3.7374   47.0380 C   0  0  0  0  0  0  0  0  0  0  0  0
    9.7261   -2.6138   47.3732 C   0  0  0  0  0  0  0  0  0  0  0  0
    9.9606   -3.7577   48.0581 C   0  0  0  0  0  0  0  0  0  0  0  0
   11.0999   -4.4648   47.7368 O   0  0  0  0  0  0  0  0  0  0  0  0
   10.9199   -5.0316   46.4526 C   0  0  0  0  0  0  0  0  0  0  0  0
   10.2272   -6.0822   46.3751 C   0  0  0  0  0  0  0  0  0  0  0  0
   11.3454   -4.3181   45.2884 C   0  0  0  0  0  0  0  0  0  0  0  0
    9.6833   -6.6841   47.5703 O   0  0  0  0  0  0  0  0  0  0  0  0
   10.2626   -7.0665   45.3234 C   0  0  0  0  0  0  0  0  0  0  0  0
    9.1410   -7.9540   47.6979 C   0  0  0  0  0  0  0  0  0  0  0  0
   11.9885   -3.0879   45.2862 O   0  0  0  0  0  0  0  0  0  0  0  0
    9.7462   -8.2849   45.3426 O   0  0  0  0  0  0  0  0  0  0  0  0
    8.7855   -8.2505   48.9519 O   0  0  0  0  0  0  0  0  0  0  0  0
    9.0430   -8.7297   46.5515 C   0  0  0  0  0  0  0  0  0  0  0  0
   11.3048   -5.0704   44.1570 C   0  0  0  0  0  0  0  0  0  0  0  0
   10.7074   -6.3784   44.2372 C   0  0  0  0  0  0  0  0  0  0  0  0
  1  2  2  0
  1  3  1  0
  2  4  1  0
  3  5  1  0
  4  5  2  0
  5  6  1  0
  3  7  2  0
  4  8  1  0
  8  9  1  0
  8 10  2  0
 10 11  1  0
 10 12  1  0
  6 13  1  0
 11 13  1  0
 13 14  2  0
  9 15  1  0
  6 16  2  0
  9 17  2  0
 16 18  1  0
 18 19  1  0
 12 20  1  0
  7 21  1  0
 16 21  1  0
 14 22  1  0
 18 22  2  0
  2 23  1  0
 15 23  1  6
 15 24  1  0
 24 25  2  0
 12 26  2  0
 17 26  1  0
 24 27  1  0
 17 28  1  0
 27 28  1  0
 27 29  1  0
 29 30  1  0
 30 31  1  0
 31 32  1  0
 32 33  1  0
 32 34  2  0
 33 35  1  0
 33 36  2  0
 35 37  1  0
 34 38  1  0
 36 39  1  0
 37 40  2  0
 37 41  1  0
 39 41  1  0
 34 42  1  0
 36 43  1  0
 42 43  2  0
M  END
$$$$
O14757_Pocket2Mol_idx-in-all-generaetd-283
     RDKit          3D

 36 41  0  0  0  0  0  0  0  0999 V2000
    5.3420    0.2589   42.8836 O   0  0  0  0  0  0  0  0  0  0  0  0
    5.1627   -0.7554   43.4753 C   0  0  0  0  0  0  0  0  0  0  0  0
    4.0509   -1.4657   43.4177 N   0  0  0  0  0  0  0  0  0  0  0  0
    5.9969   -1.2317   44.6840 C   0  0  0  0  0  0  0  0  0  0  0  0
    2.9618   -1.1021   42.5918 C   0  0  1  0  0  0  0  0  0  0  0  0
    7.3392   -0.8596   44.8412 C   0  0  0  0  0  0  0  0  0  0  0  0
    1.9754   -2.0820   42.2741 C   0  0  0  0  0  0  0  0  0  0  0  0
    5.5910   -2.4282   45.3439 C   0  0  0  0  0  0  0  0  0  0  0  0
    6.5874   -2.9636   46.1581 C   0  0  0  0  0  0  0  0  0  0  0  0
    4.2763   -3.0680   45.0493 N   0  0  0  0  0  0  0  0  0  0  0  0
    3.6188   -2.5886   44.2024 C   0  0  0  0  0  0  0  0  0  0  0  0
    8.1921   -1.4071   45.7505 C   0  0  0  0  0  0  0  0  0  0  0  0
    1.0154   -1.8839   41.2980 C   0  0  0  0  0  0  0  0  0  0  0  0
    2.5720   -3.3564   43.9063 C   0  0  0  0  0  0  0  0  0  0  0  0
    0.2502   -2.8976   41.0751 C   0  0  0  0  0  0  0  0  0  0  0  0
    6.1761   -4.1775   47.0209 C   0  0  0  0  0  0  0  0  0  0  0  0
    1.7266   -3.1047   43.0115 C   0  0  2  0  0  0  0  0  0  0  0  0
    2.3696   -4.5367   44.7536 N   0  0  0  0  0  0  0  0  0  0  0  0
    1.2264   -5.2346   44.4693 C   0  0  0  0  0  0  0  0  0  0  0  0
    0.7187   -3.8955   42.5465 C   0  0  0  0  0  0  0  0  0  0  0  0
    9.4576   -0.8949   46.0327 N   0  0  0  0  0  0  0  0  0  0  0  0
    0.8625   -6.3901   45.2462 C   0  0  0  0  0  0  0  0  0  0  0  0
    7.6467   -2.5139   46.4892 C   0  0  0  0  0  0  0  0  0  0  0  0
   10.4908   -1.5336   45.8242 C   0  0  0  0  0  0  0  0  0  0  0  0
    0.3057   -4.9299   43.2909 C   0  0  0  0  0  0  0  0  0  0  0  0
   11.5916   -1.4291   46.7436 C   0  0  0  0  0  0  0  0  0  0  0  0
   10.5566   -2.3672   44.8649 O   0  0  0  0  0  0  0  0  0  0  0  0
    2.4730    0.2084   42.8389 O   0  0  0  0  0  0  0  0  0  0  0  0
   11.6027   -2.2081   47.7725 N   0  0  0  0  0  0  0  0  0  0  0  0
   12.6189   -0.5862   46.5415 C   0  0  0  0  0  0  0  0  0  0  0  0
   12.5414   -2.0889   48.7197 C   0  0  0  0  0  0  0  0  0  0  0  0
   12.4628   -3.0577   49.8848 C   0  0  0  0  0  0  0  0  0  0  0  0
   13.6945   -0.5051   47.3809 C   0  0  0  0  0  0  0  0  0  0  0  0
   14.8246    0.3622   47.1240 O   0  0  0  0  0  0  0  0  0  0  0  0
   13.6568   -1.3261   48.5070 C   0  0  0  0  0  0  0  0  0  0  0  0
   15.5344    0.1777   46.1838 C   0  0  0  0  0  0  0  0  0  0  0  0
  1  2  2  0
  2  3  1  0
  2  4  1  0
  3  5  1  0
  4  6  2  0
  5  7  1  0
  4  8  1  0
  8  9  2  0
  8 10  1  0
  3 11  1  0
 10 11  2  0
  6 12  1  0
  7 13  2  0
 11 14  1  0
 13 15  1  0
  9 16  1  0
 17  7  1  6
 14 17  1  0
 14 18  2  0
 18 19  1  0
 15 20  2  0
 17 20  1  0
 12 21  1  0
 19 22  1  0
  9 23  1  0
 12 23  2  0
 21 24  1  0
 19 25  2  0
 20 25  1  0
 24 26  1  0
 24 27  2  0
  5 28  1  1
 26 29  2  0
 26 30  1  0
 29 31  1  0
 31 32  1  0
 30 33  2  0
 33 34  1  0
 31 35  2  0
 33 35  1  0
 34 36  1  0
M  END
$$$$
O14757_Pocket2Mol_idx-in-all-generaetd-284
     RDKit          3D

 44 52  0  0  0  0  0  0  0  0999 V2000
    1.5482   -0.3111   41.9233 C   0  0  0  0  0  0  0  0  0  0  0  0
    2.7284    0.2018   42.1525 N   0  0  0  0  0  0  0  0  0  0  0  0
    3.7893   -0.3016   42.7005 C   0  0  0  0  0  0  0  0  0  0  0  0
    3.3781   -1.7350   43.0000 C   0  0  0  0  0  0  0  0  0  0  0  0
    2.0339   -1.9619   42.6217 C   0  0  0  0  0  0  0  0  0  0  0  0
    5.0090    0.1219   42.9340 N   0  0  0  0  0  0  0  0  0  0  0  0
    4.2895   -2.4979   43.6707 C   0  0  0  0  0  0  0  0  0  0  0  0
    5.8391   -0.6675   43.6343 C   0  0  0  0  0  0  0  0  0  0  0  0
    6.9849   -0.2377   44.0028 N   0  0  0  0  0  0  0  0  0  0  0  0
    4.0426   -3.8794   44.0832 C   0  0  0  0  0  0  0  0  0  0  0  0
    7.6796   -0.8734   44.9326 C   0  0  0  0  0  0  0  0  0  0  0  0
    1.1064   -2.9576   42.4211 C   0  0  0  0  0  0  0  0  0  0  0  0
    5.5298   -1.9496   44.0315 C   0  0  0  0  0  0  0  0  0  0  0  0
    3.8954   -4.1817   45.4718 C   0  0  0  0  0  0  0  0  0  0  0  0
    0.6765   -3.5480   43.4006 C   0  0  1  0  0  0  0  0  0  0  0  0
    0.5804   -3.2191   41.1635 C   0  0  0  0  0  0  0  0  0  0  0  0
    2.8083   -4.8227   45.9203 N   0  0  0  0  0  0  0  0  0  0  0  0
   -0.1574   -4.5754   42.9329 N   0  0  0  0  0  0  0  0  0  0  0  0
    6.5271   -2.5531   44.9677 C   0  0  0  0  0  0  0  0  0  0  0  0
   -0.2272   -4.3703   41.5137 C   0  0  0  0  0  0  0  0  0  0  0  0
    7.5095   -2.0029   45.3993 C   0  0  0  0  0  0  0  0  0  0  0  0
    8.2550   -2.6982   46.3988 C   0  0  2  0  0  0  0  0  0  0  0  0
    8.8975   -0.3029   45.3267 O   0  0  0  0  0  0  0  0  0  0  0  0
    4.8299   -4.4637   46.4212 C   0  0  0  0  0  0  0  0  0  0  0  0
    4.2707   -4.9248   47.6295 N   0  0  0  0  0  0  0  0  0  0  0  0
    3.2045   -5.2092   47.1521 C   0  0  0  0  0  0  0  0  0  0  0  0
    1.4482   -4.6186   45.4134 C   0  0  2  0  0  0  0  0  0  0  0  0
    1.2398   -3.5043   44.6236 O   0  0  0  0  0  0  0  0  0  0  0  0
    6.3317   -3.9297   46.0870 C   0  0  2  0  0  0  0  0  0  0  0  0
    9.5296   -2.5449   46.9776 C   0  0  0  0  0  0  0  0  0  0  0  0
    9.7921   -1.7530   47.9018 O   0  0  0  0  0  0  0  0  0  0  0  0
    7.4454   -3.8344   46.8035 C   0  0  0  0  0  0  0  0  0  0  0  0
   10.5010   -3.0847   46.3190 O   0  0  0  0  0  0  0  0  0  0  0  0
    0.5569   -4.7693   46.5649 C   0  0  0  0  0  0  0  0  0  0  0  0
   11.7452   -2.8462   46.6234 C   0  0  0  0  0  0  0  0  0  0  0  0
   12.4344   -1.8951   45.7393 C   0  0  0  0  0  0  0  0  0  0  0  0
   12.4612   -3.5429   47.5581 C   0  0  0  0  0  0  0  0  0  0  0  0
   11.7737   -4.5216   48.4115 C   0  0  0  0  0  0  0  0  0  0  0  0
   13.7761   -1.6251   45.9829 C   0  0  0  0  0  0  0  0  0  0  0  0
   13.7909   -3.1787   47.7950 C   0  0  0  0  0  0  0  0  0  0  0  0
   14.4548   -2.2580   47.0336 C   0  0  0  0  0  0  0  0  0  0  0  0
   14.3965   -0.7209   45.2153 C   0  0  0  0  0  0  0  0  0  0  0  0
   14.6944    0.3973   45.6016 O   0  0  0  0  0  0  0  0  0  0  0  0
   14.5914   -1.0482   43.9635 O   0  0  0  0  0  0  0  0  0  0  0  0
  1  2  1  0
  2  3  2  0
  3  4  1  0
  1  5  2  0
  4  5  1  0
  3  6  1  0
  4  7  2  0
  6  8  1  0
  8  9  1  0
  7 10  1  0
  9 11  1  0
  5 12  1  0
  7 13  1  0
  8 13  2  0
 10 14  1  0
 12 15  1  0
 12 16  2  0
 14 17  1  0
 15 18  1  0
 13 19  1  0
 16 20  1  0
 18 20  2  0
 11 21  1  0
 19 21  2  0
 21 22  1  0
 11 23  2  0
 14 24  2  0
 24 25  1  0
 17 26  1  0
 25 26  2  0
 17 27  1  0
 15 28  1  6
 27 28  1  0
 19 29  1  0
 24 29  1  0
 22 30  1  6
 30 31  2  0
 22 32  1  0
 29 32  1  1
 30 33  1  0
 27 34  1  1
 33 35  1  0
 35 36  2  0
 35 37  1  0
 37 38  1  0
 36 39  1  0
 37 40  2  0
 39 41  2  0
 40 41  1  0
 39 42  1  0
 42 43  2  0
 42 44  1  0
M  END
$$$$
O14757_Pocket2Mol_idx-in-all-generaetd-285
     RDKit          3D

 27 31  0  0  0  0  0  0  0  0999 V2000
    4.5156    0.0550   42.9895 N   0  0  0  0  0  0  0  0  0  0  0  0
    5.0618   -0.8645   43.5295 C   0  0  0  0  0  0  0  0  0  0  0  0
    4.4350   -2.0604   43.7783 C   0  0  0  0  0  0  0  0  0  0  0  0
    4.9987   -3.0994   44.5839 C   0  0  0  0  0  0  0  0  0  0  0  0
    3.2714   -1.8664   43.0632 C   0  0  0  0  0  0  0  0  0  0  0  0
    6.4064   -0.5942   44.3204 N   0  0  0  0  0  0  0  0  0  0  0  0
    3.2662   -0.5029   42.4637 C   0  0  1  0  0  0  0  0  0  0  0  0
    6.2094   -2.8994   45.2671 C   0  0  0  0  0  0  0  0  0  0  0  0
    2.1311   -2.7283   42.6149 C   0  0  0  0  0  0  0  0  0  0  0  0
    1.2031   -2.2156   41.7977 C   0  0  0  0  0  0  0  0  0  0  0  0
    0.1331   -3.1384   41.3837 C   0  0  0  0  0  0  0  0  0  0  0  0
    2.2239   -0.0756   41.7904 C   0  0  0  0  0  0  0  0  0  0  0  0
    6.8407   -1.5014   45.1300 C   0  0  0  0  0  0  0  0  0  0  0  0
    1.1705   -0.9157   41.4367 C   0  0  0  0  0  0  0  0  0  0  0  0
    8.0745   -1.2705   45.7566 C   0  0  0  0  0  0  0  0  0  0  0  0
    8.6211   -2.2130   46.7115 C   0  0  0  0  0  0  0  0  0  0  0  0
    6.7527   -3.8063   46.1672 C   0  0  0  0  0  0  0  0  0  0  0  0
    9.8071   -1.9409   47.4563 O   0  0  0  0  0  0  0  0  0  0  0  0
    7.9753   -3.4769   46.9003 C   0  0  0  0  0  0  0  0  0  0  0  0
   10.9253   -1.6673   46.6796 C   0  0  0  0  0  0  0  0  0  0  0  0
   -1.0276   -2.8899   41.4677 O   0  0  0  0  0  0  0  0  0  0  0  0
    0.5265   -4.1807   40.7422 O   0  0  0  0  0  0  0  0  0  0  0  0
   11.9186   -1.2594   47.2155 C   0  0  0  0  0  0  0  0  0  0  0  0
   11.1307   -2.7142   45.5507 C   0  0  0  0  0  0  0  0  0  0  0  0
   12.3892   -2.4872   45.0060 C   0  0  0  0  0  0  0  0  0  0  0  0
   13.4177   -2.1740   45.9079 O   0  0  0  0  0  0  0  0  0  0  0  0
   13.1836   -1.0549   46.6317 C   0  0  0  0  0  0  0  0  0  0  0  0
  1  2  2  0
  2  3  1  0
  3  4  1  0
  3  5  2  0
  2  6  1  0
  1  7  1  0
  5  7  1  0
  4  8  2  0
  5  9  1  0
  9 10  2  0
 10 11  1  0
  7 12  1  1
  6 13  2  0
  8 13  1  0
 10 14  1  0
 12 14  2  0
 13 15  1  0
 15 16  2  0
  8 17  1  0
 16 18  1  0
 16 19  1  0
 17 19  2  0
 18 20  1  0
 11 21  2  0
 11 22  1  0
 20 23  1  0
 20 24  1  0
 24 25  1  0
 25 26  1  0
 23 27  1  0
 26 27  1  0
M  END
$$$$
O14757_Pocket2Mol_idx-in-all-generaetd-286
     RDKit          3D

 27 30  0  0  0  0  0  0  0  0999 V2000
    0.3497   -2.5592   41.5321 C   0  0  0  0  0  0  0  0  0  0  0  0
    0.7059   -1.3065   41.4152 C   0  0  0  0  0  0  0  0  0  0  0  0
    2.0121   -0.9206   42.0074 C   0  0  0  0  0  0  0  0  0  0  0  0
    2.8273   -1.8583   42.7096 C   0  0  0  0  0  0  0  0  0  0  0  0
   -0.9158   -2.9896   41.0259 O   0  0  0  0  0  0  0  0  0  0  0  0
    2.1785   -3.2182   42.8202 C   0  0  0  0  0  0  0  0  0  0  0  0
    2.9957   -4.0364   43.6549 N   0  0  0  0  0  0  0  0  0  0  0  0
    1.0381   -3.5102   42.3147 C   0  0  0  0  0  0  0  0  0  0  0  0
    4.0501   -1.4436   43.3296 C   0  0  0  0  0  0  0  0  0  0  0  0
    4.2345   -3.7127   44.1966 C   0  0  0  0  0  0  0  0  0  0  0  0
    4.9099   -4.6363   45.0387 N   0  0  0  0  0  0  0  0  0  0  0  0
    4.7563   -2.4299   44.0678 C   0  0  0  0  0  0  0  0  0  0  0  0
    6.0306   -2.0532   44.6670 C   0  0  0  0  0  0  0  0  0  0  0  0
    4.6111   -0.1656   43.0716 N   0  0  0  0  0  0  0  0  0  0  0  0
    6.7834   -2.7598   45.5925 N   0  0  0  0  0  0  0  0  0  0  0  0
    8.0062   -2.3962   46.0654 C   0  0  1  0  0  0  0  0  0  0  0  0
    8.3845   -1.1262   46.4117 C   0  0  0  0  0  0  0  0  0  0  0  0
    6.3026   -0.6817   44.5619 N   0  0  0  0  0  0  0  0  0  0  0  0
    5.6684    0.0898   43.6845 C   0  0  0  0  0  0  0  0  0  0  0  0
    8.3525   -3.2296   47.1905 C   0  0  0  0  0  0  0  0  0  0  0  0
    9.8112   -0.8718   46.4448 C   0  0  0  0  0  0  0  0  0  0  0  0
   -2.1452   -2.6079   41.5170 C   0  0  0  0  0  0  0  0  0  0  0  0
   10.3633   -1.7219   47.5388 C   0  0  0  0  0  0  0  0  0  0  0  0
    9.8848   -3.1495   47.3831 N   0  0  0  0  0  0  0  0  0  0  0  0
   10.6734   -4.2324   47.2288 C   0  0  0  0  0  0  0  0  0  0  0  0
   11.0343   -4.7090   46.1706 C   0  0  0  0  0  0  0  0  0  0  0  0
   11.0781   -4.7119   48.3793 O   0  0  0  0  0  0  0  0  0  0  0  0
  1  2  2  0
  2  3  1  0
  3  4  2  0
  1  5  1  0
  4  6  1  0
  6  7  1  0
  1  8  1  0
  6  8  2  0
  4  9  1  0
  7 10  2  0
 10 11  1  0
  9 12  2  0
 10 12  1  0
 12 13  1  0
  9 14  1  0
 13 15  1  0
 16 15  1  1
 16 17  1  0
 13 18  2  0
 14 19  2  0
 18 19  1  0
 16 20  1  0
 17 21  1  0
  5 22  1  0
 21 23  1  0
 20 24  1  0
 23 24  1  0
 24 25  1  0
 25 26  1  0
 25 27  2  0
M  END
$$$$
O14757_Pocket2Mol_idx-in-all-generaetd-287
     RDKit          3D

 28 31  0  0  0  0  0  0  0  0999 V2000
    0.3497   -2.5592   41.5321 C   0  0  0  0  0  0  0  0  0  0  0  0
    0.7059   -1.3065   41.4152 C   0  0  0  0  0  0  0  0  0  0  0  0
    2.0121   -0.9206   42.0074 C   0  0  0  0  0  0  0  0  0  0  0  0
    2.8273   -1.8583   42.7096 C   0  0  0  0  0  0  0  0  0  0  0  0
   -0.9158   -2.9896   41.0259 O   0  0  0  0  0  0  0  0  0  0  0  0
    2.1785   -3.2182   42.8202 C   0  0  0  0  0  0  0  0  0  0  0  0
    2.9957   -4.0364   43.6549 N   0  0  0  0  0  0  0  0  0  0  0  0
    1.0381   -3.5102   42.3147 C   0  0  0  0  0  0  0  0  0  0  0  0
    4.0501   -1.4436   43.3296 C   0  0  0  0  0  0  0  0  0  0  0  0
    4.2345   -3.7127   44.1966 C   0  0  0  0  0  0  0  0  0  0  0  0
    4.9099   -4.6363   45.0387 N   0  0  0  0  0  0  0  0  0  0  0  0
    4.7563   -2.4299   44.0678 C   0  0  0  0  0  0  0  0  0  0  0  0
    6.0306   -2.0532   44.6670 C   0  0  0  0  0  0  0  0  0  0  0  0
    4.6111   -0.1656   43.0716 N   0  0  0  0  0  0  0  0  0  0  0  0
    6.7834   -2.7598   45.5925 N   0  0  0  0  0  0  0  0  0  0  0  0
    8.0062   -2.3962   46.0654 C   0  0  1  0  0  0  0  0  0  0  0  0
    8.3845   -1.1262   46.4117 C   0  0  0  0  0  0  0  0  0  0  0  0
    6.3026   -0.6817   44.5619 N   0  0  0  0  0  0  0  0  0  0  0  0
    5.6684    0.0898   43.6845 C   0  0  0  0  0  0  0  0  0  0  0  0
    8.3525   -3.2296   47.1905 C   0  0  0  0  0  0  0  0  0  0  0  0
    9.8112   -0.8718   46.4448 C   0  0  0  0  0  0  0  0  0  0  0  0
   -2.1452   -2.6079   41.5170 C   0  0  0  0  0  0  0  0  0  0  0  0
   10.3633   -1.7219   47.5388 C   0  0  0  0  0  0  0  0  0  0  0  0
    9.8848   -3.1495   47.3831 N   0  0  0  0  0  0  0  0  0  0  0  0
   10.4024   -4.0542   48.4027 C   0  0  0  0  0  0  0  0  0  0  0  0
   11.1704   -5.0607   47.7169 C   0  0  0  0  0  0  0  0  0  0  0  0
   10.7569   -5.4437   46.4456 C   0  0  0  0  0  0  0  0  0  0  0  0
   11.5775   -6.2945   45.7258 C   0  0  0  0  0  0  0  0  0  0  0  0
  1  2  2  0
  2  3  1  0
  3  4  2  0
  1  5  1  0
  4  6  1  0
  6  7  1  0
  1  8  1  0
  6  8  2  0
  4  9  1  0
  7 10  2  0
 10 11  1  0
  9 12  2  0
 10 12  1  0
 12 13  1  0
  9 14  1  0
 13 15  1  0
 16 15  1  1
 16 17  1  0
 13 18  2  0
 14 19  2  0
 18 19  1  0
 16 20  1  0
 17 21  1  0
  5 22  1  0
 21 23  1  0
 20 24  1  0
 23 24  1  0
 24 25  1  0
 25 26  1  0
 26 27  1  0
 27 28  1  0
M  END
$$$$
O14757_Pocket2Mol_idx-in-all-generaetd-288
     RDKit          3D

 40 45  0  0  0  0  0  0  0  0999 V2000
    5.3420    0.2589   42.8836 O   0  0  0  0  0  0  0  0  0  0  0  0
    5.1627   -0.7554   43.4753 C   0  0  0  0  0  0  0  0  0  0  0  0
    4.0509   -1.4657   43.4177 N   0  0  0  0  0  0  0  0  0  0  0  0
    5.9969   -1.2317   44.6840 C   0  0  0  0  0  0  0  0  0  0  0  0
    2.9618   -1.1021   42.5918 C   0  0  1  0  0  0  0  0  0  0  0  0
    7.3392   -0.8596   44.8412 C   0  0  0  0  0  0  0  0  0  0  0  0
    1.9754   -2.0820   42.2741 C   0  0  0  0  0  0  0  0  0  0  0  0
    5.5910   -2.4282   45.3439 C   0  0  0  0  0  0  0  0  0  0  0  0
    6.5874   -2.9636   46.1581 C   0  0  0  0  0  0  0  0  0  0  0  0
    4.2763   -3.0680   45.0493 N   0  0  0  0  0  0  0  0  0  0  0  0
    3.6188   -2.5886   44.2024 C   0  0  0  0  0  0  0  0  0  0  0  0
    8.1921   -1.4071   45.7505 C   0  0  0  0  0  0  0  0  0  0  0  0
    1.0154   -1.8839   41.2980 C   0  0  0  0  0  0  0  0  0  0  0  0
    2.5720   -3.3564   43.9063 C   0  0  0  0  0  0  0  0  0  0  0  0
    0.2502   -2.8976   41.0751 C   0  0  0  0  0  0  0  0  0  0  0  0
    6.1761   -4.1775   47.0209 C   0  0  0  0  0  0  0  0  0  0  0  0
    1.7266   -3.1047   43.0115 C   0  0  2  0  0  0  0  0  0  0  0  0
    2.3696   -4.5367   44.7536 N   0  0  0  0  0  0  0  0  0  0  0  0
    1.2264   -5.2346   44.4693 C   0  0  0  0  0  0  0  0  0  0  0  0
    0.7187   -3.8955   42.5465 C   0  0  0  0  0  0  0  0  0  0  0  0
    9.4576   -0.8949   46.0327 N   0  0  0  0  0  0  0  0  0  0  0  0
    0.8625   -6.3901   45.2462 C   0  0  0  0  0  0  0  0  0  0  0  0
    7.6467   -2.5139   46.4892 C   0  0  0  0  0  0  0  0  0  0  0  0
   10.4908   -1.5336   45.8242 C   0  0  0  0  0  0  0  0  0  0  0  0
    0.3057   -4.9299   43.2909 C   0  0  0  0  0  0  0  0  0  0  0  0
   11.5916   -1.4291   46.7436 C   0  0  0  0  0  0  0  0  0  0  0  0
   10.5566   -2.3672   44.8649 O   0  0  0  0  0  0  0  0  0  0  0  0
   12.8421   -1.9355   46.2823 C   0  0  0  0  0  0  0  0  0  0  0  0
   13.4833   -2.8582   46.9841 C   0  0  0  0  0  0  0  0  0  0  0  0
   11.4002   -1.1447   48.0540 C   0  0  0  0  0  0  0  0  0  0  0  0
   10.2867   -0.4569   48.4999 O   0  0  0  0  0  0  0  0  0  0  0  0
   12.3327   -1.4798   48.9564 C   0  0  0  0  0  0  0  0  0  0  0  0
   14.7901   -3.3162   46.6439 C   0  0  0  0  0  0  0  0  0  0  0  0
   12.1651   -1.3050   50.3239 O   0  0  0  0  0  0  0  0  0  0  0  0
   15.6765   -2.5740   46.0979 C   0  0  0  0  0  0  0  0  0  0  0  0
   13.4417   -2.4710   48.5369 C   0  0  0  0  0  0  0  0  0  0  0  0
    2.4613    0.2109   42.8565 O   0  0  0  0  0  0  0  0  0  0  0  0
   15.5548   -1.2857   45.8322 C   0  0  0  0  0  0  0  0  0  0  0  0
   15.3849   -0.8827   44.5104 C   0  0  0  0  0  0  0  0  0  0  0  0
   14.9714   -1.7374   43.4744 O   0  0  0  0  0  0  0  0  0  0  0  0
  1  2  2  0
  2  3  1  0
  2  4  1  0
  3  5  1  0
  4  6  2  0
  5  7  1  0
  4  8  1  0
  8  9  2  0
  8 10  1  0
  3 11  1  0
 10 11  2  0
  6 12  1  0
  7 13  2  0
 11 14  1  0
 13 15  1  0
  9 16  1  0
 17  7  1  6
 14 17  1  0
 14 18  2  0
 18 19  1  0
 15 20  2  0
 17 20  1  0
 12 21  1  0
 19 22  1  0
  9 23  1  0
 12 23  2  0
 21 24  1  0
 19 25  2  0
 20 25  1  0
 24 26  1  0
 24 27  2  0
 26 28  2  0
 28 29  1  0
 26 30  1  0
 30 31  1  0
 30 32  2  0
 29 33  1  0
 32 34  1  0
 33 35  2  3
 29 36  2  0
 32 36  1  0
  5 37  1  1
 35 38  1  0
 38 39  2  3
 39 40  1  0
M  END
$$$$
O14757_Pocket2Mol_idx-in-all-generaetd-289
     RDKit          3D

 49 56  0  0  0  0  0  0  0  0999 V2000
    5.3420    0.2589   42.8836 O   0  0  0  0  0  0  0  0  0  0  0  0
    5.1627   -0.7554   43.4753 C   0  0  0  0  0  0  0  0  0  0  0  0
    4.0509   -1.4657   43.4177 N   0  0  0  0  0  0  0  0  0  0  0  0
    5.9969   -1.2317   44.6840 C   0  0  0  0  0  0  0  0  0  0  0  0
    2.9618   -1.1021   42.5918 C   0  0  1  0  0  0  0  0  0  0  0  0
    7.3392   -0.8596   44.8412 C   0  0  0  0  0  0  0  0  0  0  0  0
    1.9754   -2.0820   42.2741 C   0  0  0  0  0  0  0  0  0  0  0  0
    5.5910   -2.4282   45.3439 C   0  0  0  0  0  0  0  0  0  0  0  0
    6.5874   -2.9636   46.1581 C   0  0  0  0  0  0  0  0  0  0  0  0
    4.2763   -3.0680   45.0493 N   0  0  0  0  0  0  0  0  0  0  0  0
    3.6188   -2.5886   44.2024 C   0  0  0  0  0  0  0  0  0  0  0  0
    8.1921   -1.4071   45.7505 C   0  0  0  0  0  0  0  0  0  0  0  0
    1.0154   -1.8839   41.2980 C   0  0  0  0  0  0  0  0  0  0  0  0
    2.5720   -3.3564   43.9063 C   0  0  0  0  0  0  0  0  0  0  0  0
    0.2502   -2.8976   41.0751 C   0  0  0  0  0  0  0  0  0  0  0  0
    6.1761   -4.1775   47.0209 C   0  0  0  0  0  0  0  0  0  0  0  0
    1.7266   -3.1047   43.0115 C   0  0  2  0  0  0  0  0  0  0  0  0
    2.3696   -4.5367   44.7536 N   0  0  0  0  0  0  0  0  0  0  0  0
    1.2264   -5.2346   44.4693 C   0  0  0  0  0  0  0  0  0  0  0  0
    0.7187   -3.8955   42.5465 C   0  0  0  0  0  0  0  0  0  0  0  0
    9.4576   -0.8949   46.0327 N   0  0  0  0  0  0  0  0  0  0  0  0
    0.8625   -6.3901   45.2462 C   0  0  0  0  0  0  0  0  0  0  0  0
    7.6467   -2.5139   46.4892 C   0  0  0  0  0  0  0  0  0  0  0  0
   10.4908   -1.5336   45.8242 C   0  0  0  0  0  0  0  0  0  0  0  0
    0.3057   -4.9299   43.2909 C   0  0  0  0  0  0  0  0  0  0  0  0
   11.5916   -1.4291   46.7436 C   0  0  0  0  0  0  0  0  0  0  0  0
   10.5566   -2.3672   44.8649 O   0  0  0  0  0  0  0  0  0  0  0  0
   12.8421   -1.9355   46.2823 C   0  0  0  0  0  0  0  0  0  0  0  0
   13.4833   -2.8582   46.9841 C   0  0  0  0  0  0  0  0  0  0  0  0
   11.4002   -1.1447   48.0540 C   0  0  0  0  0  0  0  0  0  0  0  0
   10.2867   -0.4569   48.4999 O   0  0  0  0  0  0  0  0  0  0  0  0
   12.3327   -1.4798   48.9564 C   0  0  0  0  0  0  0  0  0  0  0  0
   14.7901   -3.3162   46.6439 C   0  0  0  0  0  0  0  0  0  0  0  0
   12.1651   -1.3050   50.3239 O   0  0  0  0  0  0  0  0  0  0  0  0
   15.6765   -2.5740   46.0979 C   0  0  0  0  0  0  0  0  0  0  0  0
   13.4417   -2.4710   48.5369 C   0  0  0  0  0  0  0  0  0  0  0  0
   15.5553   -1.2853   45.8338 C   0  0  0  0  0  0  0  0  0  0  0  0
    2.4633    0.2112   42.8553 C   0  0  0  0  0  0  0  0  0  0  0  0
   15.4040   -0.8809   44.5109 C   0  0  0  0  0  0  0  0  0  0  0  0
   14.8738    0.3113   44.1938 C   0  0  0  0  0  0  0  0  0  0  0  0
   14.7152    1.1803   45.2021 C   0  0  0  0  0  0  0  0  0  0  0  0
   14.9830    0.9587   46.4703 C   0  0  0  0  0  0  0  0  0  0  0  0
   14.6729    1.9187   47.5393 C   0  0  0  0  0  0  0  0  0  0  0  0
   15.4965   -0.3066   46.7749 C   0  0  0  0  0  0  0  0  0  0  0  0
   13.4142    2.2165   47.7341 C   0  0  0  0  0  0  0  0  0  0  0  0
   13.0407    3.1110   48.8349 C   0  0  0  0  0  0  0  0  0  0  0  0
   14.0740    3.5450   49.6341 C   0  0  0  0  0  0  0  0  0  0  0  0
   15.3316    3.2242   49.4664 C   0  0  0  0  0  0  0  0  0  0  0  0
   15.6809    2.3712   48.4192 C   0  0  0  0  0  0  0  0  0  0  0  0
  1  2  2  0
  2  3  1  0
  2  4  1  0
  3  5  1  0
  4  6  2  0
  5  7  1  0
  4  8  1  0
  8  9  2  0
  8 10  1  0
  3 11  1  0
 10 11  2  0
  6 12  1  0
  7 13  2  0
 11 14  1  0
 13 15  1  0
  9 16  1  0
 17  7  1  6
 14 17  1  0
 14 18  2  0
 18 19  1  0
 15 20  2  0
 17 20  1  0
 12 21  1  0
 19 22  1  0
  9 23  1  0
 12 23  2  0
 21 24  1  0
 19 25  2  0
 20 25  1  0
 24 26  1  0
 24 27  2  0
 26 28  2  0
 28 29  1  0
 26 30  1  0
 30 31  1  0
 30 32  2  0
 29 33  1  0
 32 34  1  0
 33 35  2  3
 29 36  2  0
 32 36  1  0
 35 37  1  0
  5 38  1  1
 37 39  2  0
 39 40  1  0
 40 41  2  0
 41 42  1  0
 42 43  1  0
 37 44  1  0
 42 44  2  0
 43 45  2  0
 45 46  1  0
 46 47  2  0
 47 48  1  0
 43 49  1  0
 48 49  2  0
M  END
$$$$
O14757_Pocket2Mol_idx-in-all-generaetd-290
     RDKit          3D

 42 50  0  0  0  0  0  0  0  0999 V2000
    1.5482   -0.3111   41.9233 C   0  0  0  0  0  0  0  0  0  0  0  0
    2.7284    0.2018   42.1525 N   0  0  0  0  0  0  0  0  0  0  0  0
    3.7893   -0.3016   42.7005 C   0  0  0  0  0  0  0  0  0  0  0  0
    3.3781   -1.7350   43.0000 C   0  0  0  0  0  0  0  0  0  0  0  0
    2.0339   -1.9619   42.6217 C   0  0  0  0  0  0  0  0  0  0  0  0
    5.0090    0.1219   42.9340 N   0  0  0  0  0  0  0  0  0  0  0  0
    4.2895   -2.4979   43.6707 C   0  0  0  0  0  0  0  0  0  0  0  0
    5.8391   -0.6675   43.6343 C   0  0  0  0  0  0  0  0  0  0  0  0
    6.9849   -0.2377   44.0028 N   0  0  0  0  0  0  0  0  0  0  0  0
    4.0426   -3.8794   44.0832 C   0  0  0  0  0  0  0  0  0  0  0  0
    7.6796   -0.8734   44.9326 C   0  0  0  0  0  0  0  0  0  0  0  0
    1.1064   -2.9576   42.4211 C   0  0  0  0  0  0  0  0  0  0  0  0
    5.5298   -1.9496   44.0315 C   0  0  0  0  0  0  0  0  0  0  0  0
    3.8954   -4.1817   45.4718 C   0  0  0  0  0  0  0  0  0  0  0  0
    0.6765   -3.5480   43.4006 C   0  0  1  0  0  0  0  0  0  0  0  0
    0.5804   -3.2191   41.1635 C   0  0  0  0  0  0  0  0  0  0  0  0
    2.8083   -4.8227   45.9203 N   0  0  0  0  0  0  0  0  0  0  0  0
   -0.1574   -4.5754   42.9329 N   0  0  0  0  0  0  0  0  0  0  0  0
    6.5271   -2.5531   44.9677 C   0  0  0  0  0  0  0  0  0  0  0  0
   -0.2272   -4.3703   41.5137 C   0  0  0  0  0  0  0  0  0  0  0  0
    7.5095   -2.0029   45.3993 C   0  0  0  0  0  0  0  0  0  0  0  0
    8.2550   -2.6982   46.3988 C   0  0  0  0  0  0  0  0  0  0  0  0
    8.8975   -0.3029   45.3267 O   0  0  0  0  0  0  0  0  0  0  0  0
    4.8299   -4.4637   46.4212 C   0  0  0  0  0  0  0  0  0  0  0  0
    4.2707   -4.9248   47.6295 N   0  0  0  0  0  0  0  0  0  0  0  0
    3.2045   -5.2092   47.1521 C   0  0  0  0  0  0  0  0  0  0  0  0
    1.4482   -4.6186   45.4134 C   0  0  1  0  0  0  0  0  0  0  0  0
    1.2398   -3.5043   44.6236 O   0  0  0  0  0  0  0  0  0  0  0  0
    7.8521   -3.9584   46.8773 C   0  0  0  0  0  0  0  0  0  0  0  0
    8.4079   -4.7553   47.7407 C   0  0  0  0  0  0  0  0  0  0  0  0
    5.9516   -3.8110   45.9146 C   0  0  0  0  0  0  0  0  0  0  0  0
    6.6436   -4.3892   46.6649 C   0  0  0  0  0  0  0  0  0  0  0  0
    9.5111   -5.5246   47.2994 O   0  0  0  0  0  0  0  0  0  0  0  0
   10.6238   -5.0197   46.8534 C   0  0  0  0  0  0  0  0  0  0  0  0
   11.5866   -4.7361   47.6189 C   0  0  0  0  0  0  0  0  0  0  0  0
    1.2153   -5.7944   44.5753 C   0  0  0  0  0  0  0  0  0  0  0  0
   10.7023   -4.6532   45.4361 C   0  0  0  0  0  0  0  0  0  0  0  0
   12.8078   -4.2193   47.0828 C   0  0  0  0  0  0  0  0  0  0  0  0
   11.7380   -4.2754   44.9534 C   0  0  0  0  0  0  0  0  0  0  0  0
   12.8675   -3.9423   45.7806 C   0  0  0  0  0  0  0  0  0  0  0  0
   14.2157   -3.2809   45.2573 C   0  0  0  0  0  0  0  0  0  0  0  0
   13.9890   -2.0660   44.7470 C   0  0  0  0  0  0  0  0  0  0  0  0
  1  2  1  0
  2  3  2  0
  3  4  1  0
  1  5  2  0
  4  5  1  0
  3  6  1  0
  4  7  2  0
  6  8  1  0
  8  9  1  0
  7 10  1  0
  9 11  1  0
  5 12  1  0
  7 13  1  0
  8 13  2  0
 10 14  1  0
 12 15  1  0
 12 16  2  0
 14 17  1  0
 15 18  1  0
 13 19  1  0
 16 20  1  0
 18 20  2  0
 11 21  1  0
 19 21  2  0
 21 22  1  0
 11 23  2  0
 14 24  2  0
 24 25  1  0
 17 26  1  0
 25 26  2  0
 17 27  1  0
 15 28  1  6
 27 28  1  0
 22 29  2  0
 29 30  1  0
 19 31  1  0
 24 31  1  0
 29 32  1  0
 31 32  2  0
 30 33  1  0
 33 34  1  0
 34 35  2  0
 27 36  1  6
 34 37  1  0
 35 38  1  0
 37 39  2  0
 38 40  2  0
 39 40  1  0
 40 41  1  0
 41 42  1  0
M  END
$$$$
O14757_Pocket2Mol_idx-in-all-generaetd-291
     RDKit          3D

 40 46  0  0  0  0  0  0  0  0999 V2000
    5.3420    0.2589   42.8836 O   0  0  0  0  0  0  0  0  0  0  0  0
    5.1627   -0.7554   43.4753 C   0  0  0  0  0  0  0  0  0  0  0  0
    4.0509   -1.4657   43.4177 N   0  0  0  0  0  0  0  0  0  0  0  0
    5.9969   -1.2317   44.6840 C   0  0  0  0  0  0  0  0  0  0  0  0
    2.9618   -1.1021   42.5918 C   0  0  1  0  0  0  0  0  0  0  0  0
    7.3392   -0.8596   44.8412 C   0  0  0  0  0  0  0  0  0  0  0  0
    1.9754   -2.0820   42.2741 C   0  0  0  0  0  0  0  0  0  0  0  0
    5.5910   -2.4282   45.3439 C   0  0  0  0  0  0  0  0  0  0  0  0
    6.5874   -2.9636   46.1581 C   0  0  0  0  0  0  0  0  0  0  0  0
    4.2763   -3.0680   45.0493 N   0  0  0  0  0  0  0  0  0  0  0  0
    3.6188   -2.5886   44.2024 C   0  0  0  0  0  0  0  0  0  0  0  0
    8.1921   -1.4071   45.7505 C   0  0  0  0  0  0  0  0  0  0  0  0
    1.0154   -1.8839   41.2980 C   0  0  0  0  0  0  0  0  0  0  0  0
    2.5720   -3.3564   43.9063 C   0  0  0  0  0  0  0  0  0  0  0  0
    0.2502   -2.8976   41.0751 C   0  0  0  0  0  0  0  0  0  0  0  0
    6.1761   -4.1775   47.0209 C   0  0  0  0  0  0  0  0  0  0  0  0
    1.7266   -3.1047   43.0115 C   0  0  2  0  0  0  0  0  0  0  0  0
    2.3696   -4.5367   44.7536 N   0  0  0  0  0  0  0  0  0  0  0  0
    1.2264   -5.2346   44.4693 C   0  0  0  0  0  0  0  0  0  0  0  0
    0.7187   -3.8955   42.5465 C   0  0  0  0  0  0  0  0  0  0  0  0
    9.4576   -0.8949   46.0327 N   0  0  0  0  0  0  0  0  0  0  0  0
    0.8625   -6.3901   45.2462 C   0  0  0  0  0  0  0  0  0  0  0  0
    7.6467   -2.5139   46.4892 C   0  0  0  0  0  0  0  0  0  0  0  0
   10.4908   -1.5336   45.8242 C   0  0  0  0  0  0  0  0  0  0  0  0
    0.3057   -4.9299   43.2909 C   0  0  0  0  0  0  0  0  0  0  0  0
   11.5916   -1.4291   46.7436 C   0  0  0  0  0  0  0  0  0  0  0  0
   10.5566   -2.3672   44.8649 O   0  0  0  0  0  0  0  0  0  0  0  0
   12.8421   -1.9355   46.2823 C   0  0  0  0  0  0  0  0  0  0  0  0
   13.4833   -2.8582   46.9841 C   0  0  0  0  0  0  0  0  0  0  0  0
   11.4002   -1.1447   48.0540 C   0  0  0  0  0  0  0  0  0  0  0  0
   10.2867   -0.4569   48.4999 O   0  0  0  0  0  0  0  0  0  0  0  0
   12.3327   -1.4798   48.9564 C   0  0  1  0  0  0  0  0  0  0  0  0
   14.7901   -3.3162   46.6439 C   0  0  0  0  0  0  0  0  0  0  0  0
   12.1651   -1.3050   50.3239 O   0  0  0  0  0  0  0  0  0  0  0  0
   15.6765   -2.5740   46.0979 C   0  0  0  0  0  0  0  0  0  0  0  0
    2.4608    0.2106   42.8512 C   0  0  0  0  0  0  0  0  0  0  0  0
   15.5213   -1.2590   45.7606 C   0  0  0  0  0  0  0  0  0  0  0  0
   13.2296   -3.0237   48.4229 C   0  0  0  0  0  0  0  0  0  0  0  0
   16.5182   -0.6778   45.1851 O   0  0  0  0  0  0  0  0  0  0  0  0
   14.2399   -0.8342   45.3550 C   0  0  0  0  0  0  0  0  0  0  0  0
  1  2  2  0
  2  3  1  0
  2  4  1  0
  3  5  1  0
  4  6  2  0
  5  7  1  0
  4  8  1  0
  8  9  2  0
  8 10  1  0
  3 11  1  0
 10 11  2  0
  6 12  1  0
  7 13  2  0
 11 14  1  0
 13 15  1  0
  9 16  1  0
 17  7  1  6
 14 17  1  0
 14 18  2  0
 18 19  1  0
 15 20  2  0
 17 20  1  0
 12 21  1  0
 19 22  1  0
  9 23  1  0
 12 23  2  0
 21 24  1  0
 19 25  2  0
 20 25  1  0
 24 26  1  0
 24 27  2  0
 26 28  1  0
 28 29  2  0
 26 30  2  0
 30 31  1  0
 30 32  1  0
 29 33  1  0
 32 34  1  1
 33 35  2  0
  5 36  1  1
 35 37  1  0
 29 38  1  0
 32 38  1  0
 37 39  2  0
 28 40  1  0
 37 40  1  0
M  END
$$$$
O14757_Pocket2Mol_idx-in-all-generaetd-292
     RDKit          3D

 47 56  0  0  0  0  0  0  0  0999 V2000
    1.5482   -0.3111   41.9233 C   0  0  0  0  0  0  0  0  0  0  0  0
    2.7284    0.2018   42.1525 N   0  0  0  0  0  0  0  0  0  0  0  0
    3.7893   -0.3016   42.7005 C   0  0  0  0  0  0  0  0  0  0  0  0
    3.3781   -1.7350   43.0000 C   0  0  0  0  0  0  0  0  0  0  0  0
    2.0339   -1.9619   42.6217 C   0  0  0  0  0  0  0  0  0  0  0  0
    5.0090    0.1219   42.9340 N   0  0  0  0  0  0  0  0  0  0  0  0
    4.2895   -2.4979   43.6707 C   0  0  0  0  0  0  0  0  0  0  0  0
    5.8391   -0.6675   43.6343 C   0  0  0  0  0  0  0  0  0  0  0  0
    6.9849   -0.2377   44.0028 N   0  0  0  0  0  0  0  0  0  0  0  0
    4.0426   -3.8794   44.0832 C   0  0  0  0  0  0  0  0  0  0  0  0
    7.6796   -0.8734   44.9326 C   0  0  0  0  0  0  0  0  0  0  0  0
    1.1064   -2.9576   42.4211 C   0  0  0  0  0  0  0  0  0  0  0  0
    5.5298   -1.9496   44.0315 C   0  0  0  0  0  0  0  0  0  0  0  0
    3.8954   -4.1817   45.4718 C   0  0  0  0  0  0  0  0  0  0  0  0
    0.6765   -3.5480   43.4006 C   0  0  1  0  0  0  0  0  0  0  0  0
    0.5804   -3.2191   41.1635 C   0  0  0  0  0  0  0  0  0  0  0  0
    2.8083   -4.8227   45.9203 N   0  0  0  0  0  0  0  0  0  0  0  0
   -0.1574   -4.5754   42.9329 N   0  0  0  0  0  0  0  0  0  0  0  0
    6.5271   -2.5531   44.9677 C   0  0  0  0  0  0  0  0  0  0  0  0
   -0.2272   -4.3703   41.5137 C   0  0  0  0  0  0  0  0  0  0  0  0
    7.5095   -2.0029   45.3993 C   0  0  0  0  0  0  0  0  0  0  0  0
    8.2550   -2.6982   46.3988 C   0  0  0  0  0  0  0  0  0  0  0  0
    8.8975   -0.3029   45.3267 O   0  0  0  0  0  0  0  0  0  0  0  0
    4.8299   -4.4637   46.4212 C   0  0  0  0  0  0  0  0  0  0  0  0
    4.2707   -4.9248   47.6295 N   0  0  0  0  0  0  0  0  0  0  0  0
    3.2045   -5.2092   47.1521 C   0  0  0  0  0  0  0  0  0  0  0  0
    1.4482   -4.6186   45.4134 C   0  0  2  0  0  0  0  0  0  0  0  0
    1.2398   -3.5043   44.6236 O   0  0  0  0  0  0  0  0  0  0  0  0
    6.3317   -3.9297   46.0870 C   0  0  2  0  0  0  0  0  0  0  0  0
    9.5296   -2.5449   46.9776 C   0  0  0  0  0  0  0  0  0  0  0  0
    9.7921   -1.7530   47.9018 O   0  0  0  0  0  0  0  0  0  0  0  0
    7.3972   -3.8130   46.7939 C   0  0  0  0  0  0  0  0  0  0  0  0
   10.4154   -3.4217   46.6883 O   0  0  0  0  0  0  0  0  0  0  0  0
    0.5555   -4.7535   46.5674 C   0  0  0  0  0  0  0  0  0  0  0  0
   11.6497   -3.0596   47.0439 C   0  0  0  0  0  0  0  0  0  0  0  0
   12.3878   -4.1125   47.6990 C   0  0  1  0  0  0  0  0  0  0  0  0
   11.8800   -5.2760   47.5659 O   0  0  0  0  0  0  0  0  0  0  0  0
   12.1402   -1.9273   46.5416 C   0  0  0  0  0  0  0  0  0  0  0  0
   13.7566   -3.9428   47.4635 C   0  0  0  0  0  0  0  0  0  0  0  0
   11.3924   -5.9178   48.7514 C   0  0  0  0  0  0  0  0  0  0  0  0
   14.4126   -2.7430   47.0678 C   0  0  0  0  0  0  0  0  0  0  0  0
   13.5341   -1.7327   46.5713 C   0  0  0  0  0  0  0  0  0  0  0  0
   15.7870   -2.5428   47.0578 C   0  0  0  0  0  0  0  0  0  0  0  0
   14.0254   -0.6106   46.0931 C   0  0  0  0  0  0  0  0  0  0  0  0
   15.3065   -0.3324   46.0256 C   0  0  0  0  0  0  0  0  0  0  0  0
   15.8796    0.8766   45.5252 O   0  0  0  0  0  0  0  0  0  0  0  0
   16.3189   -1.2133   46.5328 C   0  0  0  0  0  0  0  0  0  0  0  0
  1  2  1  0
  2  3  2  0
  3  4  1  0
  1  5  2  0
  4  5  1  0
  3  6  1  0
  4  7  2  0
  6  8  1  0
  8  9  1  0
  7 10  1  0
  9 11  1  0
  5 12  1  0
  7 13  1  0
  8 13  2  0
 10 14  1  0
 12 15  1  0
 12 16  2  0
 14 17  1  0
 15 18  1  0
 13 19  1  0
 16 20  1  0
 18 20  2  0
 11 21  1  0
 19 21  2  0
 21 22  1  0
 11 23  2  0
 14 24  2  0
 24 25  1  0
 17 26  1  0
 25 26  2  0
 17 27  1  0
 15 28  1  6
 27 28  1  0
 19 29  1  0
 24 29  1  0
 22 30  1  0
 30 31  2  0
 22 32  2  0
 29 32  1  1
 30 33  1  0
 27 34  1  1
 33 35  1  0
 35 36  1  0
 36 37  1  6
 35 38  2  0
 36 39  1  0
 37 40  1  0
 39 41  2  0
 38 42  1  0
 41 42  1  0
 41 43  1  0
 42 44  2  0
 44 45  1  0
 45 46  1  0
 43 47  1  0
 45 47  2  0
M  END
$$$$
O14757_Pocket2Mol_idx-in-all-generaetd-293
     RDKit          3D

 35 42  0  0  0  0  0  0  0  0999 V2000
    4.8173    0.2791   42.6993 N   0  0  0  0  0  0  0  0  0  0  0  0
    5.3297   -0.7477   43.3688 C   0  0  0  0  0  0  0  0  0  0  0  0
    3.4732   -0.2235   42.4530 C   0  0  0  0  0  0  0  0  0  0  0  0
    4.4984   -1.7876   43.6214 C   0  0  0  0  0  0  0  0  0  0  0  0
    3.3438   -1.5190   42.9379 C   0  0  0  0  0  0  0  0  0  0  0  0
    2.1381   -2.3401   42.8254 C   0  0  0  0  0  0  0  0  0  0  0  0
    2.3894    0.3572   41.9843 N   0  0  0  0  0  0  0  0  0  0  0  0
    4.9180   -3.0430   44.3829 C   0  0  0  0  0  0  0  0  0  0  0  0
    5.9444   -2.9314   45.3934 C   0  0  0  0  0  0  0  0  0  0  0  0
    4.2808   -4.1329   44.3252 C   0  0  0  0  0  0  0  0  0  0  0  0
    3.1588   -4.4221   43.4852 O   0  0  0  0  0  0  0  0  0  0  0  0
    4.5704   -5.2518   45.1995 C   0  0  0  0  0  0  0  0  0  0  0  0
    1.9853   -3.6792   43.3495 C   0  0  0  0  0  0  0  0  0  0  0  0
    0.9181   -4.3294   43.4638 C   0  0  0  0  0  0  0  0  0  0  0  0
    6.7403   -1.6226   45.5272 C   0  0  0  0  0  0  0  0  0  0  0  0
    0.9752   -1.7845   42.3366 C   0  0  0  0  0  0  0  0  0  0  0  0
    5.5543   -5.1294   46.1078 C   0  0  0  0  0  0  0  0  0  0  0  0
    7.9772   -1.5901   46.1526 C   0  0  0  0  0  0  0  0  0  0  0  0
    8.6171   -2.7180   46.2255 N   0  0  0  0  0  0  0  0  0  0  0  0
    6.5160   -0.7262   44.3482 C   0  0  0  0  0  0  0  0  0  0  0  0
    5.8670   -6.1665   47.0241 O   0  0  0  0  0  0  0  0  0  0  0  0
   -0.2437   -2.4672   42.2827 C   0  0  0  0  0  0  0  0  0  0  0  0
   -0.2692   -3.7414   42.8178 C   0  0  0  0  0  0  0  0  0  0  0  0
    6.3047   -3.9815   46.2287 C   0  0  0  0  0  0  0  0  0  0  0  0
    8.0291   -3.5777   47.1715 C   0  0  0  0  0  0  0  0  0  0  0  0
    7.2074   -4.2766   47.0234 C   0  0  0  0  0  0  0  0  0  0  0  0
    1.1879   -0.4281   41.8692 C   0  0  0  0  0  0  0  0  0  0  0  0
   10.1009   -2.3306   46.5895 C   0  0  0  0  0  0  0  0  0  0  0  0
   10.5049   -1.2887   46.4663 O   0  0  0  0  0  0  0  0  0  0  0  0
   10.9104   -3.4150   47.1173 C   0  0  0  0  0  0  0  0  0  0  0  0
   11.1982   -4.4016   46.2515 C   0  0  0  0  0  0  0  0  0  0  0  0
   11.7101   -3.1924   48.2324 C   0  0  0  0  0  0  0  0  0  0  0  0
   12.0522   -5.4329   46.5848 C   0  0  0  0  0  0  0  0  0  0  0  0
   12.7511   -5.3217   47.7489 C   0  0  0  0  0  0  0  0  0  0  0  0
   12.6097   -4.2418   48.5664 C   0  0  0  0  0  0  0  0  0  0  0  0
  1  2  2  0
  1  3  1  0
  2  4  1  0
  3  5  1  0
  4  5  2  0
  5  6  1  0
  3  7  2  0
  4  8  1  0
  8  9  2  0
  8 10  1  0
 10 11  1  0
 10 12  2  0
  6 13  2  0
 11 13  1  0
 13 14  1  0
  9 15  1  0
  6 16  1  0
 12 17  1  0
 15 18  1  0
 18 19  1  0
  2 20  1  0
 15 20  2  0
 17 21  1  0
 16 22  2  0
 14 23  2  0
 22 23  1  0
  9 24  1  0
 17 24  2  0
 19 25  1  0
 24 26  1  0
 25 26  2  0
  7 27  1  0
 16 27  1  0
 19 28  1  0
 28 29  2  0
 28 30  1  0
 30 31  2  0
 30 32  1  0
 31 33  1  0
 33 34  2  0
 32 35  2  0
 34 35  1  0
M  END
$$$$
O14757_Pocket2Mol_idx-in-all-generaetd-294
     RDKit          3D

 26 30  0  0  0  0  0  0  0  0999 V2000
    4.5156    0.0550   42.9895 N   0  0  0  0  0  0  0  0  0  0  0  0
    5.0618   -0.8645   43.5295 C   0  0  0  0  0  0  0  0  0  0  0  0
    4.4350   -2.0604   43.7783 C   0  0  0  0  0  0  0  0  0  0  0  0
    4.9987   -3.0994   44.5839 C   0  0  0  0  0  0  0  0  0  0  0  0
    3.2714   -1.8664   43.0632 C   0  0  0  0  0  0  0  0  0  0  0  0
    6.4064   -0.5942   44.3204 N   0  0  0  0  0  0  0  0  0  0  0  0
    3.2662   -0.5029   42.4637 C   0  0  1  0  0  0  0  0  0  0  0  0
    6.2094   -2.8994   45.2671 C   0  0  0  0  0  0  0  0  0  0  0  0
    2.1311   -2.7283   42.6149 C   0  0  0  0  0  0  0  0  0  0  0  0
    1.2031   -2.2156   41.7977 C   0  0  0  0  0  0  0  0  0  0  0  0
    0.1331   -3.1384   41.3837 C   0  0  0  0  0  0  0  0  0  0  0  0
    2.2239   -0.0756   41.7904 C   0  0  0  0  0  0  0  0  0  0  0  0
    6.8407   -1.5014   45.1300 C   0  0  0  0  0  0  0  0  0  0  0  0
    1.1705   -0.9157   41.4367 C   0  0  0  0  0  0  0  0  0  0  0  0
    8.0745   -1.2705   45.7566 C   0  0  0  0  0  0  0  0  0  0  0  0
    8.6211   -2.2130   46.7115 C   0  0  0  0  0  0  0  0  0  0  0  0
    6.7527   -3.8063   46.1672 C   0  0  0  0  0  0  0  0  0  0  0  0
    9.8071   -1.9409   47.4563 O   0  0  0  0  0  0  0  0  0  0  0  0
    7.9753   -3.4769   46.9003 C   0  0  0  0  0  0  0  0  0  0  0  0
   10.9253   -1.6673   46.6796 C   0  0  0  0  0  0  0  0  0  0  0  0
   -0.8560   -3.4196   42.1765 O   0  0  0  0  0  0  0  0  0  0  0  0
   11.9215   -1.2612   47.2170 C   0  0  0  0  0  0  0  0  0  0  0  0
   10.8281   -1.9454   45.2452 C   0  0  0  0  0  0  0  0  0  0  0  0
   13.1142   -0.9940   46.5962 C   0  0  0  0  0  0  0  0  0  0  0  0
   13.2358   -1.3251   45.2017 C   0  0  0  0  0  0  0  0  0  0  0  0
   12.1298   -1.7717   44.5618 C   0  0  0  0  0  0  0  0  0  0  0  0
  1  2  2  0
  2  3  1  0
  3  4  1  0
  3  5  2  0
  2  6  1  0
  1  7  1  0
  5  7  1  0
  4  8  2  0
  5  9  1  0
  9 10  2  0
 10 11  1  0
  7 12  1  1
  6 13  2  0
  8 13  1  0
 10 14  1  0
 12 14  2  0
 13 15  1  0
 15 16  2  0
  8 17  1  0
 16 18  1  0
 16 19  1  0
 17 19  2  0
 18 20  1  0
 11 21  1  0
 20 22  2  0
 20 23  1  0
 22 24  1  0
 24 25  2  0
 23 26  2  0
 25 26  1  0
M  END
$$$$
O14757_Pocket2Mol_idx-in-all-generaetd-295
     RDKit          3D

 35 40  0  0  0  0  0  0  0  0999 V2000
    5.3420    0.2589   42.8836 O   0  0  0  0  0  0  0  0  0  0  0  0
    5.1627   -0.7554   43.4753 C   0  0  0  0  0  0  0  0  0  0  0  0
    4.0509   -1.4657   43.4177 N   0  0  0  0  0  0  0  0  0  0  0  0
    5.9969   -1.2317   44.6840 C   0  0  0  0  0  0  0  0  0  0  0  0
    2.9618   -1.1021   42.5918 C   0  0  1  0  0  0  0  0  0  0  0  0
    7.3392   -0.8596   44.8412 C   0  0  0  0  0  0  0  0  0  0  0  0
    1.9754   -2.0820   42.2741 C   0  0  0  0  0  0  0  0  0  0  0  0
    5.5910   -2.4282   45.3439 C   0  0  0  0  0  0  0  0  0  0  0  0
    6.5874   -2.9636   46.1581 C   0  0  0  0  0  0  0  0  0  0  0  0
    4.2763   -3.0680   45.0493 N   0  0  0  0  0  0  0  0  0  0  0  0
    3.6188   -2.5886   44.2024 C   0  0  0  0  0  0  0  0  0  0  0  0
    8.1921   -1.4071   45.7505 C   0  0  0  0  0  0  0  0  0  0  0  0
    1.0154   -1.8839   41.2980 C   0  0  0  0  0  0  0  0  0  0  0  0
    2.5720   -3.3564   43.9063 C   0  0  0  0  0  0  0  0  0  0  0  0
    0.2502   -2.8976   41.0751 C   0  0  0  0  0  0  0  0  0  0  0  0
    6.1761   -4.1775   47.0209 C   0  0  0  0  0  0  0  0  0  0  0  0
    1.7266   -3.1047   43.0115 C   0  0  2  0  0  0  0  0  0  0  0  0
    2.3696   -4.5367   44.7536 N   0  0  0  0  0  0  0  0  0  0  0  0
    1.2264   -5.2346   44.4693 C   0  0  0  0  0  0  0  0  0  0  0  0
    0.7187   -3.8955   42.5465 C   0  0  0  0  0  0  0  0  0  0  0  0
    9.4576   -0.8949   46.0327 N   0  0  0  0  0  0  0  0  0  0  0  0
    0.8625   -6.3901   45.2462 C   0  0  0  0  0  0  0  0  0  0  0  0
    7.6467   -2.5139   46.4892 C   0  0  0  0  0  0  0  0  0  0  0  0
   10.4908   -1.5336   45.8242 C   0  0  0  0  0  0  0  0  0  0  0  0
    0.3057   -4.9299   43.2909 C   0  0  0  0  0  0  0  0  0  0  0  0
   11.5916   -1.4291   46.7436 C   0  0  0  0  0  0  0  0  0  0  0  0
   10.5566   -2.3672   44.8649 O   0  0  0  0  0  0  0  0  0  0  0  0
   11.6051   -2.2111   47.7709 N   0  0  0  0  0  0  0  0  0  0  0  0
    2.4805    0.2099   42.8350 O   0  0  0  0  0  0  0  0  0  0  0  0
   12.6177   -0.5842   46.5430 C   0  0  0  0  0  0  0  0  0  0  0  0
   12.8756    0.2998   45.3489 C   0  0  0  0  0  0  0  0  0  0  0  0
   13.6543   -0.1866   44.5008 C   0  0  0  0  0  0  0  0  0  0  0  0
   13.5654   -0.5806   47.5414 C   0  0  0  0  0  0  0  0  0  0  0  0
   12.5232   -2.1001   48.7644 C   0  0  0  0  0  0  0  0  0  0  0  0
   13.5737   -1.3445   48.6099 C   0  0  0  0  0  0  0  0  0  0  0  0
  1  2  2  0
  2  3  1  0
  2  4  1  0
  3  5  1  0
  4  6  2  0
  5  7  1  0
  4  8  1  0
  8  9  2  0
  8 10  1  0
  3 11  1  0
 10 11  2  0
  6 12  1  0
  7 13  2  0
 11 14  1  0
 13 15  1  0
  9 16  1  0
 17  7  1  6
 14 17  1  0
 14 18  2  0
 18 19  1  0
 15 20  2  0
 17 20  1  0
 12 21  1  0
 19 22  1  0
  9 23  1  0
 12 23  2  0
 21 24  1  0
 19 25  2  0
 20 25  1  0
 24 26  1  0
 24 27  2  0
 26 28  2  0
  5 29  1  1
 26 30  1  0
 30 31  1  0
 31 32  1  0
 30 33  2  0
 28 34  1  0
 33 35  1  0
 34 35  2  0
M  END
$$$$
O14757_Pocket2Mol_idx-in-all-generaetd-296
     RDKit          3D

 26 28  0  0  0  0  0  0  0  0999 V2000
    0.3497   -2.5592   41.5321 C   0  0  0  0  0  0  0  0  0  0  0  0
    0.7059   -1.3065   41.4152 C   0  0  0  0  0  0  0  0  0  0  0  0
    2.0121   -0.9206   42.0074 C   0  0  0  0  0  0  0  0  0  0  0  0
    2.8273   -1.8583   42.7096 C   0  0  0  0  0  0  0  0  0  0  0  0
   -0.9158   -2.9896   41.0259 O   0  0  0  0  0  0  0  0  0  0  0  0
    2.1785   -3.2182   42.8202 C   0  0  0  0  0  0  0  0  0  0  0  0
    2.9957   -4.0364   43.6549 N   0  0  0  0  0  0  0  0  0  0  0  0
    1.0381   -3.5102   42.3147 C   0  0  0  0  0  0  0  0  0  0  0  0
    4.0501   -1.4436   43.3296 C   0  0  0  0  0  0  0  0  0  0  0  0
    4.2345   -3.7127   44.1966 C   0  0  0  0  0  0  0  0  0  0  0  0
    4.9099   -4.6363   45.0387 N   0  0  0  0  0  0  0  0  0  0  0  0
    4.7563   -2.4299   44.0678 C   0  0  0  0  0  0  0  0  0  0  0  0
    6.0306   -2.0532   44.6670 C   0  0  0  0  0  0  0  0  0  0  0  0
    4.6111   -0.1656   43.0716 N   0  0  0  0  0  0  0  0  0  0  0  0
    6.7834   -2.7598   45.5925 N   0  0  0  0  0  0  0  0  0  0  0  0
    8.0062   -2.3962   46.0654 C   0  0  0  0  0  0  0  0  0  0  0  0
    8.3845   -1.1262   46.4117 C   0  0  0  0  0  0  0  0  0  0  0  0
    9.6436   -0.9706   45.9799 C   0  0  0  0  0  0  0  0  0  0  0  0
    8.8432   -3.1754   46.0008 O   0  0  0  0  0  0  0  0  0  0  0  0
    6.6027   -0.8829   44.1814 N   0  0  0  0  0  0  0  0  0  0  0  0
   -2.0790   -2.4574   41.5802 C   0  0  0  0  0  0  0  0  0  0  0  0
   10.6824   -1.4172   46.9202 C   0  0  0  0  0  0  0  0  0  0  0  0
   11.9122   -1.8182   46.3965 C   0  0  0  0  0  0  0  0  0  0  0  0
    5.8667   -0.0484   43.4377 C   0  0  0  0  0  0  0  0  0  0  0  0
   12.8465   -2.1067   46.9601 O   0  0  0  0  0  0  0  0  0  0  0  0
   12.0837   -1.4794   45.0901 O   0  0  0  0  0  0  0  0  0  0  0  0
  1  2  2  0
  2  3  1  0
  3  4  2  0
  1  5  1  0
  4  6  1  0
  6  7  1  0
  1  8  1  0
  6  8  2  0
  4  9  1  0
  7 10  2  0
 10 11  1  0
  9 12  2  0
 10 12  1  0
 12 13  1  0
  9 14  1  0
 13 15  1  0
 15 16  1  0
 16 17  1  0
 17 18  1  0
 16 19  2  0
 13 20  2  0
  5 21  1  0
 18 22  1  0
 22 23  1  0
 14 24  2  0
 20 24  1  0
 23 25  2  0
 23 26  1  0
M  END
$$$$
O14757_Pocket2Mol_idx-in-all-generaetd-297
     RDKit          3D

 43 51  0  0  0  0  0  0  0  0999 V2000
    1.5482   -0.3111   41.9233 C   0  0  0  0  0  0  0  0  0  0  0  0
    2.7284    0.2018   42.1525 N   0  0  0  0  0  0  0  0  0  0  0  0
    3.7893   -0.3016   42.7005 C   0  0  0  0  0  0  0  0  0  0  0  0
    3.3781   -1.7350   43.0000 C   0  0  0  0  0  0  0  0  0  0  0  0
    2.0339   -1.9619   42.6217 C   0  0  0  0  0  0  0  0  0  0  0  0
    5.0090    0.1219   42.9340 N   0  0  0  0  0  0  0  0  0  0  0  0
    4.2895   -2.4979   43.6707 C   0  0  0  0  0  0  0  0  0  0  0  0
    5.8391   -0.6675   43.6343 C   0  0  0  0  0  0  0  0  0  0  0  0
    6.9849   -0.2377   44.0028 N   0  0  0  0  0  0  0  0  0  0  0  0
    4.0426   -3.8794   44.0832 C   0  0  0  0  0  0  0  0  0  0  0  0
    7.6796   -0.8734   44.9326 C   0  0  0  0  0  0  0  0  0  0  0  0
    1.1064   -2.9576   42.4211 C   0  0  0  0  0  0  0  0  0  0  0  0
    5.5298   -1.9496   44.0315 C   0  0  0  0  0  0  0  0  0  0  0  0
    3.8954   -4.1817   45.4718 C   0  0  0  0  0  0  0  0  0  0  0  0
    0.6765   -3.5480   43.4006 C   0  0  1  0  0  0  0  0  0  0  0  0
    0.5804   -3.2191   41.1635 C   0  0  0  0  0  0  0  0  0  0  0  0
    2.8083   -4.8227   45.9203 N   0  0  0  0  0  0  0  0  0  0  0  0
   -0.1574   -4.5754   42.9329 N   0  0  0  0  0  0  0  0  0  0  0  0
    6.5271   -2.5531   44.9677 C   0  0  0  0  0  0  0  0  0  0  0  0
   -0.2272   -4.3703   41.5137 C   0  0  0  0  0  0  0  0  0  0  0  0
    7.5095   -2.0029   45.3993 C   0  0  0  0  0  0  0  0  0  0  0  0
    8.2550   -2.6982   46.3988 C   0  0  1  0  0  0  0  0  0  0  0  0
    8.8975   -0.3029   45.3267 O   0  0  0  0  0  0  0  0  0  0  0  0
    4.8299   -4.4637   46.4212 C   0  0  0  0  0  0  0  0  0  0  0  0
    4.2707   -4.9248   47.6295 N   0  0  0  0  0  0  0  0  0  0  0  0
    3.2045   -5.2092   47.1521 C   0  0  0  0  0  0  0  0  0  0  0  0
    1.4482   -4.6186   45.4134 C   0  0  0  0  0  0  0  0  0  0  0  0
    1.3256   -3.7660   44.6394 N   0  0  0  0  0  0  0  0  0  0  0  0
    9.2816   -2.1418   47.1273 N   0  0  0  0  0  0  0  0  0  0  0  0
   10.0629   -3.1324   47.8508 C   0  0  0  0  0  0  0  0  0  0  0  0
    6.3491   -3.8960   46.0844 C   0  0  2  0  0  0  0  0  0  0  0  0
    7.4349   -3.5889   46.9054 C   0  0  0  0  0  0  0  0  0  0  0  0
   10.3145   -2.7271   49.0818 O   0  0  0  0  0  0  0  0  0  0  0  0
    0.6213   -5.4445   45.7455 O   0  0  0  0  0  0  0  0  0  0  0  0
   11.0262   -3.8136   47.1050 C   0  0  0  0  0  0  0  0  0  0  0  0
   12.1704   -3.3854   46.7547 C   0  0  0  0  0  0  0  0  0  0  0  0
   13.1080   -4.1111   46.0053 C   0  0  0  0  0  0  0  0  0  0  0  0
   14.3489   -3.5966   45.7888 C   0  0  0  0  0  0  0  0  0  0  0  0
   12.7430   -5.2725   45.5056 C   0  0  0  0  0  0  0  0  0  0  0  0
   14.6935   -2.2816   45.3353 O   0  0  0  0  0  0  0  0  0  0  0  0
   11.3840   -5.6943   45.9083 C   0  0  0  0  0  0  0  0  0  0  0  0
   10.4627   -5.0443   46.7183 C   0  0  0  0  0  0  0  0  0  0  0  0
   15.4484   -4.3460   45.9649 O   0  0  0  0  0  0  0  0  0  0  0  0
  1  2  1  0
  2  3  2  0
  3  4  1  0
  1  5  2  0
  4  5  1  0
  3  6  1  0
  4  7  2  0
  6  8  1  0
  8  9  1  0
  7 10  1  0
  9 11  1  0
  5 12  1  0
  7 13  1  0
  8 13  2  0
 10 14  1  0
 12 15  1  0
 12 16  2  0
 14 17  1  0
 15 18  1  0
 13 19  1  0
 16 20  1  0
 18 20  2  0
 11 21  1  0
 19 21  2  0
 21 22  1  0
 11 23  2  0
 14 24  2  0
 24 25  1  0
 17 26  1  0
 25 26  2  0
 17 27  1  0
 15 28  1  6
 27 28  1  0
 22 29  1  1
 29 30  1  0
 19 31  1  0
 24 31  1  0
 22 32  1  0
 31 32  1  1
 30 33  2  0
 27 34  2  0
 30 35  1  0
 35 36  2  0
 36 37  1  0
 37 38  1  0
 37 39  2  0
 38 40  1  0
 39 41  1  0
 35 42  1  0
 41 42  2  0
 38 43  2  0
M  END
$$$$
O14757_Pocket2Mol_idx-in-all-generaetd-298
     RDKit          3D

 34 39  0  0  0  0  0  0  0  0999 V2000
    1.5482   -0.3111   41.9233 C   0  0  0  0  0  0  0  0  0  0  0  0
    2.7284    0.2018   42.1525 N   0  0  0  0  0  0  0  0  0  0  0  0
    3.7893   -0.3016   42.7005 C   0  0  0  0  0  0  0  0  0  0  0  0
    3.3781   -1.7350   43.0000 C   0  0  0  0  0  0  0  0  0  0  0  0
    2.0339   -1.9619   42.6217 C   0  0  0  0  0  0  0  0  0  0  0  0
    4.1166   -2.4997   43.8458 C   0  0  0  0  0  0  0  0  0  0  0  0
    1.1731   -3.0051   42.5773 C   0  0  0  0  0  0  0  0  0  0  0  0
    0.4701   -3.2344   41.4901 C   0  0  0  0  0  0  0  0  0  0  0  0
    5.3799   -1.7814   44.2691 C   0  0  0  0  0  0  0  0  0  0  0  0
    5.0159   -0.0180   43.1201 N   0  0  0  0  0  0  0  0  0  0  0  0
    5.7693   -0.6937   43.8418 C   0  0  0  0  0  0  0  0  0  0  0  0
    0.8078   -3.6166   43.6782 C   0  0  0  0  0  0  0  0  0  0  0  0
    0.0663   -4.7011   43.7415 N   0  0  0  0  0  0  0  0  0  0  0  0
    6.2223   -2.6843   45.1565 C   0  0  0  0  0  0  0  0  0  0  0  0
    1.4459   -3.3095   45.0236 O   0  0  0  0  0  0  0  0  0  0  0  0
   -0.5278   -5.1074   42.5506 C   0  0  0  0  0  0  0  0  0  0  0  0
   -1.3099   -6.2193   42.5332 N   0  0  0  0  0  0  0  0  0  0  0  0
   -0.3906   -4.3573   41.3904 C   0  0  0  0  0  0  0  0  0  0  0  0
    7.0535   -0.4845   44.4478 N   0  0  0  0  0  0  0  0  0  0  0  0
    0.6210   -3.8397   46.1835 C   0  0  0  0  0  0  0  0  0  0  0  0
    6.2906   -3.7888   45.8815 C   0  0  0  0  0  0  0  0  0  0  0  0
    7.3868   -4.0307   46.6450 C   0  0  0  0  0  0  0  0  0  0  0  0
    7.2911   -1.6471   45.3058 C   0  0  2  0  0  0  0  0  0  0  0  0
    8.4503   -3.1394   46.7342 C   0  0  0  0  0  0  0  0  0  0  0  0
    8.4698   -1.9481   46.2096 C   0  0  0  0  0  0  0  0  0  0  0  0
    9.5355   -3.4574   47.6466 O   0  0  0  0  0  0  0  0  0  0  0  0
   10.7239   -3.2394   47.1960 C   0  0  0  0  0  0  0  0  0  0  0  0
   11.3519   -4.3113   46.6932 C   0  0  0  0  0  0  0  0  0  0  0  0
   11.3844   -1.9750   47.3381 C   0  0  0  0  0  0  0  0  0  0  0  0
   10.6542   -0.8591   47.9037 F   0  0  0  0  0  0  0  0  0  0  0  0
   12.6737   -4.2136   46.2250 C   0  0  0  0  0  0  0  0  0  0  0  0
   13.3249   -2.9465   46.4122 C   0  0  0  0  0  0  0  0  0  0  0  0
   14.6864   -2.8081   45.9384 F   0  0  0  0  0  0  0  0  0  0  0  0
   12.5877   -1.7762   46.9177 C   0  0  0  0  0  0  0  0  0  0  0  0
  1  2  1  0
  2  3  2  0
  3  4  1  0
  1  5  2  0
  4  5  1  0
  4  6  2  0
  5  7  1  0
  7  8  2  0
  6  9  1  0
  3 10  1  0
  9 11  1  0
 10 11  1  0
  7 12  1  0
 12 13  2  0
  9 14  2  0
 12 15  1  0
 13 16  1  0
 16 17  1  0
  8 18  1  0
 16 18  2  0
 11 19  2  0
 15 20  1  0
 14 21  1  0
 21 22  2  0
 14 23  1  0
 19 23  1  0
 22 24  1  0
 23 25  1  6
 24 25  2  0
 24 26  1  0
 26 27  1  0
 27 28  2  0
 27 29  1  0
 29 30  1  0
 28 31  1  0
 31 32  2  0
 32 33  1  0
 29 34  2  0
 32 34  1  0
M  END
$$$$
O14757_Pocket2Mol_idx-in-all-generaetd-299
     RDKit          3D

 49 57  0  0  0  0  0  0  0  0999 V2000
    5.3420    0.2589   42.8836 O   0  0  0  0  0  0  0  0  0  0  0  0
    5.1627   -0.7554   43.4753 C   0  0  0  0  0  0  0  0  0  0  0  0
    4.0509   -1.4657   43.4177 N   0  0  0  0  0  0  0  0  0  0  0  0
    5.9969   -1.2317   44.6840 C   0  0  0  0  0  0  0  0  0  0  0  0
    2.9618   -1.1021   42.5918 C   0  0  1  0  0  0  0  0  0  0  0  0
    7.3392   -0.8596   44.8412 C   0  0  0  0  0  0  0  0  0  0  0  0
    1.9754   -2.0820   42.2741 C   0  0  0  0  0  0  0  0  0  0  0  0
    5.5910   -2.4282   45.3439 C   0  0  0  0  0  0  0  0  0  0  0  0
    6.5874   -2.9636   46.1581 C   0  0  0  0  0  0  0  0  0  0  0  0
    4.2763   -3.0680   45.0493 N   0  0  0  0  0  0  0  0  0  0  0  0
    3.6188   -2.5886   44.2024 C   0  0  0  0  0  0  0  0  0  0  0  0
    8.1921   -1.4071   45.7505 C   0  0  0  0  0  0  0  0  0  0  0  0
    1.0154   -1.8839   41.2980 C   0  0  0  0  0  0  0  0  0  0  0  0
    2.5720   -3.3564   43.9063 C   0  0  0  0  0  0  0  0  0  0  0  0
    0.2502   -2.8976   41.0751 C   0  0  0  0  0  0  0  0  0  0  0  0
    6.1761   -4.1775   47.0209 C   0  0  0  0  0  0  0  0  0  0  0  0
    1.7266   -3.1047   43.0115 C   0  0  2  0  0  0  0  0  0  0  0  0
    2.3696   -4.5367   44.7536 N   0  0  0  0  0  0  0  0  0  0  0  0
    1.2264   -5.2346   44.4693 C   0  0  0  0  0  0  0  0  0  0  0  0
    0.7187   -3.8955   42.5465 C   0  0  0  0  0  0  0  0  0  0  0  0
    9.4576   -0.8949   46.0327 N   0  0  0  0  0  0  0  0  0  0  0  0
    0.8625   -6.3901   45.2462 C   0  0  0  0  0  0  0  0  0  0  0  0
    7.6467   -2.5139   46.4892 C   0  0  0  0  0  0  0  0  0  0  0  0
   10.4908   -1.5336   45.8242 C   0  0  0  0  0  0  0  0  0  0  0  0
    0.3057   -4.9299   43.2909 C   0  0  0  0  0  0  0  0  0  0  0  0
   11.5916   -1.4291   46.7436 C   0  0  0  0  0  0  0  0  0  0  0  0
   10.5566   -2.3672   44.8649 O   0  0  0  0  0  0  0  0  0  0  0  0
    2.4730    0.2084   42.8389 O   0  0  0  0  0  0  0  0  0  0  0  0
   11.6027   -2.2081   47.7725 N   0  0  0  0  0  0  0  0  0  0  0  0
   12.6189   -0.5862   46.5415 C   0  0  0  0  0  0  0  0  0  0  0  0
   13.6413   -0.4484   47.4129 C   0  0  0  0  0  0  0  0  0  0  0  0
   10.4764   -3.1097   48.1134 C   0  0  0  0  0  0  0  0  0  0  0  0
    9.5762   -2.4717   49.0753 C   0  0  0  0  0  0  0  0  0  0  0  0
    9.7761   -1.2394   49.5167 C   0  0  0  0  0  0  0  0  0  0  0  0
    8.6397   -3.3252   49.7339 C   0  0  0  0  0  0  0  0  0  0  0  0
    8.9861   -0.7034   50.5819 C   0  0  0  0  0  0  0  0  0  0  0  0
   14.7137    0.5128   47.0925 C   0  0  0  0  0  0  0  0  0  0  0  0
    8.3536   -4.6815   49.2042 C   0  0  0  0  0  0  0  0  0  0  0  0
    7.9034   -2.7594   50.6763 C   0  0  0  0  0  0  0  0  0  0  0  0
    6.9327   -5.0150   49.0248 N   0  0  0  0  0  0  0  0  0  0  0  0
    8.1305   -1.4992   51.1482 C   0  0  0  0  0  0  0  0  0  0  0  0
    6.3852   -3.9495   48.3951 C   0  0  0  0  0  0  0  0  0  0  0  0
   13.6768   -1.2836   48.4696 C   0  0  0  0  0  0  0  0  0  0  0  0
   14.7714   -1.2324   49.3357 C   0  0  0  0  0  0  0  0  0  0  0  0
   12.4977   -2.1502   48.5649 C   0  0  0  0  0  0  0  0  0  0  0  0
   14.6552    1.3736   46.0074 C   0  0  0  0  0  0  0  0  0  0  0  0
   14.3522    2.5721   46.2405 O   0  0  0  0  0  0  0  0  0  0  0  0
   15.7189    0.5288   48.0235 C   0  0  0  0  0  0  0  0  0  0  0  0
   15.7044   -0.3298   49.1148 C   0  0  0  0  0  0  0  0  0  0  0  0
  1  2  2  0
  2  3  1  0
  2  4  1  0
  3  5  1  0
  4  6  2  0
  5  7  1  0
  4  8  1  0
  8  9  2  0
  8 10  1  0
  3 11  1  0
 10 11  2  0
  6 12  1  0
  7 13  2  0
 11 14  1  0
 13 15  1  0
  9 16  1  0
 17  7  1  6
 14 17  1  0
 14 18  2  0
 18 19  1  0
 15 20  2  0
 17 20  1  0
 12 21  1  0
 19 22  1  0
  9 23  1  0
 12 23  2  0
 21 24  1  0
 19 25  2  0
 20 25  1  0
 24 26  1  0
 24 27  2  0
  5 28  1  1
 26 29  1  0
 26 30  2  0
 30 31  1  0
 29 32  1  0
 32 33  1  0
 33 34  1  0
 33 35  2  0
 34 36  2  0
 31 37  2  0
 35 38  1  0
 35 39  1  0
 38 40  1  0
 36 41  1  0
 39 41  2  0
 16 42  1  0
 40 42  1  0
 31 43  1  0
 43 44  2  0
 29 45  1  0
 43 45  1  0
 37 46  1  0
 46 47  1  0
 37 48  1  0
 44 49  1  0
 48 49  2  0
M  END
$$$$
O14757_Pocket2Mol_idx-in-all-generaetd-300
     RDKit          3D

 47 55  0  0  0  0  0  0  0  0999 V2000
    5.3420    0.2589   42.8836 O   0  0  0  0  0  0  0  0  0  0  0  0
    5.1627   -0.7554   43.4753 C   0  0  0  0  0  0  0  0  0  0  0  0
    4.0509   -1.4657   43.4177 N   0  0  0  0  0  0  0  0  0  0  0  0
    5.9969   -1.2317   44.6840 C   0  0  0  0  0  0  0  0  0  0  0  0
    2.9618   -1.1021   42.5918 C   0  0  1  0  0  0  0  0  0  0  0  0
    7.3392   -0.8596   44.8412 C   0  0  0  0  0  0  0  0  0  0  0  0
    1.9754   -2.0820   42.2741 C   0  0  0  0  0  0  0  0  0  0  0  0
    5.5910   -2.4282   45.3439 C   0  0  0  0  0  0  0  0  0  0  0  0
    6.5874   -2.9636   46.1581 C   0  0  0  0  0  0  0  0  0  0  0  0
    4.2763   -3.0680   45.0493 N   0  0  0  0  0  0  0  0  0  0  0  0
    3.6188   -2.5886   44.2024 C   0  0  0  0  0  0  0  0  0  0  0  0
    8.1921   -1.4071   45.7505 C   0  0  0  0  0  0  0  0  0  0  0  0
    1.0154   -1.8839   41.2980 C   0  0  0  0  0  0  0  0  0  0  0  0
    2.5720   -3.3564   43.9063 C   0  0  0  0  0  0  0  0  0  0  0  0
    0.2502   -2.8976   41.0751 C   0  0  0  0  0  0  0  0  0  0  0  0
    6.1761   -4.1775   47.0209 C   0  0  0  0  0  0  0  0  0  0  0  0
    1.7266   -3.1047   43.0115 C   0  0  2  0  0  0  0  0  0  0  0  0
    2.3696   -4.5367   44.7536 N   0  0  0  0  0  0  0  0  0  0  0  0
    1.2264   -5.2346   44.4693 C   0  0  0  0  0  0  0  0  0  0  0  0
    0.7187   -3.8955   42.5465 C   0  0  0  0  0  0  0  0  0  0  0  0
    9.4576   -0.8949   46.0327 N   0  0  0  0  0  0  0  0  0  0  0  0
    0.8625   -6.3901   45.2462 C   0  0  0  0  0  0  0  0  0  0  0  0
    7.6467   -2.5139   46.4892 C   0  0  0  0  0  0  0  0  0  0  0  0
   10.4908   -1.5336   45.8242 C   0  0  0  0  0  0  0  0  0  0  0  0
    0.3057   -4.9299   43.2909 C   0  0  0  0  0  0  0  0  0  0  0  0
   11.5916   -1.4291   46.7436 C   0  0  0  0  0  0  0  0  0  0  0  0
   10.5566   -2.3672   44.8649 O   0  0  0  0  0  0  0  0  0  0  0  0
    2.4730    0.2084   42.8389 O   0  0  0  0  0  0  0  0  0  0  0  0
   11.6027   -2.2081   47.7725 N   0  0  0  0  0  0  0  0  0  0  0  0
   12.6189   -0.5862   46.5415 C   0  0  0  0  0  0  0  0  0  0  0  0
   13.6413   -0.4484   47.4129 C   0  0  0  0  0  0  0  0  0  0  0  0
   10.4764   -3.1097   48.1134 C   0  0  0  0  0  0  0  0  0  0  0  0
    9.5762   -2.4717   49.0753 C   0  0  0  0  0  0  0  0  0  0  0  0
    9.7761   -1.2394   49.5167 C   0  0  0  0  0  0  0  0  0  0  0  0
    8.6397   -3.3252   49.7339 C   0  0  0  0  0  0  0  0  0  0  0  0
    8.9861   -0.7034   50.5819 C   0  0  0  0  0  0  0  0  0  0  0  0
   14.7137    0.5128   47.0925 C   0  0  0  0  0  0  0  0  0  0  0  0
    8.3536   -4.6815   49.2042 C   0  0  0  0  0  0  0  0  0  0  0  0
    7.9034   -2.7594   50.6763 C   0  0  0  0  0  0  0  0  0  0  0  0
    6.9327   -5.0150   49.0248 N   0  0  0  0  0  0  0  0  0  0  0  0
    8.1305   -1.4992   51.1482 C   0  0  0  0  0  0  0  0  0  0  0  0
    6.3852   -3.9495   48.3951 C   0  0  0  0  0  0  0  0  0  0  0  0
   13.6768   -1.2836   48.4696 C   0  0  0  0  0  0  0  0  0  0  0  0
   14.7714   -1.2324   49.3357 C   0  0  0  0  0  0  0  0  0  0  0  0
   12.4977   -2.1502   48.5649 C   0  0  0  0  0  0  0  0  0  0  0  0
   15.7923   -0.2806   49.1621 C   0  0  0  0  0  0  0  0  0  0  0  0
   15.5508    0.5972   47.9087 C   0  0  0  0  0  0  0  0  0  0  0  0
  1  2  2  0
  2  3  1  0
  2  4  1  0
  3  5  1  0
  4  6  2  0
  5  7  1  0
  4  8  1  0
  8  9  2  0
  8 10  1  0
  3 11  1  0
 10 11  2  0
  6 12  1  0
  7 13  2  0
 11 14  1  0
 13 15  1  0
  9 16  1  0
 17  7  1  6
 14 17  1  0
 14 18  2  0
 18 19  1  0
 15 20  2  0
 17 20  1  0
 12 21  1  0
 19 22  1  0
  9 23  1  0
 12 23  2  0
 21 24  1  0
 19 25  2  0
 20 25  1  0
 24 26  1  0
 24 27  2  0
  5 28  1  1
 26 29  1  0
 26 30  2  0
 30 31  1  0
 29 32  1  0
 32 33  1  0
 33 34  1  0
 33 35  2  0
 34 36  2  0
 31 37  2  0
 35 38  1  0
 35 39  1  0
 38 40  1  0
 36 41  1  0
 39 41  2  0
 16 42  1  0
 40 42  1  0
 31 43  1  0
 43 44  2  0
 29 45  1  0
 43 45  1  0
 44 46  1  0
 37 47  1  0
 46 47  2  0
M  END
$$$$
O14757_Pocket2Mol_idx-in-all-generaetd-301
     RDKit          3D

 48 56  0  0  0  0  0  0  0  0999 V2000
    5.3420    0.2589   42.8836 O   0  0  0  0  0  0  0  0  0  0  0  0
    5.1627   -0.7554   43.4753 C   0  0  0  0  0  0  0  0  0  0  0  0
    4.0509   -1.4657   43.4177 N   0  0  0  0  0  0  0  0  0  0  0  0
    5.9969   -1.2317   44.6840 C   0  0  0  0  0  0  0  0  0  0  0  0
    2.9618   -1.1021   42.5918 C   0  0  1  0  0  0  0  0  0  0  0  0
    7.3392   -0.8596   44.8412 C   0  0  0  0  0  0  0  0  0  0  0  0
    1.9754   -2.0820   42.2741 C   0  0  0  0  0  0  0  0  0  0  0  0
    5.5910   -2.4282   45.3439 C   0  0  0  0  0  0  0  0  0  0  0  0
    6.5874   -2.9636   46.1581 C   0  0  0  0  0  0  0  0  0  0  0  0
    4.2763   -3.0680   45.0493 N   0  0  0  0  0  0  0  0  0  0  0  0
    3.6188   -2.5886   44.2024 C   0  0  0  0  0  0  0  0  0  0  0  0
    8.1921   -1.4071   45.7505 C   0  0  0  0  0  0  0  0  0  0  0  0
    1.0154   -1.8839   41.2980 C   0  0  0  0  0  0  0  0  0  0  0  0
    2.5720   -3.3564   43.9063 C   0  0  0  0  0  0  0  0  0  0  0  0
    0.2502   -2.8976   41.0751 C   0  0  0  0  0  0  0  0  0  0  0  0
    6.1761   -4.1775   47.0209 C   0  0  0  0  0  0  0  0  0  0  0  0
    1.7266   -3.1047   43.0115 C   0  0  2  0  0  0  0  0  0  0  0  0
    2.3696   -4.5367   44.7536 N   0  0  0  0  0  0  0  0  0  0  0  0
    1.2264   -5.2346   44.4693 C   0  0  0  0  0  0  0  0  0  0  0  0
    0.7187   -3.8955   42.5465 C   0  0  0  0  0  0  0  0  0  0  0  0
    9.4576   -0.8949   46.0327 N   0  0  0  0  0  0  0  0  0  0  0  0
    0.8625   -6.3901   45.2462 C   0  0  0  0  0  0  0  0  0  0  0  0
    7.6467   -2.5139   46.4892 C   0  0  0  0  0  0  0  0  0  0  0  0
   10.4908   -1.5336   45.8242 C   0  0  0  0  0  0  0  0  0  0  0  0
    0.3057   -4.9299   43.2909 C   0  0  0  0  0  0  0  0  0  0  0  0
   11.5916   -1.4291   46.7436 C   0  0  0  0  0  0  0  0  0  0  0  0
   10.5566   -2.3672   44.8649 O   0  0  0  0  0  0  0  0  0  0  0  0
    2.4730    0.2084   42.8389 O   0  0  0  0  0  0  0  0  0  0  0  0
   11.6027   -2.2081   47.7725 N   0  0  0  0  0  0  0  0  0  0  0  0
   12.6189   -0.5862   46.5415 C   0  0  0  0  0  0  0  0  0  0  0  0
   13.6413   -0.4484   47.4129 C   0  0  0  0  0  0  0  0  0  0  0  0
   10.4764   -3.1097   48.1134 C   0  0  0  0  0  0  0  0  0  0  0  0
    9.5762   -2.4717   49.0753 C   0  0  0  0  0  0  0  0  0  0  0  0
    9.7761   -1.2394   49.5167 C   0  0  0  0  0  0  0  0  0  0  0  0
    8.6397   -3.3252   49.7339 C   0  0  0  0  0  0  0  0  0  0  0  0
    8.9861   -0.7034   50.5819 C   0  0  0  0  0  0  0  0  0  0  0  0
   14.7137    0.5128   47.0925 C   0  0  0  0  0  0  0  0  0  0  0  0
    8.3536   -4.6815   49.2042 C   0  0  0  0  0  0  0  0  0  0  0  0
    7.9034   -2.7594   50.6763 C   0  0  0  0  0  0  0  0  0  0  0  0
    6.9327   -5.0150   49.0248 N   0  0  0  0  0  0  0  0  0  0  0  0
    8.1305   -1.4992   51.1482 C   0  0  0  0  0  0  0  0  0  0  0  0
    6.3852   -3.9495   48.3951 C   0  0  0  0  0  0  0  0  0  0  0  0
   13.6768   -1.2836   48.4696 C   0  0  0  0  0  0  0  0  0  0  0  0
   14.7714   -1.2324   49.3357 C   0  0  0  0  0  0  0  0  0  0  0  0
   14.6039    1.3613   46.0092 O   0  0  0  0  0  0  0  0  0  0  0  0
   12.6503   -2.2414   48.6608 C   0  0  0  0  0  0  0  0  0  0  0  0
   15.7218    0.6591   47.9863 C   0  0  0  0  0  0  0  0  0  0  0  0
   15.6530   -0.2672   49.0721 C   0  0  0  0  0  0  0  0  0  0  0  0
  1  2  2  0
  2  3  1  0
  2  4  1  0
  3  5  1  0
  4  6  2  0
  5  7  1  0
  4  8  1  0
  8  9  2  0
  8 10  1  0
  3 11  1  0
 10 11  2  0
  6 12  1  0
  7 13  2  0
 11 14  1  0
 13 15  1  0
  9 16  1  0
 17  7  1  6
 14 17  1  0
 14 18  2  0
 18 19  1  0
 15 20  2  0
 17 20  1  0
 12 21  1  0
 19 22  1  0
  9 23  1  0
 12 23  2  0
 21 24  1  0
 19 25  2  0
 20 25  1  0
 24 26  1  0
 24 27  2  0
  5 28  1  1
 26 29  1  0
 26 30  2  0
 30 31  1  0
 29 32  1  0
 32 33  1  0
 33 34  1  0
 33 35  2  0
 34 36  2  0
 31 37  2  0
 35 38  1  0
 35 39  1  0
 38 40  1  0
 36 41  1  0
 39 41  2  0
 16 42  1  0
 40 42  1  0
 31 43  1  0
 43 44  2  0
 37 45  1  0
 29 46  1  0
 43 46  1  0
 37 47  1  0
 44 48  1  0
 47 48  2  0
M  END
$$$$
O14757_Pocket2Mol_idx-in-all-generaetd-302
     RDKit          3D

 31 35  0  0  0  0  0  0  0  0999 V2000
    1.5482   -0.3111   41.9233 C   0  0  0  0  0  0  0  0  0  0  0  0
    2.7284    0.2018   42.1525 N   0  0  0  0  0  0  0  0  0  0  0  0
    3.7893   -0.3016   42.7005 C   0  0  0  0  0  0  0  0  0  0  0  0
    3.3781   -1.7350   43.0000 C   0  0  0  0  0  0  0  0  0  0  0  0
    2.0339   -1.9619   42.6217 C   0  0  0  0  0  0  0  0  0  0  0  0
    4.1166   -2.4997   43.8458 C   0  0  0  0  0  0  0  0  0  0  0  0
    1.1731   -3.0051   42.5773 C   0  0  0  0  0  0  0  0  0  0  0  0
    0.4701   -3.2344   41.4901 C   0  0  0  0  0  0  0  0  0  0  0  0
    5.3799   -1.7814   44.2691 C   0  0  0  0  0  0  0  0  0  0  0  0
    5.0159   -0.0180   43.1201 N   0  0  0  0  0  0  0  0  0  0  0  0
    5.7693   -0.6937   43.8418 C   0  0  0  0  0  0  0  0  0  0  0  0
    0.8078   -3.6166   43.6782 C   0  0  0  0  0  0  0  0  0  0  0  0
    0.0663   -4.7011   43.7415 N   0  0  0  0  0  0  0  0  0  0  0  0
    6.2223   -2.6843   45.1565 C   0  0  0  0  0  0  0  0  0  0  0  0
    1.4459   -3.3095   45.0236 O   0  0  0  0  0  0  0  0  0  0  0  0
   -0.5278   -5.1074   42.5506 C   0  0  0  0  0  0  0  0  0  0  0  0
   -1.3099   -6.2193   42.5332 N   0  0  0  0  0  0  0  0  0  0  0  0
   -0.3906   -4.3573   41.3904 C   0  0  0  0  0  0  0  0  0  0  0  0
    7.0535   -0.4845   44.4478 N   0  0  0  0  0  0  0  0  0  0  0  0
    0.6210   -3.8397   46.1835 C   0  0  0  0  0  0  0  0  0  0  0  0
    6.2906   -3.7888   45.8815 C   0  0  0  0  0  0  0  0  0  0  0  0
    7.3965   -1.5466   45.3147 C   0  0  0  0  0  0  0  0  0  0  0  0
    5.1449   -4.4973   46.0473 O   0  0  0  0  0  0  0  0  0  0  0  0
    7.4148   -4.1081   46.6372 C   0  0  0  0  0  0  0  0  0  0  0  0
    8.5011   -3.1747   46.6693 C   0  0  0  0  0  0  0  0  0  0  0  0
    8.4580   -1.9168   46.0438 C   0  0  0  0  0  0  0  0  0  0  0  0
    9.8193   -3.4927   47.5654 C   0  0  0  0  0  0  0  0  0  0  0  0
    4.0118   -4.2516   46.7104 C   0  0  0  0  0  0  0  0  0  0  0  0
   10.1722   -2.5676   48.4217 O   0  0  0  0  0  0  0  0  0  0  0  0
   10.3735   -4.5533   47.4077 O   0  0  0  0  0  0  0  0  0  0  0  0
   11.3362   -2.7611   48.9930 C   0  0  0  0  0  0  0  0  0  0  0  0
  1  2  1  0
  2  3  2  0
  3  4  1  0
  1  5  2  0
  4  5  1  0
  4  6  2  0
  5  7  1  0
  7  8  2  0
  6  9  1  0
  3 10  1  0
  9 11  1  0
 10 11  1  0
  7 12  1  0
 12 13  2  0
  9 14  2  0
 12 15  1  0
 13 16  1  0
 16 17  1  0
  8 18  1  0
 16 18  2  0
 11 19  2  0
 15 20  1  0
 14 21  1  0
 14 22  1  0
 19 22  1  0
 21 23  1  0
 21 24  2  0
 24 25  1  0
 22 26  2  0
 25 26  2  0
 25 27  1  0
 23 28  1  0
 27 29  1  0
 27 30  2  0
 29 31  1  0
M  END
$$$$
O14757_Pocket2Mol_idx-in-all-generaetd-303
     RDKit          3D

 32 37  0  0  0  0  0  0  0  0999 V2000
    5.5575   -0.4055   43.2321 N   0  0  0  0  0  0  0  0  0  0  0  0
    4.5233    0.0727   42.5988 N   0  0  0  0  0  0  0  0  0  0  0  0
    5.1726   -1.5114   43.9314 C   0  0  0  0  0  0  0  0  0  0  0  0
    5.9080   -2.2268   44.9217 C   0  0  0  0  0  0  0  0  0  0  0  0
    5.3635   -3.3861   45.5121 C   0  0  0  0  0  0  0  0  0  0  0  0
    7.1791   -1.7734   45.4544 C   0  0  0  0  0  0  0  0  0  0  0  0
    3.4069   -0.5377   42.5980 C   0  0  0  0  0  0  0  0  0  0  0  0
    2.1839   -0.4257   41.9942 C   0  0  0  0  0  0  0  0  0  0  0  0
    3.7449   -1.7453   43.5024 C   0  0  0  0  0  0  0  0  0  0  0  0
    7.8525   -0.6503   45.0420 O   0  0  0  0  0  0  0  0  0  0  0  0
    7.8789   -2.5576   46.3941 C   0  0  0  0  0  0  0  0  0  0  0  0
    2.8045   -2.7414   43.6928 C   0  0  1  0  0  0  0  0  0  0  0  0
    9.2115   -2.0969   46.8642 C   0  0  0  0  0  0  0  0  0  0  0  0
    4.0793   -3.8977   45.1232 C   0  0  1  0  0  0  0  0  0  0  0  0
    7.1913   -3.6941   46.9496 C   0  0  0  0  0  0  0  0  0  0  0  0
    6.0590   -4.0757   46.5019 C   0  0  0  0  0  0  0  0  0  0  0  0
    1.6490   -2.6373   42.8534 C   0  0  0  0  0  0  0  0  0  0  0  0
    0.5956   -3.6893   42.8101 C   0  0  0  0  0  0  0  0  0  0  0  0
    9.3005   -1.4726   47.8971 O   0  0  0  0  0  0  0  0  0  0  0  0
    1.3376   -1.5114   42.0773 C   0  0  0  0  0  0  0  0  0  0  0  0
    3.0680   -3.8779   44.4095 C   0  0  1  0  0  0  0  0  0  0  0  0
    0.6235   -4.4716   43.7755 C   0  0  0  0  0  0  0  0  0  0  0  0
    1.9482   -4.8212   44.4690 N   0  0  0  0  0  0  0  0  0  0  0  0
    2.2980   -5.9094   45.3439 C   0  0  0  0  0  0  0  0  0  0  0  0
    3.9139   -5.2979   45.9567 C   0  0  0  0  0  0  0  0  0  0  0  0
   10.2096   -2.4213   46.1194 N   0  0  0  0  0  0  0  0  0  0  0  0
   11.5515   -2.0818   46.5303 C   0  0  2  0  0  0  0  0  0  0  0  0
   12.2461   -1.2417   45.7316 C   0  0  0  0  0  0  0  0  0  0  0  0
   12.2620   -3.5467   46.4883 C   0  0  0  0  0  0  0  0  0  0  0  0
   13.4888   -3.6085   46.7987 O   0  0  0  0  0  0  0  0  0  0  0  0
   11.6641   -4.4123   45.8467 O   0  0  0  0  0  0  0  0  0  0  0  0
   11.3423   -5.5633   46.5689 C   0  0  0  0  0  0  0  0  0  0  0  0
  1  2  2  0
  1  3  1  0
  3  4  1  0
  4  5  2  0
  4  6  1  0
  2  7  1  0
  7  8  2  0
  3  9  2  0
  7  9  1  0
  6 10  1  0
  6 11  2  0
  9 12  1  0
 11 13  1  0
  5 14  1  0
 11 15  1  0
  5 16  1  0
 15 16  2  0
 12 17  1  6
 17 18  1  0
 13 19  2  0
  8 20  1  0
 17 20  2  0
 12 21  1  0
 14 21  1  0
 18 22  1  0
 21 23  1  1
 22 23  1  0
 23 24  1  0
 14 25  1  6
 24 25  1  0
 13 26  1  0
 26 27  1  0
 27 28  1  6
 27 29  1  0
 29 30  2  0
 29 31  1  0
 31 32  1  0
M  END
$$$$
O14757_Pocket2Mol_idx-in-all-generaetd-304
     RDKit          3D

 46 54  0  0  0  0  0  0  0  0999 V2000
    1.5482   -0.3111   41.9233 C   0  0  0  0  0  0  0  0  0  0  0  0
    2.7284    0.2018   42.1525 N   0  0  0  0  0  0  0  0  0  0  0  0
    3.7893   -0.3016   42.7005 C   0  0  0  0  0  0  0  0  0  0  0  0
    3.3781   -1.7350   43.0000 C   0  0  0  0  0  0  0  0  0  0  0  0
    2.0339   -1.9619   42.6217 C   0  0  0  0  0  0  0  0  0  0  0  0
    5.0090    0.1219   42.9340 N   0  0  0  0  0  0  0  0  0  0  0  0
    4.2895   -2.4979   43.6707 C   0  0  0  0  0  0  0  0  0  0  0  0
    5.8391   -0.6675   43.6343 C   0  0  0  0  0  0  0  0  0  0  0  0
    6.9849   -0.2377   44.0028 N   0  0  0  0  0  0  0  0  0  0  0  0
    4.0426   -3.8794   44.0832 C   0  0  0  0  0  0  0  0  0  0  0  0
    7.6796   -0.8734   44.9326 C   0  0  0  0  0  0  0  0  0  0  0  0
    1.1064   -2.9576   42.4211 C   0  0  0  0  0  0  0  0  0  0  0  0
    5.5298   -1.9496   44.0315 C   0  0  0  0  0  0  0  0  0  0  0  0
    3.8954   -4.1817   45.4718 C   0  0  0  0  0  0  0  0  0  0  0  0
    0.6765   -3.5480   43.4006 C   0  0  1  0  0  0  0  0  0  0  0  0
    0.5804   -3.2191   41.1635 C   0  0  0  0  0  0  0  0  0  0  0  0
    2.8083   -4.8227   45.9203 N   0  0  0  0  0  0  0  0  0  0  0  0
   -0.1574   -4.5754   42.9329 N   0  0  0  0  0  0  0  0  0  0  0  0
    6.5271   -2.5531   44.9677 C   0  0  0  0  0  0  0  0  0  0  0  0
   -0.2272   -4.3703   41.5137 C   0  0  0  0  0  0  0  0  0  0  0  0
    7.5095   -2.0029   45.3993 C   0  0  0  0  0  0  0  0  0  0  0  0
    8.2550   -2.6982   46.3988 C   0  0  0  0  0  0  0  0  0  0  0  0
    8.8975   -0.3029   45.3267 O   0  0  0  0  0  0  0  0  0  0  0  0
    4.8299   -4.4637   46.4212 C   0  0  0  0  0  0  0  0  0  0  0  0
    4.2707   -4.9248   47.6295 N   0  0  0  0  0  0  0  0  0  0  0  0
    3.2045   -5.2092   47.1521 C   0  0  0  0  0  0  0  0  0  0  0  0
    1.4482   -4.6186   45.4134 C   0  0  1  0  0  0  0  0  0  0  0  0
    1.2398   -3.5043   44.6236 O   0  0  0  0  0  0  0  0  0  0  0  0
    6.3317   -3.9297   46.0870 C   0  0  2  0  0  0  0  0  0  0  0  0
    9.5296   -2.5449   46.9776 C   0  0  0  0  0  0  0  0  0  0  0  0
    9.7921   -1.7530   47.9018 O   0  0  0  0  0  0  0  0  0  0  0  0
    7.3972   -3.8130   46.7939 C   0  0  0  0  0  0  0  0  0  0  0  0
    1.2392   -5.7793   44.5610 C   0  0  0  0  0  0  0  0  0  0  0  0
   10.4982   -3.2564   46.4837 N   0  0  0  0  0  0  0  0  0  0  0  0
   10.3664   -4.3024   45.6489 C   0  0  0  0  0  0  0  0  0  0  0  0
   11.8563   -2.7253   46.7001 C   0  0  0  0  0  0  0  0  0  0  0  0
   12.5920   -2.4093   45.4967 C   0  0  0  0  0  0  0  0  0  0  0  0
   10.3017   -5.6302   46.4426 C   0  0  0  0  0  0  0  0  0  0  0  0
   13.9027   -1.9790   45.6656 C   0  0  0  0  0  0  0  0  0  0  0  0
   14.7333   -1.6417   44.4234 C   0  0  0  0  0  0  0  0  0  0  0  0
   14.3053   -1.7239   46.9264 C   0  0  0  0  0  0  0  0  0  0  0  0
   12.3313   -2.4719   47.9110 C   0  0  0  0  0  0  0  0  0  0  0  0
   11.6262   -2.7678   49.1275 O   0  0  0  0  0  0  0  0  0  0  0  0
   13.6346   -1.9899   48.0344 C   0  0  0  0  0  0  0  0  0  0  0  0
   15.9211   -2.0437   44.3626 O   0  0  0  0  0  0  0  0  0  0  0  0
   14.1530   -1.3052   43.3714 O   0  0  0  0  0  0  0  0  0  0  0  0
  1  2  1  0
  2  3  2  0
  3  4  1  0
  1  5  2  0
  4  5  1  0
  3  6  1  0
  4  7  2  0
  6  8  1  0
  8  9  1  0
  7 10  1  0
  9 11  1  0
  5 12  1  0
  7 13  1  0
  8 13  2  0
 10 14  1  0
 12 15  1  0
 12 16  2  0
 14 17  1  0
 15 18  1  0
 13 19  1  0
 16 20  1  0
 18 20  2  0
 11 21  1  0
 19 21  2  0
 21 22  1  0
 11 23  2  0
 14 24  2  0
 24 25  1  0
 17 26  1  0
 25 26  2  0
 17 27  1  0
 15 28  1  6
 27 28  1  0
 19 29  1  0
 24 29  1  0
 22 30  1  0
 30 31  2  0
 22 32  2  0
 29 32  1  1
 27 33  1  6
 30 34  1  0
 34 35  1  0
 34 36  1  0
 36 37  2  0
 35 38  1  0
 37 39  1  0
 39 40  1  0
 39 41  2  0
 36 42  1  0
 42 43  1  0
 41 44  1  0
 42 44  2  0
 40 45  1  0
 40 46  2  0
M  END
$$$$
O14757_Pocket2Mol_idx-in-all-generaetd-305
     RDKit          3D

 46 53  0  0  0  0  0  0  0  0999 V2000
    5.3420    0.2589   42.8836 O   0  0  0  0  0  0  0  0  0  0  0  0
    5.1627   -0.7554   43.4753 C   0  0  0  0  0  0  0  0  0  0  0  0
    4.0509   -1.4657   43.4177 N   0  0  0  0  0  0  0  0  0  0  0  0
    5.9969   -1.2317   44.6840 C   0  0  0  0  0  0  0  0  0  0  0  0
    2.9618   -1.1021   42.5918 C   0  0  1  0  0  0  0  0  0  0  0  0
    7.3392   -0.8596   44.8412 C   0  0  0  0  0  0  0  0  0  0  0  0
    1.9754   -2.0820   42.2741 C   0  0  0  0  0  0  0  0  0  0  0  0
    5.5910   -2.4282   45.3439 C   0  0  0  0  0  0  0  0  0  0  0  0
    6.5874   -2.9636   46.1581 C   0  0  0  0  0  0  0  0  0  0  0  0
    4.2763   -3.0680   45.0493 N   0  0  0  0  0  0  0  0  0  0  0  0
    3.6188   -2.5886   44.2024 C   0  0  0  0  0  0  0  0  0  0  0  0
    8.1921   -1.4071   45.7505 C   0  0  0  0  0  0  0  0  0  0  0  0
    1.0154   -1.8839   41.2980 C   0  0  0  0  0  0  0  0  0  0  0  0
    2.5720   -3.3564   43.9063 C   0  0  0  0  0  0  0  0  0  0  0  0
    0.2502   -2.8976   41.0751 C   0  0  0  0  0  0  0  0  0  0  0  0
    6.1761   -4.1775   47.0209 C   0  0  0  0  0  0  0  0  0  0  0  0
    1.7266   -3.1047   43.0115 C   0  0  2  0  0  0  0  0  0  0  0  0
    2.3696   -4.5367   44.7536 N   0  0  0  0  0  0  0  0  0  0  0  0
    1.2264   -5.2346   44.4693 C   0  0  0  0  0  0  0  0  0  0  0  0
    0.7187   -3.8955   42.5465 C   0  0  0  0  0  0  0  0  0  0  0  0
    9.4576   -0.8949   46.0327 N   0  0  0  0  0  0  0  0  0  0  0  0
    0.8625   -6.3901   45.2462 C   0  0  0  0  0  0  0  0  0  0  0  0
    7.6467   -2.5139   46.4892 C   0  0  0  0  0  0  0  0  0  0  0  0
   10.4908   -1.5336   45.8242 C   0  0  0  0  0  0  0  0  0  0  0  0
    0.3057   -4.9299   43.2909 C   0  0  0  0  0  0  0  0  0  0  0  0
   11.5916   -1.4291   46.7436 C   0  0  0  0  0  0  0  0  0  0  0  0
   10.5566   -2.3672   44.8649 O   0  0  0  0  0  0  0  0  0  0  0  0
    2.4730    0.2084   42.8389 O   0  0  0  0  0  0  0  0  0  0  0  0
   11.6027   -2.2081   47.7725 N   0  0  0  0  0  0  0  0  0  0  0  0
   12.6189   -0.5862   46.5415 C   0  0  0  0  0  0  0  0  0  0  0  0
   13.6413   -0.4484   47.4129 C   0  0  0  0  0  0  0  0  0  0  0  0
   10.4764   -3.1097   48.1134 C   0  0  0  0  0  0  0  0  0  0  0  0
    9.5762   -2.4717   49.0753 C   0  0  0  0  0  0  0  0  0  0  0  0
    9.7761   -1.2394   49.5167 C   0  0  0  0  0  0  0  0  0  0  0  0
    8.6397   -3.3252   49.7339 C   0  0  0  0  0  0  0  0  0  0  0  0
    8.9861   -0.7034   50.5819 C   0  0  0  0  0  0  0  0  0  0  0  0
   14.7137    0.5128   47.0925 C   0  0  0  0  0  0  0  0  0  0  0  0
    8.3536   -4.6815   49.2042 C   0  0  0  0  0  0  0  0  0  0  0  0
    7.9034   -2.7594   50.6763 C   0  0  0  0  0  0  0  0  0  0  0  0
    6.9327   -5.0150   49.0248 N   0  0  0  0  0  0  0  0  0  0  0  0
    8.1305   -1.4992   51.1482 C   0  0  0  0  0  0  0  0  0  0  0  0
    6.3852   -3.9495   48.3951 C   0  0  0  0  0  0  0  0  0  0  0  0
   14.9941    0.5987   46.0361 O   0  0  0  0  0  0  0  0  0  0  0  0
   13.6169   -1.2526   48.4760 C   0  0  0  0  0  0  0  0  0  0  0  0
   12.6291   -2.1494   48.6660 C   0  0  0  0  0  0  0  0  0  0  0  0
   15.1824    0.9293   48.1003 O   0  0  0  0  0  0  0  0  0  0  0  0
  1  2  2  0
  2  3  1  0
  2  4  1  0
  3  5  1  0
  4  6  2  0
  5  7  1  0
  4  8  1  0
  8  9  2  0
  8 10  1  0
  3 11  1  0
 10 11  2  0
  6 12  1  0
  7 13  2  0
 11 14  1  0
 13 15  1  0
  9 16  1  0
 17  7  1  6
 14 17  1  0
 14 18  2  0
 18 19  1  0
 15 20  2  0
 17 20  1  0
 12 21  1  0
 19 22  1  0
  9 23  1  0
 12 23  2  0
 21 24  1  0
 19 25  2  0
 20 25  1  0
 24 26  1  0
 24 27  2  0
  5 28  1  1
 26 29  1  0
 26 30  2  0
 30 31  1  0
 29 32  1  0
 32 33  1  0
 33 34  1  0
 33 35  2  0
 34 36  2  0
 31 37  1  0
 35 38  1  0
 35 39  1  0
 38 40  1  0
 36 41  1  0
 39 41  2  0
 16 42  1  0
 40 42  1  0
 37 43  2  0
 31 44  2  0
 29 45  1  0
 44 45  1  0
 37 46  1  0
M  END
$$$$
O14757_Pocket2Mol_idx-in-all-generaetd-306
     RDKit          3D

 44 52  0  0  0  0  0  0  0  0999 V2000
    1.5482   -0.3111   41.9233 C   0  0  0  0  0  0  0  0  0  0  0  0
    2.7284    0.2018   42.1525 N   0  0  0  0  0  0  0  0  0  0  0  0
    3.7893   -0.3016   42.7005 C   0  0  0  0  0  0  0  0  0  0  0  0
    3.3781   -1.7350   43.0000 C   0  0  0  0  0  0  0  0  0  0  0  0
    2.0339   -1.9619   42.6217 C   0  0  0  0  0  0  0  0  0  0  0  0
    5.0090    0.1219   42.9340 N   0  0  0  0  0  0  0  0  0  0  0  0
    4.2895   -2.4979   43.6707 C   0  0  0  0  0  0  0  0  0  0  0  0
    5.8391   -0.6675   43.6343 C   0  0  0  0  0  0  0  0  0  0  0  0
    6.9849   -0.2377   44.0028 N   0  0  0  0  0  0  0  0  0  0  0  0
    4.0426   -3.8794   44.0832 C   0  0  0  0  0  0  0  0  0  0  0  0
    7.6796   -0.8734   44.9326 C   0  0  0  0  0  0  0  0  0  0  0  0
    1.1064   -2.9576   42.4211 C   0  0  0  0  0  0  0  0  0  0  0  0
    5.5298   -1.9496   44.0315 C   0  0  0  0  0  0  0  0  0  0  0  0
    3.8954   -4.1817   45.4718 C   0  0  0  0  0  0  0  0  0  0  0  0
    0.6765   -3.5480   43.4006 C   0  0  1  0  0  0  0  0  0  0  0  0
    0.5804   -3.2191   41.1635 C   0  0  0  0  0  0  0  0  0  0  0  0
    2.8083   -4.8227   45.9203 N   0  0  0  0  0  0  0  0  0  0  0  0
   -0.1574   -4.5754   42.9329 N   0  0  0  0  0  0  0  0  0  0  0  0
    6.5271   -2.5531   44.9677 C   0  0  0  0  0  0  0  0  0  0  0  0
   -0.2272   -4.3703   41.5137 C   0  0  0  0  0  0  0  0  0  0  0  0
    7.5095   -2.0029   45.3993 C   0  0  0  0  0  0  0  0  0  0  0  0
    8.2550   -2.6982   46.3988 C   0  0  0  0  0  0  0  0  0  0  0  0
    8.8975   -0.3029   45.3267 O   0  0  0  0  0  0  0  0  0  0  0  0
    4.8299   -4.4637   46.4212 C   0  0  0  0  0  0  0  0  0  0  0  0
    4.2707   -4.9248   47.6295 N   0  0  0  0  0  0  0  0  0  0  0  0
    3.2045   -5.2092   47.1521 C   0  0  0  0  0  0  0  0  0  0  0  0
    1.4482   -4.6186   45.4134 C   0  0  1  0  0  0  0  0  0  0  0  0
    1.2398   -3.5043   44.6236 O   0  0  0  0  0  0  0  0  0  0  0  0
    6.3317   -3.9297   46.0870 C   0  0  2  0  0  0  0  0  0  0  0  0
    9.5296   -2.5449   46.9776 C   0  0  0  0  0  0  0  0  0  0  0  0
    9.7921   -1.7530   47.9018 O   0  0  0  0  0  0  0  0  0  0  0  0
    7.3972   -3.8130   46.7939 C   0  0  0  0  0  0  0  0  0  0  0  0
    1.2392   -5.7793   44.5610 C   0  0  0  0  0  0  0  0  0  0  0  0
   10.4934   -3.0755   46.3117 O   0  0  0  0  0  0  0  0  0  0  0  0
   11.7815   -2.6102   46.5288 C   0  0  0  0  0  0  0  0  0  0  0  0
   12.3688   -2.2857   45.2615 C   0  0  0  0  0  0  0  0  0  0  0  0
   13.6571   -1.6435   45.3063 C   0  0  0  0  0  0  0  0  0  0  0  0
   14.2956   -1.1724   44.0010 C   0  0  0  0  0  0  0  0  0  0  0  0
   14.2846   -1.4302   46.4743 C   0  0  0  0  0  0  0  0  0  0  0  0
   15.5365   -0.7666   46.4357 C   0  0  0  0  0  0  0  0  0  0  0  0
   12.3890   -2.3591   47.6394 C   0  0  0  0  0  0  0  0  0  0  0  0
   13.6600   -1.8042   47.6341 C   0  0  0  0  0  0  0  0  0  0  0  0
   16.1555   -0.5196   47.6772 O   0  0  0  0  0  0  0  0  0  0  0  0
   16.2350   -0.5914   45.3979 O   0  0  0  0  0  0  0  0  0  0  0  0
  1  2  1  0
  2  3  2  0
  3  4  1  0
  1  5  2  0
  4  5  1  0
  3  6  1  0
  4  7  2  0
  6  8  1  0
  8  9  1  0
  7 10  1  0
  9 11  1  0
  5 12  1  0
  7 13  1  0
  8 13  2  0
 10 14  1  0
 12 15  1  0
 12 16  2  0
 14 17  1  0
 15 18  1  0
 13 19  1  0
 16 20  1  0
 18 20  2  0
 11 21  1  0
 19 21  2  0
 21 22  1  0
 11 23  2  0
 14 24  2  0
 24 25  1  0
 17 26  1  0
 25 26  2  0
 17 27  1  0
 15 28  1  6
 27 28  1  0
 19 29  1  0
 24 29  1  0
 22 30  1  0
 30 31  2  0
 22 32  2  0
 29 32  1  1
 27 33  1  6
 30 34  1  0
 34 35  1  0
 35 36  2  0
 36 37  1  0
 37 38  1  0
 37 39  2  0
 39 40  1  0
 35 41  1  0
 39 42  1  0
 41 42  2  0
 40 43  1  0
 40 44  2  0
M  END
$$$$
O14757_Pocket2Mol_idx-in-all-generaetd-307
     RDKit          3D

 47 55  0  0  0  0  0  0  0  0999 V2000
    1.5482   -0.3111   41.9233 C   0  0  0  0  0  0  0  0  0  0  0  0
    2.7284    0.2018   42.1525 N   0  0  0  0  0  0  0  0  0  0  0  0
    3.7893   -0.3016   42.7005 C   0  0  0  0  0  0  0  0  0  0  0  0
    3.3781   -1.7350   43.0000 C   0  0  0  0  0  0  0  0  0  0  0  0
    2.0339   -1.9619   42.6217 C   0  0  0  0  0  0  0  0  0  0  0  0
    5.0090    0.1219   42.9340 N   0  0  0  0  0  0  0  0  0  0  0  0
    4.2895   -2.4979   43.6707 C   0  0  0  0  0  0  0  0  0  0  0  0
    5.8391   -0.6675   43.6343 C   0  0  0  0  0  0  0  0  0  0  0  0
    6.9849   -0.2377   44.0028 N   0  0  0  0  0  0  0  0  0  0  0  0
    4.0426   -3.8794   44.0832 C   0  0  0  0  0  0  0  0  0  0  0  0
    7.6796   -0.8734   44.9326 C   0  0  0  0  0  0  0  0  0  0  0  0
    1.1064   -2.9576   42.4211 C   0  0  0  0  0  0  0  0  0  0  0  0
    5.5298   -1.9496   44.0315 C   0  0  0  0  0  0  0  0  0  0  0  0
    3.8954   -4.1817   45.4718 C   0  0  0  0  0  0  0  0  0  0  0  0
    0.6765   -3.5480   43.4006 C   0  0  1  0  0  0  0  0  0  0  0  0
    0.5804   -3.2191   41.1635 C   0  0  0  0  0  0  0  0  0  0  0  0
    2.8083   -4.8227   45.9203 N   0  0  0  0  0  0  0  0  0  0  0  0
   -0.1574   -4.5754   42.9329 N   0  0  0  0  0  0  0  0  0  0  0  0
    6.5271   -2.5531   44.9677 C   0  0  0  0  0  0  0  0  0  0  0  0
   -0.2272   -4.3703   41.5137 C   0  0  0  0  0  0  0  0  0  0  0  0
    7.5095   -2.0029   45.3993 C   0  0  0  0  0  0  0  0  0  0  0  0
    8.2550   -2.6982   46.3988 C   0  0  2  0  0  0  0  0  0  0  0  0
    8.8975   -0.3029   45.3267 O   0  0  0  0  0  0  0  0  0  0  0  0
    4.8299   -4.4637   46.4212 C   0  0  0  0  0  0  0  0  0  0  0  0
    4.2707   -4.9248   47.6295 N   0  0  0  0  0  0  0  0  0  0  0  0
    3.2045   -5.2092   47.1521 C   0  0  0  0  0  0  0  0  0  0  0  0
    1.4482   -4.6186   45.4134 C   0  0  2  0  0  0  0  0  0  0  0  0
    1.2398   -3.5043   44.6236 O   0  0  0  0  0  0  0  0  0  0  0  0
    6.3317   -3.9297   46.0870 C   0  0  2  0  0  0  0  0  0  0  0  0
    9.5296   -2.5449   46.9776 C   0  0  0  0  0  0  0  0  0  0  0  0
    9.7921   -1.7530   47.9018 O   0  0  0  0  0  0  0  0  0  0  0  0
    7.4454   -3.8344   46.8035 C   0  0  0  0  0  0  0  0  0  0  0  0
   10.5010   -3.0847   46.3190 O   0  0  0  0  0  0  0  0  0  0  0  0
    0.5569   -4.7693   46.5649 C   0  0  0  0  0  0  0  0  0  0  0  0
   11.7452   -2.8462   46.6234 C   0  0  0  0  0  0  0  0  0  0  0  0
   12.4344   -1.8951   45.7393 C   0  0  0  0  0  0  0  0  0  0  0  0
   12.4612   -3.5429   47.5581 C   0  0  0  0  0  0  0  0  0  0  0  0
   11.7737   -4.5216   48.4115 C   0  0  0  0  0  0  0  0  0  0  0  0
   11.7935   -5.7538   48.0263 C   0  0  0  0  0  0  0  0  0  0  0  0
   13.7403   -3.0985   47.8363 C   0  0  0  0  0  0  0  0  0  0  0  0
   11.7592   -1.2853   44.6374 O   0  0  0  0  0  0  0  0  0  0  0  0
   14.4771   -3.7616   48.9318 C   0  0  0  0  0  0  0  0  0  0  0  0
   11.4381   -5.9814   46.7174 O   0  0  0  0  0  0  0  0  0  0  0  0
   12.6126   -6.6322   48.3806 O   0  0  0  0  0  0  0  0  0  0  0  0
   10.3078   -6.8073   46.5188 C   0  0  0  0  0  0  0  0  0  0  0  0
   13.7317   -1.6647   45.7796 C   0  0  0  0  0  0  0  0  0  0  0  0
   14.4104   -2.2320   46.9417 C   0  0  0  0  0  0  0  0  0  0  0  0
  1  2  1  0
  2  3  2  0
  3  4  1  0
  1  5  2  0
  4  5  1  0
  3  6  1  0
  4  7  2  0
  6  8  1  0
  8  9  1  0
  7 10  1  0
  9 11  1  0
  5 12  1  0
  7 13  1  0
  8 13  2  0
 10 14  1  0
 12 15  1  0
 12 16  2  0
 14 17  1  0
 15 18  1  0
 13 19  1  0
 16 20  1  0
 18 20  2  0
 11 21  1  0
 19 21  2  0
 21 22  1  0
 11 23  2  0
 14 24  2  0
 24 25  1  0
 17 26  1  0
 25 26  2  0
 17 27  1  0
 15 28  1  6
 27 28  1  0
 19 29  1  0
 24 29  1  0
 22 30  1  6
 30 31  2  0
 22 32  1  0
 29 32  1  1
 30 33  1  0
 27 34  1  1
 33 35  1  0
 35 36  2  0
 35 37  1  0
 37 38  1  0
 38 39  1  0
 37 40  2  0
 36 41  1  0
 40 42  1  0
 39 43  1  0
 39 44  2  0
 43 45  1  0
 36 46  1  0
 40 47  1  0
 46 47  2  0
M  END
$$$$
O14757_Pocket2Mol_idx-in-all-generaetd-308
     RDKit          3D

 46 54  0  0  0  0  0  0  0  0999 V2000
    1.5482   -0.3111   41.9233 C   0  0  0  0  0  0  0  0  0  0  0  0
    2.7284    0.2018   42.1525 N   0  0  0  0  0  0  0  0  0  0  0  0
    3.7893   -0.3016   42.7005 C   0  0  0  0  0  0  0  0  0  0  0  0
    3.3781   -1.7350   43.0000 C   0  0  0  0  0  0  0  0  0  0  0  0
    2.0339   -1.9619   42.6217 C   0  0  0  0  0  0  0  0  0  0  0  0
    5.0090    0.1219   42.9340 N   0  0  0  0  0  0  0  0  0  0  0  0
    4.2895   -2.4979   43.6707 C   0  0  0  0  0  0  0  0  0  0  0  0
    5.8391   -0.6675   43.6343 C   0  0  0  0  0  0  0  0  0  0  0  0
    6.9849   -0.2377   44.0028 N   0  0  0  0  0  0  0  0  0  0  0  0
    4.0426   -3.8794   44.0832 C   0  0  0  0  0  0  0  0  0  0  0  0
    7.6796   -0.8734   44.9326 C   0  0  0  0  0  0  0  0  0  0  0  0
    1.1064   -2.9576   42.4211 C   0  0  0  0  0  0  0  0  0  0  0  0
    5.5298   -1.9496   44.0315 C   0  0  0  0  0  0  0  0  0  0  0  0
    3.8954   -4.1817   45.4718 C   0  0  0  0  0  0  0  0  0  0  0  0
    0.6765   -3.5480   43.4006 C   0  0  1  0  0  0  0  0  0  0  0  0
    0.5804   -3.2191   41.1635 C   0  0  0  0  0  0  0  0  0  0  0  0
    2.8083   -4.8227   45.9203 N   0  0  0  0  0  0  0  0  0  0  0  0
   -0.1574   -4.5754   42.9329 N   0  0  0  0  0  0  0  0  0  0  0  0
    6.5271   -2.5531   44.9677 C   0  0  0  0  0  0  0  0  0  0  0  0
   -0.2272   -4.3703   41.5137 C   0  0  0  0  0  0  0  0  0  0  0  0
    7.5095   -2.0029   45.3993 C   0  0  0  0  0  0  0  0  0  0  0  0
    8.2550   -2.6982   46.3988 C   0  0  2  0  0  0  0  0  0  0  0  0
    8.8975   -0.3029   45.3267 O   0  0  0  0  0  0  0  0  0  0  0  0
    4.8299   -4.4637   46.4212 C   0  0  0  0  0  0  0  0  0  0  0  0
    4.2707   -4.9248   47.6295 N   0  0  0  0  0  0  0  0  0  0  0  0
    3.2045   -5.2092   47.1521 C   0  0  0  0  0  0  0  0  0  0  0  0
    1.4482   -4.6186   45.4134 C   0  0  2  0  0  0  0  0  0  0  0  0
    1.2398   -3.5043   44.6236 O   0  0  0  0  0  0  0  0  0  0  0  0
    6.3317   -3.9297   46.0870 C   0  0  2  0  0  0  0  0  0  0  0  0
    9.5296   -2.5449   46.9776 C   0  0  0  0  0  0  0  0  0  0  0  0
    9.7921   -1.7530   47.9018 O   0  0  0  0  0  0  0  0  0  0  0  0
    7.4454   -3.8344   46.8035 C   0  0  0  0  0  0  0  0  0  0  0  0
   10.5010   -3.0847   46.3190 O   0  0  0  0  0  0  0  0  0  0  0  0
    0.5569   -4.7693   46.5649 C   0  0  0  0  0  0  0  0  0  0  0  0
   11.7452   -2.8462   46.6234 C   0  0  0  0  0  0  0  0  0  0  0  0
   12.4344   -1.8951   45.7393 C   0  0  0  0  0  0  0  0  0  0  0  0
   12.4612   -3.5429   47.5581 C   0  0  0  0  0  0  0  0  0  0  0  0
   11.7737   -4.5216   48.4115 C   0  0  0  0  0  0  0  0  0  0  0  0
   11.7935   -5.7538   48.0263 C   0  0  0  0  0  0  0  0  0  0  0  0
   13.8063   -3.2053   47.6588 C   0  0  0  0  0  0  0  0  0  0  0  0
   14.5455   -3.8533   48.7682 O   0  0  0  0  0  0  0  0  0  0  0  0
   14.5099   -2.3004   46.9090 C   0  0  0  0  0  0  0  0  0  0  0  0
   10.5529   -6.4269   47.6501 C   0  0  0  0  0  0  0  0  0  0  0  0
   15.8320   -2.0044   47.0383 O   0  0  0  0  0  0  0  0  0  0  0  0
   13.7607   -1.6373   45.8992 C   0  0  0  0  0  0  0  0  0  0  0  0
   10.5645   -7.0753   46.3452 C   0  0  0  0  0  0  0  0  0  0  0  0
  1  2  1  0
  2  3  2  0
  3  4  1  0
  1  5  2  0
  4  5  1  0
  3  6  1  0
  4  7  2  0
  6  8  1  0
  8  9  1  0
  7 10  1  0
  9 11  1  0
  5 12  1  0
  7 13  1  0
  8 13  2  0
 10 14  1  0
 12 15  1  0
 12 16  2  0
 14 17  1  0
 15 18  1  0
 13 19  1  0
 16 20  1  0
 18 20  2  0
 11 21  1  0
 19 21  2  0
 21 22  1  0
 11 23  2  0
 14 24  2  0
 24 25  1  0
 17 26  1  0
 25 26  2  0
 17 27  1  0
 15 28  1  6
 27 28  1  0
 19 29  1  0
 24 29  1  0
 22 30  1  6
 30 31  2  0
 22 32  1  0
 29 32  1  1
 30 33  1  0
 27 34  1  1
 33 35  1  0
 35 36  2  0
 35 37  1  0
 37 38  1  0
 38 39  1  0
 37 40  2  0
 40 41  1  0
 40 42  1  0
 39 43  1  0
 42 44  1  0
 36 45  1  0
 42 45  2  0
 43 46  1  0
M  END
$$$$
O14757_Pocket2Mol_idx-in-all-generaetd-309
     RDKit          3D

 37 42  0  0  0  0  0  0  0  0999 V2000
    5.3420    0.2589   42.8836 O   0  0  0  0  0  0  0  0  0  0  0  0
    5.1627   -0.7554   43.4753 C   0  0  0  0  0  0  0  0  0  0  0  0
    4.0509   -1.4657   43.4177 N   0  0  0  0  0  0  0  0  0  0  0  0
    5.9969   -1.2317   44.6840 C   0  0  0  0  0  0  0  0  0  0  0  0
    2.9618   -1.1021   42.5918 C   0  0  1  0  0  0  0  0  0  0  0  0
    7.3392   -0.8596   44.8412 C   0  0  0  0  0  0  0  0  0  0  0  0
    1.9754   -2.0820   42.2741 C   0  0  0  0  0  0  0  0  0  0  0  0
    5.5910   -2.4282   45.3439 C   0  0  0  0  0  0  0  0  0  0  0  0
    6.5874   -2.9636   46.1581 C   0  0  0  0  0  0  0  0  0  0  0  0
    4.2763   -3.0680   45.0493 N   0  0  0  0  0  0  0  0  0  0  0  0
    3.6188   -2.5886   44.2024 C   0  0  0  0  0  0  0  0  0  0  0  0
    8.1921   -1.4071   45.7505 C   0  0  0  0  0  0  0  0  0  0  0  0
    1.0154   -1.8839   41.2980 C   0  0  0  0  0  0  0  0  0  0  0  0
    2.5720   -3.3564   43.9063 C   0  0  0  0  0  0  0  0  0  0  0  0
    0.2502   -2.8976   41.0751 C   0  0  0  0  0  0  0  0  0  0  0  0
    6.1761   -4.1775   47.0209 C   0  0  0  0  0  0  0  0  0  0  0  0
    1.7266   -3.1047   43.0115 C   0  0  2  0  0  0  0  0  0  0  0  0
    2.3696   -4.5367   44.7536 N   0  0  0  0  0  0  0  0  0  0  0  0
    1.2264   -5.2346   44.4693 C   0  0  0  0  0  0  0  0  0  0  0  0
    0.7187   -3.8955   42.5465 C   0  0  0  0  0  0  0  0  0  0  0  0
    9.4576   -0.8949   46.0327 N   0  0  0  0  0  0  0  0  0  0  0  0
    0.8625   -6.3901   45.2462 C   0  0  0  0  0  0  0  0  0  0  0  0
    7.6467   -2.5139   46.4892 C   0  0  0  0  0  0  0  0  0  0  0  0
   10.4908   -1.5336   45.8242 C   0  0  0  0  0  0  0  0  0  0  0  0
    0.3057   -4.9299   43.2909 C   0  0  0  0  0  0  0  0  0  0  0  0
   11.5916   -1.4291   46.7436 C   0  0  0  0  0  0  0  0  0  0  0  0
   10.5566   -2.3672   44.8649 O   0  0  0  0  0  0  0  0  0  0  0  0
    2.4730    0.2084   42.8389 O   0  0  0  0  0  0  0  0  0  0  0  0
   11.6027   -2.2081   47.7725 N   0  0  0  0  0  0  0  0  0  0  0  0
   12.6189   -0.5862   46.5415 C   0  0  0  0  0  0  0  0  0  0  0  0
   13.6413   -0.4484   47.4129 C   0  0  0  0  0  0  0  0  0  0  0  0
   10.4764   -3.1097   48.1134 C   0  0  0  0  0  0  0  0  0  0  0  0
    9.5762   -2.4717   49.0753 C   0  0  0  0  0  0  0  0  0  0  0  0
   14.7227    0.4743   47.0299 O   0  0  0  0  0  0  0  0  0  0  0  0
   12.5208   -2.1649   48.7639 C   0  0  0  0  0  0  0  0  0  0  0  0
   13.7548   -1.2797   48.4590 C   0  0  0  0  0  0  0  0  0  0  0  0
   14.7949   -1.0769   49.3942 O   0  0  0  0  0  0  0  0  0  0  0  0
  1  2  2  0
  2  3  1  0
  2  4  1  0
  3  5  1  0
  4  6  2  0
  5  7  1  0
  4  8  1  0
  8  9  2  0
  8 10  1  0
  3 11  1  0
 10 11  2  0
  6 12  1  0
  7 13  2  0
 11 14  1  0
 13 15  1  0
  9 16  1  0
 17  7  1  6
 14 17  1  0
 14 18  2  0
 18 19  1  0
 15 20  2  0
 17 20  1  0
 12 21  1  0
 19 22  1  0
  9 23  1  0
 12 23  2  0
 21 24  1  0
 19 25  2  0
 20 25  1  0
 24 26  1  0
 24 27  2  0
  5 28  1  1
 26 29  1  0
 26 30  2  0
 30 31  1  0
 29 32  1  0
 32 33  1  0
 31 34  1  0
 29 35  1  0
 31 36  2  0
 35 36  1  0
 36 37  1  0
M  END
$$$$
O14757_Pocket2Mol_idx-in-all-generaetd-310
     RDKit          3D

 46 53  0  0  0  0  0  0  0  0999 V2000
    5.3420    0.2589   42.8836 O   0  0  0  0  0  0  0  0  0  0  0  0
    5.1627   -0.7554   43.4753 C   0  0  0  0  0  0  0  0  0  0  0  0
    4.0509   -1.4657   43.4177 N   0  0  0  0  0  0  0  0  0  0  0  0
    5.9969   -1.2317   44.6840 C   0  0  0  0  0  0  0  0  0  0  0  0
    2.9618   -1.1021   42.5918 C   0  0  1  0  0  0  0  0  0  0  0  0
    7.3392   -0.8596   44.8412 C   0  0  0  0  0  0  0  0  0  0  0  0
    1.9754   -2.0820   42.2741 C   0  0  0  0  0  0  0  0  0  0  0  0
    5.5910   -2.4282   45.3439 C   0  0  0  0  0  0  0  0  0  0  0  0
    6.5874   -2.9636   46.1581 C   0  0  0  0  0  0  0  0  0  0  0  0
    4.2763   -3.0680   45.0493 N   0  0  0  0  0  0  0  0  0  0  0  0
    3.6188   -2.5886   44.2024 C   0  0  0  0  0  0  0  0  0  0  0  0
    8.1921   -1.4071   45.7505 C   0  0  0  0  0  0  0  0  0  0  0  0
    1.0154   -1.8839   41.2980 C   0  0  0  0  0  0  0  0  0  0  0  0
    2.5720   -3.3564   43.9063 C   0  0  0  0  0  0  0  0  0  0  0  0
    0.2502   -2.8976   41.0751 C   0  0  0  0  0  0  0  0  0  0  0  0
    6.1761   -4.1775   47.0209 C   0  0  0  0  0  0  0  0  0  0  0  0
    1.7266   -3.1047   43.0115 C   0  0  2  0  0  0  0  0  0  0  0  0
    2.3696   -4.5367   44.7536 N   0  0  0  0  0  0  0  0  0  0  0  0
    1.2264   -5.2346   44.4693 C   0  0  0  0  0  0  0  0  0  0  0  0
    0.7187   -3.8955   42.5465 C   0  0  0  0  0  0  0  0  0  0  0  0
    9.4576   -0.8949   46.0327 N   0  0  0  0  0  0  0  0  0  0  0  0
    0.8625   -6.3901   45.2462 C   0  0  0  0  0  0  0  0  0  0  0  0
    7.6467   -2.5139   46.4892 C   0  0  0  0  0  0  0  0  0  0  0  0
   10.4908   -1.5336   45.8242 C   0  0  0  0  0  0  0  0  0  0  0  0
    0.3057   -4.9299   43.2909 C   0  0  0  0  0  0  0  0  0  0  0  0
   11.5916   -1.4291   46.7436 C   0  0  0  0  0  0  0  0  0  0  0  0
   10.5566   -2.3672   44.8649 O   0  0  0  0  0  0  0  0  0  0  0  0
    2.4730    0.2084   42.8389 O   0  0  0  0  0  0  0  0  0  0  0  0
   11.6027   -2.2081   47.7725 N   0  0  0  0  0  0  0  0  0  0  0  0
   12.6189   -0.5862   46.5415 C   0  0  0  0  0  0  0  0  0  0  0  0
   13.6413   -0.4484   47.4129 C   0  0  2  0  0  0  0  0  0  0  0  0
   10.4764   -3.1097   48.1134 C   0  0  0  0  0  0  0  0  0  0  0  0
    9.5762   -2.4717   49.0753 C   0  0  0  0  0  0  0  0  0  0  0  0
    9.7761   -1.2394   49.5167 C   0  0  0  0  0  0  0  0  0  0  0  0
    8.6397   -3.3252   49.7339 C   0  0  0  0  0  0  0  0  0  0  0  0
    8.9861   -0.7034   50.5819 C   0  0  0  0  0  0  0  0  0  0  0  0
   14.7137    0.5128   47.0925 C   0  0  0  0  0  0  0  0  0  0  0  0
    8.3536   -4.6815   49.2042 C   0  0  0  0  0  0  0  0  0  0  0  0
    7.9034   -2.7594   50.6763 C   0  0  0  0  0  0  0  0  0  0  0  0
    6.9327   -5.0150   49.0248 N   0  0  0  0  0  0  0  0  0  0  0  0
    8.1305   -1.4992   51.1482 C   0  0  0  0  0  0  0  0  0  0  0  0
   12.6952   -2.1975   48.5799 C   0  0  0  0  0  0  0  0  0  0  0  0
    6.3324   -3.9386   48.4210 C   0  0  0  0  0  0  0  0  0  0  0  0
   15.7941   -0.0082   46.7722 O   0  0  0  0  0  0  0  0  0  0  0  0
   13.5872   -1.4091   48.3015 C   0  0  0  0  0  0  0  0  0  0  0  0
   14.2705    1.6303   46.8916 O   0  0  0  0  0  0  0  0  0  0  0  0
  1  2  2  0
  2  3  1  0
  2  4  1  0
  3  5  1  0
  4  6  2  0
  5  7  1  0
  4  8  1  0
  8  9  2  0
  8 10  1  0
  3 11  1  0
 10 11  2  0
  6 12  1  0
  7 13  2  0
 11 14  1  0
 13 15  1  0
  9 16  1  0
 17  7  1  6
 14 17  1  0
 14 18  2  0
 18 19  1  0
 15 20  2  0
 17 20  1  0
 12 21  1  0
 19 22  1  0
  9 23  1  0
 12 23  2  0
 21 24  1  0
 19 25  2  0
 20 25  1  0
 24 26  1  0
 24 27  2  0
  5 28  1  1
 26 29  1  0
 26 30  2  0
 30 31  1  0
 29 32  1  0
 32 33  1  0
 33 34  1  0
 33 35  2  0
 34 36  2  0
 31 37  1  6
 35 38  1  0
 35 39  1  0
 38 40  1  0
 36 41  1  0
 39 41  2  0
 29 42  1  0
 16 43  1  0
 40 43  1  0
 37 44  2  0
 31 45  1  0
 42 45  1  0
 37 46  1  0
M  END
$$$$
O14757_Pocket2Mol_idx-in-all-generaetd-311
     RDKit          3D

 41 46  0  0  0  0  0  0  0  0999 V2000
    5.3420    0.2589   42.8836 O   0  0  0  0  0  0  0  0  0  0  0  0
    5.1627   -0.7554   43.4753 C   0  0  0  0  0  0  0  0  0  0  0  0
    4.0509   -1.4657   43.4177 N   0  0  0  0  0  0  0  0  0  0  0  0
    5.9969   -1.2317   44.6840 C   0  0  0  0  0  0  0  0  0  0  0  0
    2.9618   -1.1021   42.5918 C   0  0  0  0  0  0  0  0  0  0  0  0
    7.3392   -0.8596   44.8412 C   0  0  0  0  0  0  0  0  0  0  0  0
    1.9754   -2.0820   42.2741 C   0  0  0  0  0  0  0  0  0  0  0  0
    5.5910   -2.4282   45.3439 C   0  0  0  0  0  0  0  0  0  0  0  0
    6.5874   -2.9636   46.1581 C   0  0  0  0  0  0  0  0  0  0  0  0
    4.2763   -3.0680   45.0493 N   0  0  0  0  0  0  0  0  0  0  0  0
    3.6188   -2.5886   44.2024 C   0  0  0  0  0  0  0  0  0  0  0  0
    8.1921   -1.4071   45.7505 C   0  0  0  0  0  0  0  0  0  0  0  0
    1.0154   -1.8839   41.2980 C   0  0  0  0  0  0  0  0  0  0  0  0
    2.5720   -3.3564   43.9063 C   0  0  0  0  0  0  0  0  0  0  0  0
    0.2502   -2.8976   41.0751 C   0  0  0  0  0  0  0  0  0  0  0  0
    6.1761   -4.1775   47.0209 C   0  0  0  0  0  0  0  0  0  0  0  0
    1.7266   -3.1047   43.0115 C   0  0  2  0  0  0  0  0  0  0  0  0
    2.3696   -4.5367   44.7536 N   0  0  0  0  0  0  0  0  0  0  0  0
    1.2264   -5.2346   44.4693 C   0  0  0  0  0  0  0  0  0  0  0  0
    0.7187   -3.8955   42.5465 C   0  0  0  0  0  0  0  0  0  0  0  0
    9.4576   -0.8949   46.0327 N   0  0  0  0  0  0  0  0  0  0  0  0
    0.8625   -6.3901   45.2462 C   0  0  0  0  0  0  0  0  0  0  0  0
    7.6467   -2.5139   46.4892 C   0  0  0  0  0  0  0  0  0  0  0  0
   10.4908   -1.5336   45.8242 C   0  0  0  0  0  0  0  0  0  0  0  0
    0.3057   -4.9299   43.2909 C   0  0  0  0  0  0  0  0  0  0  0  0
   11.5916   -1.4291   46.7436 C   0  0  0  0  0  0  0  0  0  0  0  0
   10.5566   -2.3672   44.8649 O   0  0  0  0  0  0  0  0  0  0  0  0
   12.8421   -1.9355   46.2823 C   0  0  0  0  0  0  0  0  0  0  0  0
   13.4833   -2.8582   46.9841 C   0  0  0  0  0  0  0  0  0  0  0  0
   11.4002   -1.1447   48.0540 C   0  0  0  0  0  0  0  0  0  0  0  0
   10.2867   -0.4569   48.4999 O   0  0  0  0  0  0  0  0  0  0  0  0
   12.3327   -1.4798   48.9564 C   0  0  0  0  0  0  0  0  0  0  0  0
   14.7901   -3.3162   46.6439 C   0  0  0  0  0  0  0  0  0  0  0  0
   12.1651   -1.3050   50.3239 O   0  0  0  0  0  0  0  0  0  0  0  0
   15.6765   -2.5740   46.0979 C   0  0  0  0  0  0  0  0  0  0  0  0
   13.4417   -2.4710   48.5369 C   0  0  0  0  0  0  0  0  0  0  0  0
   15.5553   -1.2853   45.8338 C   0  0  0  0  0  0  0  0  0  0  0  0
   15.4119   -0.8806   44.5116 C   0  0  0  0  0  0  0  0  0  0  0  0
    3.0221    0.0742   42.0651 O   0  0  0  0  0  0  0  0  0  0  0  0
   15.8149   -1.4098   43.6029 O   0  0  0  0  0  0  0  0  0  0  0  0
   14.6910    0.2362   44.2521 O   0  0  0  0  0  0  0  0  0  0  0  0
  1  2  2  0
  2  3  1  0
  2  4  1  0
  3  5  1  0
  4  6  2  0
  5  7  1  0
  4  8  1  0
  8  9  2  0
  8 10  1  0
  3 11  1  0
 10 11  2  0
  6 12  1  0
  7 13  2  0
 11 14  1  0
 13 15  1  0
  9 16  1  0
 17  7  1  6
 14 17  1  0
 14 18  2  0
 18 19  1  0
 15 20  2  0
 17 20  1  0
 12 21  1  0
 19 22  1  0
  9 23  1  0
 12 23  2  0
 21 24  1  0
 19 25  2  0
 20 25  1  0
 24 26  1  0
 24 27  2  0
 26 28  2  0
 28 29  1  0
 26 30  1  0
 30 31  1  0
 30 32  2  0
 29 33  1  0
 32 34  1  0
 33 35  2  3
 29 36  2  0
 32 36  1  0
 35 37  1  0
 37 38  1  0
  5 39  2  0
 38 40  2  0
 38 41  1  0
M  END
$$$$
O14757_Pocket2Mol_idx-in-all-generaetd-312
     RDKit          3D

 35 40  0  0  0  0  0  0  0  0999 V2000
    1.5482   -0.3111   41.9233 C   0  0  0  0  0  0  0  0  0  0  0  0
    2.7284    0.2018   42.1525 N   0  0  0  0  0  0  0  0  0  0  0  0
    3.7893   -0.3016   42.7005 C   0  0  0  0  0  0  0  0  0  0  0  0
    3.3781   -1.7350   43.0000 C   0  0  0  0  0  0  0  0  0  0  0  0
    2.0339   -1.9619   42.6217 C   0  0  0  0  0  0  0  0  0  0  0  0
    4.1166   -2.4997   43.8458 C   0  0  0  0  0  0  0  0  0  0  0  0
    1.1731   -3.0051   42.5773 C   0  0  0  0  0  0  0  0  0  0  0  0
    0.4701   -3.2344   41.4901 C   0  0  0  0  0  0  0  0  0  0  0  0
    5.3799   -1.7814   44.2691 C   0  0  0  0  0  0  0  0  0  0  0  0
    5.0159   -0.0180   43.1201 N   0  0  0  0  0  0  0  0  0  0  0  0
    5.7693   -0.6937   43.8418 C   0  0  0  0  0  0  0  0  0  0  0  0
    0.8078   -3.6166   43.6782 C   0  0  0  0  0  0  0  0  0  0  0  0
    0.0663   -4.7011   43.7415 N   0  0  0  0  0  0  0  0  0  0  0  0
    6.2223   -2.6843   45.1565 C   0  0  0  0  0  0  0  0  0  0  0  0
    1.4459   -3.3095   45.0236 O   0  0  0  0  0  0  0  0  0  0  0  0
   -0.5278   -5.1074   42.5506 C   0  0  0  0  0  0  0  0  0  0  0  0
   -1.3099   -6.2193   42.5332 N   0  0  0  0  0  0  0  0  0  0  0  0
   -0.3906   -4.3573   41.3904 C   0  0  0  0  0  0  0  0  0  0  0  0
    7.0535   -0.4845   44.4478 N   0  0  0  0  0  0  0  0  0  0  0  0
    0.6210   -3.8397   46.1835 C   0  0  0  0  0  0  0  0  0  0  0  0
    6.2906   -3.7888   45.8815 C   0  0  0  0  0  0  0  0  0  0  0  0
    7.3868   -4.0307   46.6450 C   0  0  0  0  0  0  0  0  0  0  0  0
    7.2911   -1.6471   45.3058 C   0  0  2  0  0  0  0  0  0  0  0  0
    8.4503   -3.1394   46.7342 C   0  0  0  0  0  0  0  0  0  0  0  0
    8.4698   -1.9481   46.2096 C   0  0  0  0  0  0  0  0  0  0  0  0
    9.5355   -3.4574   47.6466 O   0  0  0  0  0  0  0  0  0  0  0  0
   10.7239   -3.2394   47.1960 C   0  0  0  0  0  0  0  0  0  0  0  0
   11.3519   -4.3113   46.6932 C   0  0  0  0  0  0  0  0  0  0  0  0
   11.3844   -1.9750   47.3381 C   0  0  0  0  0  0  0  0  0  0  0  0
   10.6542   -0.8591   47.9037 F   0  0  0  0  0  0  0  0  0  0  0  0
   12.6737   -4.2136   46.2250 C   0  0  0  0  0  0  0  0  0  0  0  0
   13.3249   -2.9465   46.4122 C   0  0  0  0  0  0  0  0  0  0  0  0
   14.6864   -2.8081   45.9384 O   0  0  0  0  0  0  0  0  0  0  0  0
   12.5975   -1.7696   46.9090 C   0  0  0  0  0  0  0  0  0  0  0  0
   15.6899   -3.5159   46.5447 C   0  0  0  0  0  0  0  0  0  0  0  0
  1  2  1  0
  2  3  2  0
  3  4  1  0
  1  5  2  0
  4  5  1  0
  4  6  2  0
  5  7  1  0
  7  8  2  0
  6  9  1  0
  3 10  1  0
  9 11  1  0
 10 11  1  0
  7 12  1  0
 12 13  2  0
  9 14  2  0
 12 15  1  0
 13 16  1  0
 16 17  1  0
  8 18  1  0
 16 18  2  0
 11 19  2  0
 15 20  1  0
 14 21  1  0
 21 22  2  0
 14 23  1  0
 19 23  1  0
 22 24  1  0
 23 25  1  6
 24 25  2  0
 24 26  1  0
 26 27  1  0
 27 28  2  0
 27 29  1  0
 29 30  1  0
 28 31  1  0
 31 32  2  0
 32 33  1  0
 29 34  2  0
 32 34  1  0
 33 35  1  0
M  END
$$$$
O14757_Pocket2Mol_idx-in-all-generaetd-313
     RDKit          3D

 39 47  0  0  0  0  0  0  0  0999 V2000
    1.5482   -0.3111   41.9233 C   0  0  0  0  0  0  0  0  0  0  0  0
    2.7284    0.2018   42.1525 N   0  0  0  0  0  0  0  0  0  0  0  0
    3.7893   -0.3016   42.7005 C   0  0  0  0  0  0  0  0  0  0  0  0
    3.3781   -1.7350   43.0000 C   0  0  0  0  0  0  0  0  0  0  0  0
    2.0339   -1.9619   42.6217 C   0  0  0  0  0  0  0  0  0  0  0  0
    5.0090    0.1219   42.9340 N   0  0  0  0  0  0  0  0  0  0  0  0
    4.2895   -2.4979   43.6707 C   0  0  0  0  0  0  0  0  0  0  0  0
    5.8391   -0.6675   43.6343 C   0  0  0  0  0  0  0  0  0  0  0  0
    6.9849   -0.2377   44.0028 N   0  0  0  0  0  0  0  0  0  0  0  0
    4.0426   -3.8794   44.0832 C   0  0  0  0  0  0  0  0  0  0  0  0
    7.6796   -0.8734   44.9326 C   0  0  0  0  0  0  0  0  0  0  0  0
    1.1064   -2.9576   42.4211 C   0  0  0  0  0  0  0  0  0  0  0  0
    5.5298   -1.9496   44.0315 C   0  0  0  0  0  0  0  0  0  0  0  0
    3.8954   -4.1817   45.4718 C   0  0  0  0  0  0  0  0  0  0  0  0
    0.6765   -3.5480   43.4006 C   0  0  1  0  0  0  0  0  0  0  0  0
    0.5804   -3.2191   41.1635 C   0  0  0  0  0  0  0  0  0  0  0  0
    2.8083   -4.8227   45.9203 N   0  0  0  0  0  0  0  0  0  0  0  0
   -0.1574   -4.5754   42.9329 N   0  0  0  0  0  0  0  0  0  0  0  0
    6.5271   -2.5531   44.9677 C   0  0  0  0  0  0  0  0  0  0  0  0
   -0.2272   -4.3703   41.5137 C   0  0  0  0  0  0  0  0  0  0  0  0
    7.5095   -2.0029   45.3993 C   0  0  0  0  0  0  0  0  0  0  0  0
    8.2550   -2.6982   46.3988 C   0  0  0  0  0  0  0  0  0  0  0  0
    8.8975   -0.3029   45.3267 O   0  0  0  0  0  0  0  0  0  0  0  0
    4.8299   -4.4637   46.4212 C   0  0  0  0  0  0  0  0  0  0  0  0
    4.2707   -4.9248   47.6295 N   0  0  0  0  0  0  0  0  0  0  0  0
    3.2045   -5.2092   47.1521 C   0  0  0  0  0  0  0  0  0  0  0  0
    1.4482   -4.6186   45.4134 C   0  0  1  0  0  0  0  0  0  0  0  0
    1.2398   -3.5043   44.6236 O   0  0  0  0  0  0  0  0  0  0  0  0
    6.3317   -3.9297   46.0870 C   0  0  2  0  0  0  0  0  0  0  0  0
    9.5296   -2.5449   46.9776 C   0  0  0  0  0  0  0  0  0  0  0  0
    9.7921   -1.7530   47.9018 O   0  0  0  0  0  0  0  0  0  0  0  0
    7.3972   -3.8130   46.7939 C   0  0  0  0  0  0  0  0  0  0  0  0
    1.2392   -5.7793   44.5610 C   0  0  0  0  0  0  0  0  0  0  0  0
   10.4934   -3.0755   46.3117 N   0  0  0  0  0  0  0  0  0  0  0  0
   10.3750   -4.1130   45.4302 C   0  0  0  0  0  0  0  0  0  0  0  0
   11.8947   -2.7998   46.7984 C   0  0  0  0  0  0  0  0  0  0  0  0
   12.5725   -3.7950   47.1748 C   0  0  0  0  0  0  0  0  0  0  0  0
   10.8721   -5.4085   45.8887 C   0  0  0  0  0  0  0  0  0  0  0  0
   12.4167   -5.0191   46.2405 C   0  0  0  0  0  0  0  0  0  0  0  0
  1  2  1  0
  2  3  2  0
  3  4  1  0
  1  5  2  0
  4  5  1  0
  3  6  1  0
  4  7  2  0
  6  8  1  0
  8  9  1  0
  7 10  1  0
  9 11  1  0
  5 12  1  0
  7 13  1  0
  8 13  2  0
 10 14  1  0
 12 15  1  0
 12 16  2  0
 14 17  1  0
 15 18  1  0
 13 19  1  0
 16 20  1  0
 18 20  2  0
 11 21  1  0
 19 21  2  0
 21 22  1  0
 11 23  2  0
 14 24  2  0
 24 25  1  0
 17 26  1  0
 25 26  2  0
 17 27  1  0
 15 28  1  6
 27 28  1  0
 19 29  1  0
 24 29  1  0
 22 30  1  0
 30 31  2  0
 22 32  2  0
 29 32  1  1
 27 33  1  6
 30 34  1  0
 34 35  1  0
 34 36  1  0
 36 37  1  0
 35 38  1  0
 37 39  1  0
 38 39  1  0
M  END
$$$$
O14757_Pocket2Mol_idx-in-all-generaetd-314
     RDKit          3D

 45 54  0  0  0  0  0  0  0  0999 V2000
    1.5482   -0.3111   41.9233 C   0  0  0  0  0  0  0  0  0  0  0  0
    2.7284    0.2018   42.1525 N   0  0  0  0  0  0  0  0  0  0  0  0
    3.7893   -0.3016   42.7005 C   0  0  0  0  0  0  0  0  0  0  0  0
    3.3781   -1.7350   43.0000 C   0  0  0  0  0  0  0  0  0  0  0  0
    2.0339   -1.9619   42.6217 C   0  0  0  0  0  0  0  0  0  0  0  0
    5.0090    0.1219   42.9340 N   0  0  0  0  0  0  0  0  0  0  0  0
    4.2895   -2.4979   43.6707 C   0  0  0  0  0  0  0  0  0  0  0  0
    5.8391   -0.6675   43.6343 C   0  0  0  0  0  0  0  0  0  0  0  0
    6.9849   -0.2377   44.0028 N   0  0  0  0  0  0  0  0  0  0  0  0
    4.0426   -3.8794   44.0832 C   0  0  0  0  0  0  0  0  0  0  0  0
    7.6796   -0.8734   44.9326 C   0  0  0  0  0  0  0  0  0  0  0  0
    1.1064   -2.9576   42.4211 C   0  0  0  0  0  0  0  0  0  0  0  0
    5.5298   -1.9496   44.0315 C   0  0  0  0  0  0  0  0  0  0  0  0
    3.8954   -4.1817   45.4718 C   0  0  0  0  0  0  0  0  0  0  0  0
    0.6765   -3.5480   43.4006 C   0  0  1  0  0  0  0  0  0  0  0  0
    0.5804   -3.2191   41.1635 C   0  0  0  0  0  0  0  0  0  0  0  0
    2.8083   -4.8227   45.9203 N   0  0  0  0  0  0  0  0  0  0  0  0
   -0.1574   -4.5754   42.9329 N   0  0  0  0  0  0  0  0  0  0  0  0
    6.5271   -2.5531   44.9677 C   0  0  0  0  0  0  0  0  0  0  0  0
   -0.2272   -4.3703   41.5137 C   0  0  0  0  0  0  0  0  0  0  0  0
    7.5095   -2.0029   45.3993 C   0  0  0  0  0  0  0  0  0  0  0  0
    8.2550   -2.6982   46.3988 C   0  0  1  0  0  0  0  0  0  0  0  0
    8.8975   -0.3029   45.3267 O   0  0  0  0  0  0  0  0  0  0  0  0
    4.8299   -4.4637   46.4212 C   0  0  0  0  0  0  0  0  0  0  0  0
    4.2707   -4.9248   47.6295 N   0  0  0  0  0  0  0  0  0  0  0  0
    3.2045   -5.2092   47.1521 C   0  0  0  0  0  0  0  0  0  0  0  0
    1.4482   -4.6186   45.4134 C   0  0  0  0  0  0  0  0  0  0  0  0
    1.3256   -3.7660   44.6394 N   0  0  0  0  0  0  0  0  0  0  0  0
    9.2816   -2.1418   47.1273 N   0  0  0  0  0  0  0  0  0  0  0  0
   10.0629   -3.1324   47.8508 C   0  0  0  0  0  0  0  0  0  0  0  0
    6.3491   -3.8960   46.0844 C   0  0  2  0  0  0  0  0  0  0  0  0
    7.4349   -3.5889   46.9054 C   0  0  0  0  0  0  0  0  0  0  0  0
   10.3145   -2.7271   49.0818 O   0  0  0  0  0  0  0  0  0  0  0  0
    0.6213   -5.4445   45.7455 O   0  0  0  0  0  0  0  0  0  0  0  0
   11.0262   -3.8136   47.1050 C   0  0  0  0  0  0  0  0  0  0  0  0
   12.1704   -3.3854   46.7547 C   0  0  0  0  0  0  0  0  0  0  0  0
   13.1080   -4.1111   46.0053 C   0  0  0  0  0  0  0  0  0  0  0  0
   14.3489   -3.5966   45.7888 C   0  0  0  0  0  0  0  0  0  0  0  0
   12.7430   -5.2725   45.5056 C   0  0  0  0  0  0  0  0  0  0  0  0
   10.8315   -5.3520   46.8908 C   0  0  0  0  0  0  0  0  0  0  0  0
   11.6313   -5.9366   46.0664 C   0  0  0  0  0  0  0  0  0  0  0  0
   14.5613   -2.2812   45.3299 C   0  0  0  0  0  0  0  0  0  0  0  0
   15.6906   -1.9335   44.9205 C   0  0  0  0  0  0  0  0  0  0  0  0
   16.6424   -3.1053   45.1161 C   0  0  0  0  0  0  0  0  0  0  0  0
   15.5045   -4.3453   45.7715 C   0  0  0  0  0  0  0  0  0  0  0  0
  1  2  1  0
  2  3  2  0
  3  4  1  0
  1  5  2  0
  4  5  1  0
  3  6  1  0
  4  7  2  0
  6  8  1  0
  8  9  1  0
  7 10  1  0
  9 11  1  0
  5 12  1  0
  7 13  1  0
  8 13  2  0
 10 14  1  0
 12 15  1  0
 12 16  2  0
 14 17  1  0
 15 18  1  0
 13 19  1  0
 16 20  1  0
 18 20  2  0
 11 21  1  0
 19 21  2  0
 21 22  1  0
 11 23  2  0
 14 24  2  0
 24 25  1  0
 17 26  1  0
 25 26  2  0
 17 27  1  0
 15 28  1  6
 27 28  1  0
 22 29  1  1
 29 30  1  0
 19 31  1  0
 24 31  1  0
 22 32  1  0
 31 32  1  1
 30 33  2  0
 27 34  2  0
 30 35  1  0
 35 36  2  0
 36 37  1  0
 37 38  1  0
 37 39  2  0
 35 40  1  0
 39 41  1  0
 40 41  2  0
 38 42  1  0
 42 43  2  0
 43 44  1  0
 38 45  2  0
 44 45  2  0
M  END
$$$$
O14757_Pocket2Mol_idx-in-all-generaetd-315
     RDKit          3D

 33 39  0  0  0  0  0  0  0  0999 V2000
    4.8173    0.2791   42.6993 N   0  0  0  0  0  0  0  0  0  0  0  0
    5.3297   -0.7477   43.3688 C   0  0  0  0  0  0  0  0  0  0  0  0
    3.4732   -0.2235   42.4530 C   0  0  0  0  0  0  0  0  0  0  0  0
    4.4984   -1.7876   43.6214 C   0  0  0  0  0  0  0  0  0  0  0  0
    3.3438   -1.5190   42.9379 C   0  0  0  0  0  0  0  0  0  0  0  0
    2.1381   -2.3401   42.8254 C   0  0  0  0  0  0  0  0  0  0  0  0
    2.3894    0.3572   41.9843 N   0  0  0  0  0  0  0  0  0  0  0  0
    4.9180   -3.0430   44.3829 C   0  0  0  0  0  0  0  0  0  0  0  0
    5.9444   -2.9314   45.3934 C   0  0  0  0  0  0  0  0  0  0  0  0
    4.2808   -4.1329   44.3252 C   0  0  0  0  0  0  0  0  0  0  0  0
    3.1588   -4.4221   43.4852 O   0  0  0  0  0  0  0  0  0  0  0  0
    4.5704   -5.2518   45.1995 C   0  0  0  0  0  0  0  0  0  0  0  0
    1.9853   -3.6792   43.3495 C   0  0  0  0  0  0  0  0  0  0  0  0
    0.9181   -4.3294   43.4638 C   0  0  0  0  0  0  0  0  0  0  0  0
    6.7403   -1.6226   45.5272 C   0  0  0  0  0  0  0  0  0  0  0  0
    0.9752   -1.7845   42.3366 C   0  0  0  0  0  0  0  0  0  0  0  0
    5.5543   -5.1294   46.1078 C   0  0  0  0  0  0  0  0  0  0  0  0
    7.9772   -1.5901   46.1526 C   0  0  0  0  0  0  0  0  0  0  0  0
    8.6171   -2.7180   46.2255 N   0  0  0  0  0  0  0  0  0  0  0  0
    6.5160   -0.7262   44.3482 C   0  0  0  0  0  0  0  0  0  0  0  0
    5.8670   -6.1665   47.0241 O   0  0  0  0  0  0  0  0  0  0  0  0
   -0.2437   -2.4672   42.2827 C   0  0  0  0  0  0  0  0  0  0  0  0
   -0.2692   -3.7414   42.8178 C   0  0  0  0  0  0  0  0  0  0  0  0
    6.3047   -3.9815   46.2287 C   0  0  0  0  0  0  0  0  0  0  0  0
    8.0291   -3.5777   47.1715 C   0  0  0  0  0  0  0  0  0  0  0  0
    7.2074   -4.2766   47.0234 C   0  0  0  0  0  0  0  0  0  0  0  0
    1.1879   -0.4281   41.8692 C   0  0  0  0  0  0  0  0  0  0  0  0
   10.1009   -2.3306   46.5895 C   0  0  0  0  0  0  0  0  0  0  0  0
   10.5049   -1.2887   46.4663 O   0  0  0  0  0  0  0  0  0  0  0  0
   10.9104   -3.4150   47.1173 C   0  0  0  0  0  0  0  0  0  0  0  0
   12.0683   -3.5397   46.4456 C   0  0  0  0  0  0  0  0  0  0  0  0
   12.5181   -4.8506   46.1388 O   0  0  0  0  0  0  0  0  0  0  0  0
   12.1079   -2.9848   45.1273 O   0  0  0  0  0  0  0  0  0  0  0  0
  1  2  2  0
  1  3  1  0
  2  4  1  0
  3  5  1  0
  4  5  2  0
  5  6  1  0
  3  7  2  0
  4  8  1  0
  8  9  2  0
  8 10  1  0
 10 11  1  0
 10 12  2  0
  6 13  2  0
 11 13  1  0
 13 14  1  0
  9 15  1  0
  6 16  1  0
 12 17  1  0
 15 18  1  0
 18 19  1  0
  2 20  1  0
 15 20  2  0
 17 21  1  0
 16 22  2  0
 14 23  2  0
 22 23  1  0
  9 24  1  0
 17 24  2  0
 19 25  1  0
 24 26  1  0
 25 26  2  0
  7 27  1  0
 16 27  1  0
 19 28  1  0
 28 29  2  0
 28 30  1  0
 30 31  1  0
 31 32  1  0
 31 33  1  0
M  END
$$$$
O14757_Pocket2Mol_idx-in-all-generaetd-316
     RDKit          3D

 39 46  0  0  0  0  0  0  0  0999 V2000
    1.5482   -0.3111   41.9233 C   0  0  0  0  0  0  0  0  0  0  0  0
    2.7284    0.2018   42.1525 N   0  0  0  0  0  0  0  0  0  0  0  0
    3.7893   -0.3016   42.7005 C   0  0  0  0  0  0  0  0  0  0  0  0
    3.3781   -1.7350   43.0000 C   0  0  0  0  0  0  0  0  0  0  0  0
    2.0339   -1.9619   42.6217 C   0  0  0  0  0  0  0  0  0  0  0  0
    5.0090    0.1219   42.9340 N   0  0  0  0  0  0  0  0  0  0  0  0
    4.2895   -2.4979   43.6707 C   0  0  0  0  0  0  0  0  0  0  0  0
    5.8391   -0.6675   43.6343 C   0  0  0  0  0  0  0  0  0  0  0  0
    6.9849   -0.2377   44.0028 N   0  0  0  0  0  0  0  0  0  0  0  0
    4.0426   -3.8794   44.0832 C   0  0  0  0  0  0  0  0  0  0  0  0
    7.6796   -0.8734   44.9326 C   0  0  0  0  0  0  0  0  0  0  0  0
    1.1064   -2.9576   42.4211 C   0  0  0  0  0  0  0  0  0  0  0  0
    5.5298   -1.9496   44.0315 C   0  0  0  0  0  0  0  0  0  0  0  0
    3.8954   -4.1817   45.4718 C   0  0  0  0  0  0  0  0  0  0  0  0
    0.6765   -3.5480   43.4006 C   0  0  1  0  0  0  0  0  0  0  0  0
    0.5804   -3.2191   41.1635 C   0  0  0  0  0  0  0  0  0  0  0  0
    2.8083   -4.8227   45.9203 N   0  0  0  0  0  0  0  0  0  0  0  0
   -0.1574   -4.5754   42.9329 N   0  0  0  0  0  0  0  0  0  0  0  0
    6.5271   -2.5531   44.9677 C   0  0  0  0  0  0  0  0  0  0  0  0
   -0.2272   -4.3703   41.5137 C   0  0  0  0  0  0  0  0  0  0  0  0
    7.5095   -2.0029   45.3993 C   0  0  0  0  0  0  0  0  0  0  0  0
    8.2550   -2.6982   46.3988 C   0  0  0  0  0  0  0  0  0  0  0  0
    8.8975   -0.3029   45.3267 O   0  0  0  0  0  0  0  0  0  0  0  0
    4.8299   -4.4637   46.4212 C   0  0  0  0  0  0  0  0  0  0  0  0
    4.2707   -4.9248   47.6295 N   0  0  0  0  0  0  0  0  0  0  0  0
    3.2045   -5.2092   47.1521 C   0  0  0  0  0  0  0  0  0  0  0  0
    1.4482   -4.6186   45.4134 C   0  0  2  0  0  0  0  0  0  0  0  0
    1.2398   -3.5043   44.6236 O   0  0  0  0  0  0  0  0  0  0  0  0
    6.3317   -3.9297   46.0870 C   0  0  2  0  0  0  0  0  0  0  0  0
    9.5296   -2.5449   46.9776 C   0  0  0  0  0  0  0  0  0  0  0  0
    9.7921   -1.7530   47.9018 O   0  0  0  0  0  0  0  0  0  0  0  0
    7.3972   -3.8130   46.7939 C   0  0  0  0  0  0  0  0  0  0  0  0
   10.4154   -3.4217   46.6883 O   0  0  0  0  0  0  0  0  0  0  0  0
    0.5555   -4.7535   46.5674 C   0  0  0  0  0  0  0  0  0  0  0  0
   11.6497   -3.0596   47.0439 C   0  0  1  0  0  0  0  0  0  0  0  0
   12.3878   -4.1125   47.6990 C   0  0  0  0  0  0  0  0  0  0  0  0
   11.8800   -5.2760   47.5659 O   0  0  0  0  0  0  0  0  0  0  0  0
   12.4407   -2.7703   45.7339 C   0  0  0  0  0  0  0  0  0  0  0  0
   12.6905   -6.3546   47.3046 C   0  0  0  0  0  0  0  0  0  0  0  0
  1  2  1  0
  2  3  2  0
  3  4  1  0
  1  5  2  0
  4  5  1  0
  3  6  1  0
  4  7  2  0
  6  8  1  0
  8  9  1  0
  7 10  1  0
  9 11  1  0
  5 12  1  0
  7 13  1  0
  8 13  2  0
 10 14  1  0
 12 15  1  0
 12 16  2  0
 14 17  1  0
 15 18  1  0
 13 19  1  0
 16 20  1  0
 18 20  2  0
 11 21  1  0
 19 21  2  0
 21 22  1  0
 11 23  2  0
 14 24  2  0
 24 25  1  0
 17 26  1  0
 25 26  2  0
 17 27  1  0
 15 28  1  6
 27 28  1  0
 19 29  1  0
 24 29  1  0
 22 30  1  0
 30 31  2  0
 22 32  2  0
 29 32  1  1
 30 33  1  0
 27 34  1  1
 33 35  1  0
 35 36  1  0
 36 37  1  0
 35 38  1  6
 37 39  1  0
M  END
$$$$
O14757_Pocket2Mol_idx-in-all-generaetd-317
     RDKit          3D

 46 53  0  0  0  0  0  0  0  0999 V2000
    5.3420    0.2589   42.8836 O   0  0  0  0  0  0  0  0  0  0  0  0
    5.1627   -0.7554   43.4753 C   0  0  0  0  0  0  0  0  0  0  0  0
    4.0509   -1.4657   43.4177 N   0  0  0  0  0  0  0  0  0  0  0  0
    5.9969   -1.2317   44.6840 C   0  0  0  0  0  0  0  0  0  0  0  0
    2.9618   -1.1021   42.5918 C   0  0  1  0  0  0  0  0  0  0  0  0
    7.3392   -0.8596   44.8412 C   0  0  0  0  0  0  0  0  0  0  0  0
    1.9754   -2.0820   42.2741 C   0  0  0  0  0  0  0  0  0  0  0  0
    5.5910   -2.4282   45.3439 C   0  0  0  0  0  0  0  0  0  0  0  0
    6.5874   -2.9636   46.1581 C   0  0  0  0  0  0  0  0  0  0  0  0
    4.2763   -3.0680   45.0493 N   0  0  0  0  0  0  0  0  0  0  0  0
    3.6188   -2.5886   44.2024 C   0  0  0  0  0  0  0  0  0  0  0  0
    8.1921   -1.4071   45.7505 C   0  0  0  0  0  0  0  0  0  0  0  0
    1.0154   -1.8839   41.2980 C   0  0  0  0  0  0  0  0  0  0  0  0
    2.5720   -3.3564   43.9063 C   0  0  0  0  0  0  0  0  0  0  0  0
    0.2502   -2.8976   41.0751 C   0  0  0  0  0  0  0  0  0  0  0  0
    6.1761   -4.1775   47.0209 C   0  0  0  0  0  0  0  0  0  0  0  0
    1.7266   -3.1047   43.0115 C   0  0  2  0  0  0  0  0  0  0  0  0
    2.3696   -4.5367   44.7536 N   0  0  0  0  0  0  0  0  0  0  0  0
    1.2264   -5.2346   44.4693 C   0  0  0  0  0  0  0  0  0  0  0  0
    0.7187   -3.8955   42.5465 C   0  0  0  0  0  0  0  0  0  0  0  0
    9.4576   -0.8949   46.0327 N   0  0  0  0  0  0  0  0  0  0  0  0
    0.8625   -6.3901   45.2462 C   0  0  0  0  0  0  0  0  0  0  0  0
    7.6467   -2.5139   46.4892 C   0  0  0  0  0  0  0  0  0  0  0  0
   10.4908   -1.5336   45.8242 C   0  0  0  0  0  0  0  0  0  0  0  0
    0.3057   -4.9299   43.2909 C   0  0  0  0  0  0  0  0  0  0  0  0
   11.5916   -1.4291   46.7436 C   0  0  0  0  0  0  0  0  0  0  0  0
   10.5566   -2.3672   44.8649 O   0  0  0  0  0  0  0  0  0  0  0  0
   12.8421   -1.9355   46.2823 C   0  0  0  0  0  0  0  0  0  0  0  0
   13.4833   -2.8582   46.9841 C   0  0  0  0  0  0  0  0  0  0  0  0
   11.4002   -1.1447   48.0540 C   0  0  0  0  0  0  0  0  0  0  0  0
   10.2867   -0.4569   48.4999 O   0  0  0  0  0  0  0  0  0  0  0  0
   12.3327   -1.4798   48.9564 C   0  0  1  0  0  0  0  0  0  0  0  0
   14.7901   -3.3162   46.6439 C   0  0  0  0  0  0  0  0  0  0  0  0
   12.1651   -1.3050   50.3239 O   0  0  0  0  0  0  0  0  0  0  0  0
   15.6765   -2.5740   46.0979 C   0  0  0  0  0  0  0  0  0  0  0  0
    2.4608    0.2106   42.8512 C   0  0  0  0  0  0  0  0  0  0  0  0
   15.5213   -1.2590   45.7606 C   0  0  0  0  0  0  0  0  0  0  0  0
   14.5349   -0.8899   44.8574 C   0  0  0  0  0  0  0  0  0  0  0  0
   12.9775   -3.3460   48.2127 C   0  0  0  0  0  0  0  0  0  0  0  0
   14.7129   -0.1943   43.8652 C   0  0  0  0  0  0  0  0  0  0  0  0
   13.1163   -1.3789   45.0490 O   0  0  0  0  0  0  0  0  0  0  0  0
   12.7443   -2.7596   49.2688 C   0  0  0  0  0  0  0  0  0  0  0  0
   15.8145    0.5028   43.5830 C   0  0  0  0  0  0  0  0  0  0  0  0
   15.9344    1.4629   42.4540 O   0  0  0  0  0  0  0  0  0  0  0  0
   16.8047    0.2791   44.2836 C   0  0  0  0  0  0  0  0  0  0  0  0
   16.8282   -0.6128   45.3491 C   0  0  0  0  0  0  0  0  0  0  0  0
  1  2  2  0
  2  3  1  0
  2  4  1  0
  3  5  1  0
  4  6  2  0
  5  7  1  0
  4  8  1  0
  8  9  2  0
  8 10  1  0
  3 11  1  0
 10 11  2  0
  6 12  1  0
  7 13  2  0
 11 14  1  0
 13 15  1  0
  9 16  1  0
 17  7  1  6
 14 17  1  0
 14 18  2  0
 18 19  1  0
 15 20  2  0
 17 20  1  0
 12 21  1  0
 19 22  1  0
  9 23  1  0
 12 23  2  0
 21 24  1  0
 19 25  2  0
 20 25  1  0
 24 26  1  0
 24 27  2  0
 26 28  1  0
 28 29  2  0
 26 30  2  0
 30 31  1  0
 30 32  1  0
 29 33  1  0
 32 34  1  1
 33 35  2  0
  5 36  1  1
 35 37  1  0
 37 38  2  0
 29 39  1  0
 38 40  1  0
 28 41  1  0
 38 41  1  0
 32 42  1  0
 39 42  1  0
 40 43  2  0
 43 44  1  0
 43 45  1  0
 37 46  1  0
 45 46  2  0
M  END
$$$$
O14757_Pocket2Mol_idx-in-all-generaetd-318
     RDKit          3D

 30 37  0  0  0  0  0  0  0  0999 V2000
    1.5482   -0.3111   41.9233 C   0  0  0  0  0  0  0  0  0  0  0  0
    2.7284    0.2018   42.1525 N   0  0  0  0  0  0  0  0  0  0  0  0
    3.7893   -0.3016   42.7005 C   0  0  0  0  0  0  0  0  0  0  0  0
    3.3781   -1.7350   43.0000 C   0  0  0  0  0  0  0  0  0  0  0  0
    2.0339   -1.9619   42.6217 C   0  0  0  0  0  0  0  0  0  0  0  0
    5.0090    0.1219   42.9340 N   0  0  0  0  0  0  0  0  0  0  0  0
    4.2895   -2.4979   43.6707 C   0  0  0  0  0  0  0  0  0  0  0  0
    5.8391   -0.6675   43.6343 C   0  0  0  0  0  0  0  0  0  0  0  0
    6.9849   -0.2377   44.0028 N   0  0  0  0  0  0  0  0  0  0  0  0
    4.0426   -3.8794   44.0832 C   0  0  0  0  0  0  0  0  0  0  0  0
    7.6796   -0.8734   44.9326 C   0  0  0  0  0  0  0  0  0  0  0  0
    1.1064   -2.9576   42.4211 C   0  0  0  0  0  0  0  0  0  0  0  0
    5.5298   -1.9496   44.0315 C   0  0  0  0  0  0  0  0  0  0  0  0
    3.8954   -4.1817   45.4718 C   0  0  0  0  0  0  0  0  0  0  0  0
    0.6765   -3.5480   43.4006 C   0  0  0  0  0  0  0  0  0  0  0  0
    0.5804   -3.2191   41.1635 C   0  0  0  0  0  0  0  0  0  0  0  0
    2.8083   -4.8227   45.9203 N   0  0  0  0  0  0  0  0  0  0  0  0
   -0.1574   -4.5754   42.9329 N   0  0  0  0  0  0  0  0  0  0  0  0
    6.5271   -2.5531   44.9677 C   0  0  0  0  0  0  0  0  0  0  0  0
   -0.2272   -4.3703   41.5137 C   0  0  0  0  0  0  0  0  0  0  0  0
    7.5095   -2.0029   45.3993 C   0  0  0  0  0  0  0  0  0  0  0  0
    8.2550   -2.6982   46.3988 C   0  0  0  0  0  0  0  0  0  0  0  0
    8.8975   -0.3029   45.3267 O   0  0  0  0  0  0  0  0  0  0  0  0
    4.8299   -4.4637   46.4212 C   0  0  0  0  0  0  0  0  0  0  0  0
    4.2707   -4.9248   47.6295 N   0  0  0  0  0  0  0  0  0  0  0  0
    3.2045   -5.2092   47.1521 C   0  0  0  0  0  0  0  0  0  0  0  0
    1.4482   -4.6186   45.4134 C   0  0  0  0  0  0  0  0  0  0  0  0
    1.1257   -3.4749   44.6874 C   0  0  0  0  0  0  0  0  0  0  0  0
    6.2277   -3.7796   46.1827 C   0  0  2  0  0  0  0  0  0  0  0  0
    7.3862   -3.6879   46.9000 C   0  0  0  0  0  0  0  0  0  0  0  0
  1  2  1  0
  2  3  2  0
  3  4  1  0
  1  5  2  0
  4  5  1  0
  3  6  1  0
  4  7  2  0
  6  8  1  0
  8  9  1  0
  7 10  1  0
  9 11  1  0
  5 12  1  0
  7 13  1  0
  8 13  2  0
 10 14  1  0
 12 15  1  0
 12 16  2  0
 14 17  1  0
 15 18  1  0
 13 19  1  0
 16 20  1  0
 18 20  2  0
 11 21  1  0
 19 21  2  0
 21 22  1  0
 11 23  2  0
 14 24  2  0
 24 25  1  0
 17 26  1  0
 25 26  2  0
 17 27  1  0
 15 28  2  3
 27 28  1  0
 19 29  1  0
 24 29  1  0
 22 30  2  0
 29 30  1  1
M  END
$$$$
O14757_Pocket2Mol_idx-in-all-generaetd-319
     RDKit          3D

 30 33  0  0  0  0  0  0  0  0999 V2000
    2.2688    0.3052   42.1942 N   0  0  0  0  0  0  0  0  0  0  0  0
    1.5681   -0.5985   42.0391 C   0  0  0  0  0  0  0  0  0  0  0  0
    0.2713   -0.6749   41.4483 C   0  0  0  0  0  0  0  0  0  0  0  0
    3.6365    0.2703   42.6880 C   0  0  0  0  0  0  0  0  0  0  0  0
    3.8321   -1.1348   42.9762 C   0  0  0  0  0  0  0  0  0  0  0  0
    2.8260   -2.0201   42.8203 C   0  0  0  0  0  0  0  0  0  0  0  0
    1.7444   -1.8415   42.3318 N   0  0  0  0  0  0  0  0  0  0  0  0
    3.2538   -3.3101   43.4270 N   0  0  0  0  0  0  0  0  0  0  0  0
    2.4413   -4.3420   43.6264 C   0  0  0  0  0  0  0  0  0  0  0  0
    4.5709   -3.0849   43.9583 C   0  0  0  0  0  0  0  0  0  0  0  0
    4.9539   -1.7198   43.6718 C   0  0  0  0  0  0  0  0  0  0  0  0
    1.7950   -4.3815   44.9098 C   0  0  0  0  0  0  0  0  0  0  0  0
    6.2203   -1.1385   44.0326 C   0  0  0  0  0  0  0  0  0  0  0  0
    2.4006   -4.9997   45.9013 O   0  0  0  0  0  0  0  0  0  0  0  0
    6.9025   -1.6501   45.0796 C   0  0  0  0  0  0  0  0  0  0  0  0
    5.4101   -3.6941   45.0229 C   0  0  0  0  0  0  0  0  0  0  0  0
    5.0219   -4.9002   45.5161 O   0  0  0  0  0  0  0  0  0  0  0  0
    6.6083   -3.0238   45.5442 C   0  0  0  0  0  0  0  0  0  0  0  0
    7.4531   -3.6409   46.5606 C   0  0  0  0  0  0  0  0  0  0  0  0
    8.0146   -0.9691   45.5874 C   0  0  0  0  0  0  0  0  0  0  0  0
    7.1412   -4.8399   47.0721 O   0  0  0  0  0  0  0  0  0  0  0  0
    8.5485   -2.8812   47.0742 C   0  0  0  0  0  0  0  0  0  0  0  0
    9.3616   -3.5571   48.1369 C   0  0  0  0  0  0  0  0  0  0  0  0
    8.8032   -1.5552   46.6208 C   0  0  0  0  0  0  0  0  0  0  0  0
   10.5473   -3.9914   47.7709 N   0  0  0  0  0  0  0  0  0  0  0  0
   10.9872   -4.0859   46.6198 C   0  0  0  0  0  0  0  0  0  0  0  0
   10.5118   -5.1617   45.7974 C   0  0  0  0  0  0  0  0  0  0  0  0
   12.1372   -3.4295   46.0022 C   0  0  0  0  0  0  0  0  0  0  0  0
   12.6732   -2.2327   46.7229 O   0  0  0  0  0  0  0  0  0  0  0  0
   11.1502   -5.5228   44.5856 O   0  0  0  0  0  0  0  0  0  0  0  0
  1  2  2  0
  2  3  1  0
  1  4  1  0
  4  5  1  0
  5  6  2  0
  2  7  1  0
  6  7  1  0
  6  8  1  0
  8  9  1  0
  8 10  1  0
  5 11  1  0
 10 11  2  0
  9 12  1  0
 11 13  1  0
 12 14  1  0
 13 15  2  0
 10 16  1  0
 16 17  1  0
 15 18  1  0
 16 18  2  0
 18 19  1  0
 15 20  1  0
 19 21  1  0
 19 22  2  0
 22 23  1  0
 20 24  2  0
 22 24  1  0
 23 25  1  0
 25 26  1  0
 26 27  2  3
 26 28  1  0
 28 29  1  0
 27 30  1  0
M  END
$$$$
O14757_Pocket2Mol_idx-in-all-generaetd-320
     RDKit          3D

 41 49  0  0  0  0  0  0  0  0999 V2000
    1.5482   -0.3111   41.9233 C   0  0  0  0  0  0  0  0  0  0  0  0
    2.7284    0.2018   42.1525 N   0  0  0  0  0  0  0  0  0  0  0  0
    3.7893   -0.3016   42.7005 C   0  0  0  0  0  0  0  0  0  0  0  0
    3.3781   -1.7350   43.0000 C   0  0  0  0  0  0  0  0  0  0  0  0
    2.0339   -1.9619   42.6217 C   0  0  0  0  0  0  0  0  0  0  0  0
    5.0090    0.1219   42.9340 N   0  0  0  0  0  0  0  0  0  0  0  0
    4.2895   -2.4979   43.6707 C   0  0  0  0  0  0  0  0  0  0  0  0
    5.8391   -0.6675   43.6343 C   0  0  0  0  0  0  0  0  0  0  0  0
    6.9849   -0.2377   44.0028 N   0  0  0  0  0  0  0  0  0  0  0  0
    4.0426   -3.8794   44.0832 C   0  0  0  0  0  0  0  0  0  0  0  0
    7.6796   -0.8734   44.9326 C   0  0  0  0  0  0  0  0  0  0  0  0
    1.1064   -2.9576   42.4211 C   0  0  0  0  0  0  0  0  0  0  0  0
    5.5298   -1.9496   44.0315 C   0  0  0  0  0  0  0  0  0  0  0  0
    3.8954   -4.1817   45.4718 C   0  0  0  0  0  0  0  0  0  0  0  0
    0.6765   -3.5480   43.4006 C   0  0  1  0  0  0  0  0  0  0  0  0
    0.5804   -3.2191   41.1635 C   0  0  0  0  0  0  0  0  0  0  0  0
    2.8083   -4.8227   45.9203 N   0  0  0  0  0  0  0  0  0  0  0  0
   -0.1574   -4.5754   42.9329 N   0  0  0  0  0  0  0  0  0  0  0  0
    6.5271   -2.5531   44.9677 C   0  0  0  0  0  0  0  0  0  0  0  0
   -0.2272   -4.3703   41.5137 C   0  0  0  0  0  0  0  0  0  0  0  0
    7.5095   -2.0029   45.3993 C   0  0  0  0  0  0  0  0  0  0  0  0
    8.2550   -2.6982   46.3988 C   0  0  0  0  0  0  0  0  0  0  0  0
    8.8975   -0.3029   45.3267 O   0  0  0  0  0  0  0  0  0  0  0  0
    4.8299   -4.4637   46.4212 C   0  0  0  0  0  0  0  0  0  0  0  0
    4.2707   -4.9248   47.6295 N   0  0  0  0  0  0  0  0  0  0  0  0
    3.2045   -5.2092   47.1521 C   0  0  0  0  0  0  0  0  0  0  0  0
    1.4482   -4.6186   45.4134 C   0  0  1  0  0  0  0  0  0  0  0  0
    1.2398   -3.5043   44.6236 O   0  0  0  0  0  0  0  0  0  0  0  0
    6.3317   -3.9297   46.0870 C   0  0  2  0  0  0  0  0  0  0  0  0
    9.5296   -2.5449   46.9776 C   0  0  0  0  0  0  0  0  0  0  0  0
    9.7921   -1.7530   47.9018 O   0  0  0  0  0  0  0  0  0  0  0  0
    7.3972   -3.8130   46.7939 C   0  0  0  0  0  0  0  0  0  0  0  0
    1.2392   -5.7793   44.5610 C   0  0  0  0  0  0  0  0  0  0  0  0
   10.4934   -3.0755   46.3117 N   0  0  0  0  0  0  0  0  0  0  0  0
   10.3750   -4.1130   45.4302 C   0  0  0  0  0  0  0  0  0  0  0  0
   11.8947   -2.7998   46.7984 C   0  0  0  0  0  0  0  0  0  0  0  0
   12.8362   -2.7998   45.7275 C   0  0  2  0  0  0  0  0  0  0  0  0
   11.7375   -4.7913   45.1817 C   0  0  0  0  0  0  0  0  0  0  0  0
   14.0236   -2.1316   45.9685 O   0  0  0  0  0  0  0  0  0  0  0  0
   12.3384   -2.2867   44.4520 C   0  0  0  0  0  0  0  0  0  0  0  0
   12.9880   -4.2686   45.4262 C   0  0  0  0  0  0  0  0  0  0  0  0
  1  2  1  0
  2  3  2  0
  3  4  1  0
  1  5  2  0
  4  5  1  0
  3  6  1  0
  4  7  2  0
  6  8  1  0
  8  9  1  0
  7 10  1  0
  9 11  1  0
  5 12  1  0
  7 13  1  0
  8 13  2  0
 10 14  1  0
 12 15  1  0
 12 16  2  0
 14 17  1  0
 15 18  1  0
 13 19  1  0
 16 20  1  0
 18 20  2  0
 11 21  1  0
 19 21  2  0
 21 22  1  0
 11 23  2  0
 14 24  2  0
 24 25  1  0
 17 26  1  0
 25 26  2  0
 17 27  1  0
 15 28  1  6
 27 28  1  0
 19 29  1  0
 24 29  1  0
 22 30  1  0
 30 31  2  0
 22 32  2  0
 29 32  1  1
 27 33  1  6
 30 34  1  0
 34 35  1  0
 34 36  1  0
 36 37  1  0
 35 38  1  0
 37 39  1  0
 37 40  1  6
 37 41  1  0
 38 41  1  0
M  END
$$$$
O14757_Pocket2Mol_idx-in-all-generaetd-321
     RDKit          3D

 35 40  0  0  0  0  0  0  0  0999 V2000
    5.3420    0.2589   42.8836 O   0  0  0  0  0  0  0  0  0  0  0  0
    5.1627   -0.7554   43.4753 C   0  0  0  0  0  0  0  0  0  0  0  0
    4.0509   -1.4657   43.4177 N   0  0  0  0  0  0  0  0  0  0  0  0
    5.9969   -1.2317   44.6840 C   0  0  0  0  0  0  0  0  0  0  0  0
    2.9618   -1.1021   42.5918 C   0  0  0  0  0  0  0  0  0  0  0  0
    7.3392   -0.8596   44.8412 C   0  0  0  0  0  0  0  0  0  0  0  0
    1.9754   -2.0820   42.2741 C   0  0  0  0  0  0  0  0  0  0  0  0
    5.5910   -2.4282   45.3439 C   0  0  0  0  0  0  0  0  0  0  0  0
    6.5874   -2.9636   46.1581 C   0  0  0  0  0  0  0  0  0  0  0  0
    4.2763   -3.0680   45.0493 N   0  0  0  0  0  0  0  0  0  0  0  0
    3.6188   -2.5886   44.2024 C   0  0  0  0  0  0  0  0  0  0  0  0
    8.1921   -1.4071   45.7505 C   0  0  0  0  0  0  0  0  0  0  0  0
    1.0154   -1.8839   41.2980 C   0  0  0  0  0  0  0  0  0  0  0  0
    2.5720   -3.3564   43.9063 C   0  0  0  0  0  0  0  0  0  0  0  0
    0.2502   -2.8976   41.0751 C   0  0  0  0  0  0  0  0  0  0  0  0
    6.1761   -4.1775   47.0209 C   0  0  0  0  0  0  0  0  0  0  0  0
    1.7266   -3.1047   43.0115 C   0  0  2  0  0  0  0  0  0  0  0  0
    2.3696   -4.5367   44.7536 N   0  0  0  0  0  0  0  0  0  0  0  0
    1.2264   -5.2346   44.4693 C   0  0  0  0  0  0  0  0  0  0  0  0
    0.7187   -3.8955   42.5465 C   0  0  0  0  0  0  0  0  0  0  0  0
    9.4576   -0.8949   46.0327 N   0  0  0  0  0  0  0  0  0  0  0  0
    0.8625   -6.3901   45.2462 C   0  0  0  0  0  0  0  0  0  0  0  0
    7.6467   -2.5139   46.4892 C   0  0  0  0  0  0  0  0  0  0  0  0
   10.4908   -1.5336   45.8242 C   0  0  0  0  0  0  0  0  0  0  0  0
    0.3057   -4.9299   43.2909 C   0  0  0  0  0  0  0  0  0  0  0  0
   11.5916   -1.4291   46.7436 C   0  0  0  0  0  0  0  0  0  0  0  0
   10.5566   -2.3672   44.8649 O   0  0  0  0  0  0  0  0  0  0  0  0
   11.6051   -2.2111   47.7709 N   0  0  0  0  0  0  0  0  0  0  0  0
   12.6215   -0.5876   46.5424 C   0  0  0  0  0  0  0  0  0  0  0  0
   12.5420   -2.0938   48.7186 C   0  0  0  0  0  0  0  0  0  0  0  0
    3.0270    0.0702   42.0603 O   0  0  0  0  0  0  0  0  0  0  0  0
   12.4632   -3.0625   49.8834 C   0  0  0  0  0  0  0  0  0  0  0  0
   13.6954   -0.5051   47.3825 C   0  0  0  0  0  0  0  0  0  0  0  0
   14.8238    0.3628   47.1262 C   0  0  0  0  0  0  0  0  0  0  0  0
   13.6626   -1.3265   48.5045 C   0  0  0  0  0  0  0  0  0  0  0  0
  1  2  2  0
  2  3  1  0
  2  4  1  0
  3  5  1  0
  4  6  2  0
  5  7  1  0
  4  8  1  0
  8  9  2  0
  8 10  1  0
  3 11  1  0
 10 11  2  0
  6 12  1  0
  7 13  2  0
 11 14  1  0
 13 15  1  0
  9 16  1  0
 17  7  1  6
 14 17  1  0
 14 18  2  0
 18 19  1  0
 15 20  2  0
 17 20  1  0
 12 21  1  0
 19 22  1  0
  9 23  1  0
 12 23  2  0
 21 24  1  0
 19 25  2  0
 20 25  1  0
 24 26  1  0
 24 27  2  0
 26 28  2  0
 26 29  1  0
 28 30  1  0
  5 31  2  0
 30 32  1  0
 29 33  2  0
 33 34  1  0
 30 35  2  0
 33 35  1  0
M  END
$$$$
O14757_Pocket2Mol_idx-in-all-generaetd-322
     RDKit          3D

 31 36  0  0  0  0  0  0  0  0999 V2000
    5.1775    0.2381   42.7925 N   0  0  0  0  0  0  0  0  0  0  0  0
    3.8485    0.3515   42.4285 N   0  0  0  0  0  0  0  0  0  0  0  0
    5.5201   -0.8216   43.5188 C   0  0  0  0  0  0  0  0  0  0  0  0
    4.5575   -1.7838   43.9113 C   0  0  0  0  0  0  0  0  0  0  0  0
    2.9777   -0.5504   42.6073 C   0  0  0  0  0  0  0  0  0  0  0  0
    4.8521   -2.9209   44.7316 C   0  0  0  0  0  0  0  0  0  0  0  0
    3.2351   -1.5675   43.1903 C   0  0  0  0  0  0  0  0  0  0  0  0
    1.6955   -0.2711   41.8967 C   0  0  0  0  0  0  0  0  0  0  0  0
    0.8864   -1.3663   42.0618 C   0  0  0  0  0  0  0  0  0  0  0  0
    2.3187   -2.7500   43.4543 C   0  0  0  0  0  0  0  0  0  0  0  0
    1.1071   -2.5907   42.7445 C   0  0  0  0  0  0  0  0  0  0  0  0
    6.0979   -2.8249   45.5633 C   0  0  0  0  0  0  0  0  0  0  0  0
    0.0423   -3.6939   42.8205 C   0  0  0  0  0  0  0  0  0  0  0  0
    4.2011   -4.0423   44.9363 C   0  0  0  0  0  0  0  0  0  0  0  0
    4.5424   -5.0339   45.7893 C   0  0  0  0  0  0  0  0  0  0  0  0
   -0.0110   -4.4040   41.6463 N   0  0  0  0  0  0  0  0  0  0  0  0
    2.8431   -3.9954   44.0809 C   0  0  0  0  0  0  0  0  0  0  0  0
    7.0703   -1.6758   45.5388 C   0  0  0  0  0  0  0  0  0  0  0  0
    6.5324   -3.6602   46.4424 C   0  0  0  0  0  0  0  0  0  0  0  0
    5.6842   -4.8828   46.5405 C   0  0  0  0  0  0  0  0  0  0  0  0
    6.7957   -0.7421   44.3455 N   0  0  0  0  0  0  0  0  0  0  0  0
   -0.5371   -3.9067   43.6730 O   0  0  0  0  0  0  0  0  0  0  0  0
    8.1253   -1.3380   46.2529 C   0  0  0  0  0  0  0  0  0  0  0  0
    8.4826   -2.3424   47.1646 C   0  0  0  0  0  0  0  0  0  0  0  0
    7.4992   -3.4517   47.2130 C   0  0  0  0  0  0  0  0  0  0  0  0
    9.6679   -2.2144   47.9836 C   0  0  0  0  0  0  0  0  0  0  0  0
    9.5513   -1.4083   48.8997 O   0  0  0  0  0  0  0  0  0  0  0  0
   10.7100   -2.8733   47.7448 O   0  0  0  0  0  0  0  0  0  0  0  0
   11.4258   -2.4979   46.5508 C   0  0  0  0  0  0  0  0  0  0  0  0
   12.3329   -1.4435   46.7097 C   0  0  0  0  0  0  0  0  0  0  0  0
   12.1514   -3.5643   45.9826 C   0  0  0  0  0  0  0  0  0  0  0  0
  1  2  2  0
  1  3  1  0
  3  4  2  0
  2  5  1  0
  4  6  1  0
  4  7  1  0
  5  7  2  0
  5  8  1  0
  8  9  2  0
  7 10  1  0
  9 11  1  0
 10 11  2  0
  6 12  2  0
 11 13  1  0
  6 14  1  0
 14 15  2  0
 13 16  1  0
 10 17  1  0
 14 17  1  0
 12 18  1  0
 12 19  1  0
 15 20  1  0
 19 20  2  0
  3 21  1  0
 18 21  2  0
 13 22  2  0
 18 23  1  0
 23 24  2  0
 19 25  1  0
 24 25  1  0
 24 26  1  0
 26 27  2  0
 26 28  1  0
 28 29  1  0
 29 30  1  0
 29 31  1  0
M  END
$$$$
O14757_Pocket2Mol_idx-in-all-generaetd-323
     RDKit          3D

 34 40  0  0  0  0  0  0  0  0999 V2000
    4.5156    0.0550   42.9895 N   0  0  0  0  0  0  0  0  0  0  0  0
    5.0618   -0.8645   43.5295 C   0  0  0  0  0  0  0  0  0  0  0  0
    4.4350   -2.0604   43.7783 C   0  0  0  0  0  0  0  0  0  0  0  0
    4.9987   -3.0994   44.5839 C   0  0  0  0  0  0  0  0  0  0  0  0
    3.2714   -1.8664   43.0632 C   0  0  0  0  0  0  0  0  0  0  0  0
    6.4064   -0.5942   44.3204 N   0  0  0  0  0  0  0  0  0  0  0  0
    4.3422   -4.3256   44.7203 C   0  0  0  0  0  0  0  0  0  0  0  0
    2.1845   -2.6668   42.8270 N   0  0  0  0  0  0  0  0  0  0  0  0
    3.3305   -0.5395   42.5465 N   0  0  0  0  0  0  0  0  0  0  0  0
    1.9502   -3.8972   43.4076 C   0  0  0  0  0  0  0  0  0  0  0  0
    2.7156   -4.1184   44.6954 N   0  0  0  0  0  0  0  0  0  0  0  0
    6.8581   -1.5862   45.1101 C   0  0  0  0  0  0  0  0  0  0  0  0
    6.1801   -2.8430   45.2383 C   0  0  0  0  0  0  0  0  0  0  0  0
    2.1454   -5.1901   45.5771 C   0  0  0  0  0  0  0  0  0  0  0  0
    8.0137   -1.3946   45.8526 C   0  0  0  0  0  0  0  0  0  0  0  0
    0.9733   -4.5725   43.2066 O   0  0  0  0  0  0  0  0  0  0  0  0
    2.2437    0.0035   41.8733 C   0  0  0  0  0  0  0  0  0  0  0  0
    1.3210   -2.2077   41.7009 C   0  0  0  0  0  0  0  0  0  0  0  0
    8.6047   -2.2876   46.6923 C   0  0  0  0  0  0  0  0  0  0  0  0
    7.9141   -3.5157   46.8869 C   0  0  0  0  0  0  0  0  0  0  0  0
    1.0501   -0.8658   41.6612 C   0  0  0  0  0  0  0  0  0  0  0  0
    6.7278   -3.7718   46.2525 C   0  0  0  0  0  0  0  0  0  0  0  0
    9.8280   -2.0492   47.3361 C   0  0  0  0  0  0  0  0  0  0  0  0
    9.8262   -1.5735   48.5432 C   0  0  0  0  0  0  0  0  0  0  0  0
   11.0745   -2.0905   46.6735 C   0  0  0  0  0  0  0  0  0  0  0  0
   11.1189   -2.5101   45.2315 C   0  0  0  0  0  0  0  0  0  0  0  0
    8.6548   -1.3952   49.4178 O   0  0  0  0  0  0  0  0  0  0  0  0
   12.2483   -1.7792   47.2003 C   0  0  0  0  0  0  0  0  0  0  0  0
   11.0576   -1.2774   49.2428 C   0  0  0  0  0  0  0  0  0  0  0  0
   13.4741   -1.9527   46.5228 C   0  0  0  0  0  0  0  0  0  0  0  0
   12.0698   -2.3865   44.6069 N   0  0  0  0  0  0  0  0  0  0  0  0
   13.3731   -2.1489   45.1022 C   0  0  0  0  0  0  0  0  0  0  0  0
   11.0534   -0.9012   50.6768 O   0  0  0  0  0  0  0  0  0  0  0  0
   12.3022   -1.4075   48.6058 C   0  0  0  0  0  0  0  0  0  0  0  0
  1  2  2  0
  2  3  1  0
  3  4  1  0
  3  5  2  0
  2  6  1  0
  4  7  1  0
  5  8  1  0
  1  9  1  0
  5  9  1  0
  8 10  1  0
  7 11  1  0
 10 11  1  0
  6 12  2  0
  4 13  2  0
 12 13  1  0
 11 14  1  0
 12 15  1  0
 10 16  2  0
  9 17  1  0
  8 18  1  0
 15 19  2  0
 19 20  1  0
 17 21  1  0
 18 21  1  0
 13 22  1  0
 20 22  2  0
 19 23  1  0
 23 24  2  0
 23 25  1  0
 25 26  2  0
 24 27  1  0
 25 28  1  0
 24 29  1  0
 28 30  2  0
 26 31  1  0
 30 32  1  0
 31 32  2  0
 29 33  1  0
 28 34  1  0
 29 34  2  0
M  END
$$$$
O14757_Pocket2Mol_idx-in-all-generaetd-324
     RDKit          3D

 40 47  0  0  0  0  0  0  0  0999 V2000
    4.8173    0.2791   42.6993 N   0  0  0  0  0  0  0  0  0  0  0  0
    5.3297   -0.7477   43.3688 C   0  0  0  0  0  0  0  0  0  0  0  0
    3.4732   -0.2235   42.4530 C   0  0  0  0  0  0  0  0  0  0  0  0
    4.4984   -1.7876   43.6214 C   0  0  0  0  0  0  0  0  0  0  0  0
    3.3438   -1.5190   42.9379 C   0  0  0  0  0  0  0  0  0  0  0  0
    2.1381   -2.3401   42.8254 C   0  0  0  0  0  0  0  0  0  0  0  0
    2.3894    0.3572   41.9843 N   0  0  0  0  0  0  0  0  0  0  0  0
    4.9180   -3.0430   44.3829 C   0  0  0  0  0  0  0  0  0  0  0  0
    5.9444   -2.9314   45.3934 C   0  0  0  0  0  0  0  0  0  0  0  0
    4.2808   -4.1329   44.3252 C   0  0  0  0  0  0  0  0  0  0  0  0
    3.1588   -4.4221   43.4852 O   0  0  0  0  0  0  0  0  0  0  0  0
    4.5704   -5.2518   45.1995 C   0  0  0  0  0  0  0  0  0  0  0  0
    1.9853   -3.6792   43.3495 C   0  0  0  0  0  0  0  0  0  0  0  0
    0.9181   -4.3294   43.4638 C   0  0  0  0  0  0  0  0  0  0  0  0
    6.7403   -1.6226   45.5272 C   0  0  2  0  0  0  0  0  0  0  0  0
    0.9752   -1.7845   42.3366 C   0  0  0  0  0  0  0  0  0  0  0  0
    6.2516   -3.7287   46.2722 C   0  0  0  0  0  0  0  0  0  0  0  0
   -0.2404   -2.4179   42.2529 C   0  0  0  0  0  0  0  0  0  0  0  0
   -1.3835   -1.8904   41.6559 N   0  0  0  0  0  0  0  0  0  0  0  0
    3.8706   -6.4216   45.1394 O   0  0  0  0  0  0  0  0  0  0  0  0
    0.9456   -0.2789   41.7649 C   0  0  0  0  0  0  0  0  0  0  0  0
   -0.2678   -3.6969   42.7575 C   0  0  0  0  0  0  0  0  0  0  0  0
    6.3913   -0.7000   44.3807 N   0  0  0  0  0  0  0  0  0  0  0  0
    7.9391   -1.5867   46.0069 C   0  0  0  0  0  0  0  0  0  0  0  0
    8.7787   -0.4879   45.9761 O   0  0  0  0  0  0  0  0  0  0  0  0
    5.3853   -5.1216   46.3780 C   0  0  0  0  0  0  0  0  0  0  0  0
    8.4504   -2.7517   46.6262 N   0  0  0  0  0  0  0  0  0  0  0  0
    7.4807   -3.7374   47.0380 C   0  0  0  0  0  0  0  0  0  0  0  0
    9.7261   -2.6138   47.3732 C   0  0  0  0  0  0  0  0  0  0  0  0
    9.9606   -3.7577   48.0581 C   0  0  0  0  0  0  0  0  0  0  0  0
   11.0999   -4.4648   47.7368 O   0  0  0  0  0  0  0  0  0  0  0  0
   10.9199   -5.0316   46.4526 C   0  0  0  0  0  0  0  0  0  0  0  0
   10.2272   -6.0822   46.3751 C   0  0  0  0  0  0  0  0  0  0  0  0
   11.3454   -4.3181   45.2884 C   0  0  0  0  0  0  0  0  0  0  0  0
   11.3250   -4.9698   44.1087 C   0  0  0  0  0  0  0  0  0  0  0  0
    9.6987   -6.7623   47.6218 O   0  0  0  0  0  0  0  0  0  0  0  0
    8.4878   -7.5788   47.6714 C   0  0  0  0  0  0  0  0  0  0  0  0
   10.1053   -6.9051   45.2192 C   0  0  0  0  0  0  0  0  0  0  0  0
    9.5989   -8.0868   45.2087 O   0  0  0  0  0  0  0  0  0  0  0  0
   10.7340   -6.2695   44.1083 C   0  0  0  0  0  0  0  0  0  0  0  0
  1  2  2  0
  1  3  1  0
  2  4  1  0
  3  5  1  0
  4  5  2  0
  5  6  1  0
  3  7  2  0
  4  8  1  0
  8  9  1  0
  8 10  2  0
 10 11  1  0
 10 12  1  0
  6 13  1  0
 11 13  1  0
 13 14  2  0
  9 15  1  0
  6 16  2  0
  9 17  2  0
 16 18  1  0
 18 19  1  0
 12 20  1  0
  7 21  1  0
 16 21  1  0
 14 22  1  0
 18 22  2  0
  2 23  1  0
 15 23  1  6
 15 24  1  0
 24 25  2  0
 12 26  2  0
 17 26  1  0
 24 27  1  0
 17 28  1  0
 27 28  1  0
 27 29  1  0
 29 30  1  0
 30 31  1  0
 31 32  1  0
 32 33  2  0
 32 34  1  0
 34 35  2  0
 33 36  1  0
 36 37  1  0
 33 38  1  0
 38 39  1  0
 35 40  1  0
 38 40  2  0
M  END
$$$$
O14757_Pocket2Mol_idx-in-all-generaetd-325
     RDKit          3D

 50 58  0  0  0  0  0  0  0  0999 V2000
    5.3420    0.2589   42.8836 O   0  0  0  0  0  0  0  0  0  0  0  0
    5.1627   -0.7554   43.4753 C   0  0  0  0  0  0  0  0  0  0  0  0
    4.0509   -1.4657   43.4177 N   0  0  0  0  0  0  0  0  0  0  0  0
    5.9969   -1.2317   44.6840 C   0  0  0  0  0  0  0  0  0  0  0  0
    2.9618   -1.1021   42.5918 C   0  0  1  0  0  0  0  0  0  0  0  0
    7.3392   -0.8596   44.8412 C   0  0  0  0  0  0  0  0  0  0  0  0
    1.9754   -2.0820   42.2741 C   0  0  0  0  0  0  0  0  0  0  0  0
    5.5910   -2.4282   45.3439 C   0  0  0  0  0  0  0  0  0  0  0  0
    6.5874   -2.9636   46.1581 C   0  0  0  0  0  0  0  0  0  0  0  0
    4.2763   -3.0680   45.0493 N   0  0  0  0  0  0  0  0  0  0  0  0
    3.6188   -2.5886   44.2024 C   0  0  0  0  0  0  0  0  0  0  0  0
    8.1921   -1.4071   45.7505 C   0  0  0  0  0  0  0  0  0  0  0  0
    1.0154   -1.8839   41.2980 C   0  0  0  0  0  0  0  0  0  0  0  0
    2.5720   -3.3564   43.9063 C   0  0  0  0  0  0  0  0  0  0  0  0
    0.2502   -2.8976   41.0751 C   0  0  0  0  0  0  0  0  0  0  0  0
    6.1761   -4.1775   47.0209 C   0  0  0  0  0  0  0  0  0  0  0  0
    1.7266   -3.1047   43.0115 C   0  0  2  0  0  0  0  0  0  0  0  0
    2.3696   -4.5367   44.7536 N   0  0  0  0  0  0  0  0  0  0  0  0
    1.2264   -5.2346   44.4693 C   0  0  0  0  0  0  0  0  0  0  0  0
    0.7187   -3.8955   42.5465 C   0  0  0  0  0  0  0  0  0  0  0  0
    9.4576   -0.8949   46.0327 N   0  0  0  0  0  0  0  0  0  0  0  0
    0.8625   -6.3901   45.2462 C   0  0  0  0  0  0  0  0  0  0  0  0
    7.6467   -2.5139   46.4892 C   0  0  0  0  0  0  0  0  0  0  0  0
   10.4908   -1.5336   45.8242 C   0  0  0  0  0  0  0  0  0  0  0  0
    0.3057   -4.9299   43.2909 C   0  0  0  0  0  0  0  0  0  0  0  0
   11.5916   -1.4291   46.7436 C   0  0  0  0  0  0  0  0  0  0  0  0
   10.5566   -2.3672   44.8649 O   0  0  0  0  0  0  0  0  0  0  0  0
    2.4730    0.2084   42.8389 O   0  0  0  0  0  0  0  0  0  0  0  0
   11.6027   -2.2081   47.7725 N   0  0  0  0  0  0  0  0  0  0  0  0
   12.6189   -0.5862   46.5415 C   0  0  0  0  0  0  0  0  0  0  0  0
   13.6413   -0.4484   47.4129 C   0  0  0  0  0  0  0  0  0  0  0  0
   10.4764   -3.1097   48.1134 C   0  0  0  0  0  0  0  0  0  0  0  0
    9.5762   -2.4717   49.0753 C   0  0  0  0  0  0  0  0  0  0  0  0
    9.7761   -1.2394   49.5167 C   0  0  0  0  0  0  0  0  0  0  0  0
    8.6397   -3.3252   49.7339 C   0  0  0  0  0  0  0  0  0  0  0  0
    8.9861   -0.7034   50.5819 C   0  0  0  0  0  0  0  0  0  0  0  0
   14.7137    0.5128   47.0925 C   0  0  0  0  0  0  0  0  0  0  0  0
    8.3536   -4.6815   49.2042 C   0  0  0  0  0  0  0  0  0  0  0  0
    7.9034   -2.7594   50.6763 C   0  0  0  0  0  0  0  0  0  0  0  0
    6.9327   -5.0150   49.0248 N   0  0  0  0  0  0  0  0  0  0  0  0
    8.1305   -1.4992   51.1482 C   0  0  0  0  0  0  0  0  0  0  0  0
    6.3852   -3.9495   48.3951 C   0  0  0  0  0  0  0  0  0  0  0  0
   13.6768   -1.2836   48.4696 C   0  0  0  0  0  0  0  0  0  0  0  0
   14.7714   -1.2324   49.3357 C   0  0  0  0  0  0  0  0  0  0  0  0
   14.6039    1.3613   46.0092 O   0  0  0  0  0  0  0  0  0  0  0  0
   15.6148    0.5183   47.8553 C   0  0  0  0  0  0  0  0  0  0  0  0
   12.6372   -2.2072   48.7464 C   0  0  0  0  0  0  0  0  0  0  0  0
   15.5031    1.4968   45.2865 C   0  0  0  0  0  0  0  0  0  0  0  0
   14.9173   -1.9921   50.4979 O   0  0  0  0  0  0  0  0  0  0  0  0
   15.8444   -0.2874   49.1512 C   0  0  0  0  0  0  0  0  0  0  0  0
  1  2  2  0
  2  3  1  0
  2  4  1  0
  3  5  1  0
  4  6  2  0
  5  7  1  0
  4  8  1  0
  8  9  2  0
  8 10  1  0
  3 11  1  0
 10 11  2  0
  6 12  1  0
  7 13  2  0
 11 14  1  0
 13 15  1  0
  9 16  1  0
 17  7  1  6
 14 17  1  0
 14 18  2  0
 18 19  1  0
 15 20  2  0
 17 20  1  0
 12 21  1  0
 19 22  1  0
  9 23  1  0
 12 23  2  0
 21 24  1  0
 19 25  2  0
 20 25  1  0
 24 26  1  0
 24 27  2  0
  5 28  1  1
 26 29  1  0
 26 30  2  0
 30 31  1  0
 29 32  1  0
 32 33  1  0
 33 34  1  0
 33 35  2  0
 34 36  2  0
 31 37  2  0
 35 38  1  0
 35 39  1  0
 38 40  1  0
 36 41  1  0
 39 41  2  0
 16 42  1  0
 40 42  1  0
 31 43  1  0
 43 44  2  0
 37 45  1  0
 37 46  1  0
 29 47  1  0
 43 47  1  0
 45 48  1  0
 44 49  1  0
 44 50  1  0
 46 50  2  0
M  END
$$$$
O14757_Pocket2Mol_idx-in-all-generaetd-326
     RDKit          3D

 42 50  0  0  0  0  0  0  0  0999 V2000
    1.5482   -0.3111   41.9233 C   0  0  0  0  0  0  0  0  0  0  0  0
    2.7284    0.2018   42.1525 N   0  0  0  0  0  0  0  0  0  0  0  0
    3.7893   -0.3016   42.7005 C   0  0  0  0  0  0  0  0  0  0  0  0
    3.3781   -1.7350   43.0000 C   0  0  0  0  0  0  0  0  0  0  0  0
    2.0339   -1.9619   42.6217 C   0  0  0  0  0  0  0  0  0  0  0  0
    5.0090    0.1219   42.9340 N   0  0  0  0  0  0  0  0  0  0  0  0
    4.2895   -2.4979   43.6707 C   0  0  0  0  0  0  0  0  0  0  0  0
    5.8391   -0.6675   43.6343 C   0  0  0  0  0  0  0  0  0  0  0  0
    6.9849   -0.2377   44.0028 N   0  0  0  0  0  0  0  0  0  0  0  0
    4.0426   -3.8794   44.0832 C   0  0  0  0  0  0  0  0  0  0  0  0
    7.6796   -0.8734   44.9326 C   0  0  0  0  0  0  0  0  0  0  0  0
    1.1064   -2.9576   42.4211 C   0  0  0  0  0  0  0  0  0  0  0  0
    5.5298   -1.9496   44.0315 C   0  0  0  0  0  0  0  0  0  0  0  0
    3.8954   -4.1817   45.4718 C   0  0  0  0  0  0  0  0  0  0  0  0
    0.6765   -3.5480   43.4006 C   0  0  1  0  0  0  0  0  0  0  0  0
    0.5804   -3.2191   41.1635 C   0  0  0  0  0  0  0  0  0  0  0  0
    2.8083   -4.8227   45.9203 N   0  0  0  0  0  0  0  0  0  0  0  0
   -0.1574   -4.5754   42.9329 N   0  0  0  0  0  0  0  0  0  0  0  0
    6.5271   -2.5531   44.9677 C   0  0  0  0  0  0  0  0  0  0  0  0
   -0.2272   -4.3703   41.5137 C   0  0  0  0  0  0  0  0  0  0  0  0
    7.5095   -2.0029   45.3993 C   0  0  0  0  0  0  0  0  0  0  0  0
    8.2550   -2.6982   46.3988 C   0  0  1  0  0  0  0  0  0  0  0  0
    8.8975   -0.3029   45.3267 O   0  0  0  0  0  0  0  0  0  0  0  0
    4.8299   -4.4637   46.4212 C   0  0  0  0  0  0  0  0  0  0  0  0
    4.2707   -4.9248   47.6295 N   0  0  0  0  0  0  0  0  0  0  0  0
    3.2045   -5.2092   47.1521 C   0  0  0  0  0  0  0  0  0  0  0  0
    1.4482   -4.6186   45.4134 C   0  0  0  0  0  0  0  0  0  0  0  0
    1.3256   -3.7660   44.6394 N   0  0  0  0  0  0  0  0  0  0  0  0
    9.2816   -2.1418   47.1273 N   0  0  0  0  0  0  0  0  0  0  0  0
   10.0629   -3.1324   47.8508 C   0  0  0  0  0  0  0  0  0  0  0  0
    6.3491   -3.8960   46.0844 C   0  0  2  0  0  0  0  0  0  0  0  0
    7.4349   -3.5889   46.9054 C   0  0  0  0  0  0  0  0  0  0  0  0
   10.3145   -2.7271   49.0818 O   0  0  0  0  0  0  0  0  0  0  0  0
   11.0221   -3.8171   47.1052 C   0  0  0  0  0  0  0  0  0  0  0  0
    0.8710   -5.7412   45.2074 O   0  0  0  0  0  0  0  0  0  0  0  0
   12.1654   -3.3890   46.7468 C   0  0  0  0  0  0  0  0  0  0  0  0
   10.6095   -5.0619   46.5869 C   0  0  0  0  0  0  0  0  0  0  0  0
   11.4809   -5.8528   45.8718 C   0  0  0  0  0  0  0  0  0  0  0  0
   12.6501   -1.9646   47.2855 O   0  0  0  0  0  0  0  0  0  0  0  0
   12.6947   -1.0000   46.3254 C   0  0  0  0  0  0  0  0  0  0  0  0
   12.7648   -5.3726   45.6887 C   0  0  0  0  0  0  0  0  0  0  0  0
   13.2266   -4.0321   46.1398 C   0  0  0  0  0  0  0  0  0  0  0  0
  1  2  1  0
  2  3  2  0
  3  4  1  0
  1  5  2  0
  4  5  1  0
  3  6  1  0
  4  7  2  0
  6  8  1  0
  8  9  1  0
  7 10  1  0
  9 11  1  0
  5 12  1  0
  7 13  1  0
  8 13  2  0
 10 14  1  0
 12 15  1  0
 12 16  2  0
 14 17  1  0
 15 18  1  0
 13 19  1  0
 16 20  1  0
 18 20  2  0
 11 21  1  0
 19 21  2  0
 21 22  1  0
 11 23  2  0
 14 24  2  0
 24 25  1  0
 17 26  1  0
 25 26  2  0
 17 27  1  0
 15 28  1  6
 27 28  1  0
 22 29  1  1
 29 30  1  0
 19 31  1  0
 24 31  1  0
 22 32  1  0
 31 32  1  1
 30 33  2  0
 30 34  1  0
 27 35  2  0
 34 36  2  0
 34 37  1  0
 37 38  2  0
 36 39  1  0
 39 40  1  0
 38 41  1  0
 36 42  1  0
 41 42  2  0
M  END
$$$$
O14757_Pocket2Mol_idx-in-all-generaetd-327
     RDKit          3D

 44 51  0  0  0  0  0  0  0  0999 V2000
    1.5482   -0.3111   41.9233 C   0  0  0  0  0  0  0  0  0  0  0  0
    2.7284    0.2018   42.1525 N   0  0  0  0  0  0  0  0  0  0  0  0
    3.7893   -0.3016   42.7005 C   0  0  0  0  0  0  0  0  0  0  0  0
    3.3781   -1.7350   43.0000 C   0  0  0  0  0  0  0  0  0  0  0  0
    2.0339   -1.9619   42.6217 C   0  0  0  0  0  0  0  0  0  0  0  0
    4.1166   -2.4997   43.8458 C   0  0  0  0  0  0  0  0  0  0  0  0
    1.1731   -3.0051   42.5773 C   0  0  0  0  0  0  0  0  0  0  0  0
    0.4701   -3.2344   41.4901 C   0  0  0  0  0  0  0  0  0  0  0  0
    5.3799   -1.7814   44.2691 C   0  0  0  0  0  0  0  0  0  0  0  0
    5.0159   -0.0180   43.1201 N   0  0  0  0  0  0  0  0  0  0  0  0
    5.7693   -0.6937   43.8418 C   0  0  0  0  0  0  0  0  0  0  0  0
    0.8078   -3.6166   43.6782 C   0  0  0  0  0  0  0  0  0  0  0  0
    0.0663   -4.7011   43.7415 N   0  0  0  0  0  0  0  0  0  0  0  0
    6.2223   -2.6843   45.1565 C   0  0  0  0  0  0  0  0  0  0  0  0
    1.4459   -3.3095   45.0236 O   0  0  0  0  0  0  0  0  0  0  0  0
   -0.5278   -5.1074   42.5506 C   0  0  0  0  0  0  0  0  0  0  0  0
   -1.3099   -6.2193   42.5332 N   0  0  0  0  0  0  0  0  0  0  0  0
   -0.3906   -4.3573   41.3904 C   0  0  0  0  0  0  0  0  0  0  0  0
    7.0535   -0.4845   44.4478 N   0  0  0  0  0  0  0  0  0  0  0  0
    0.6210   -3.8397   46.1835 C   0  0  0  0  0  0  0  0  0  0  0  0
    6.2906   -3.7888   45.8815 C   0  0  0  0  0  0  0  0  0  0  0  0
    7.3965   -1.5466   45.3147 C   0  0  0  0  0  0  0  0  0  0  0  0
    5.1449   -4.4973   46.0473 O   0  0  0  0  0  0  0  0  0  0  0  0
    7.4148   -4.1081   46.6372 C   0  0  0  0  0  0  0  0  0  0  0  0
    8.5011   -3.1747   46.6693 C   0  0  0  0  0  0  0  0  0  0  0  0
    8.4580   -1.9168   46.0438 C   0  0  0  0  0  0  0  0  0  0  0  0
    9.8193   -3.4927   47.5654 C   0  0  1  0  0  0  0  0  0  0  0  0
    4.3482   -4.5667   47.1383 C   0  0  0  0  0  0  0  0  0  0  0  0
   10.8925   -3.4519   46.9633 C   0  0  0  0  0  0  0  0  0  0  0  0
   11.7691   -2.4393   47.2298 N   0  0  0  0  0  0  0  0  0  0  0  0
   11.5679   -1.6048   48.2682 C   0  0  0  0  0  0  0  0  0  0  0  0
   13.2337   -2.7224   46.9899 C   0  0  0  0  0  0  0  0  0  0  0  0
   11.1468   -4.1806   45.9346 O   0  0  0  0  0  0  0  0  0  0  0  0
   14.0674   -3.2434   47.7193 C   0  0  0  0  0  0  0  0  0  0  0  0
   13.7337   -3.8357   48.9955 C   0  0  0  0  0  0  0  0  0  0  0  0
   10.6978   -1.8484   49.2819 O   0  0  0  0  0  0  0  0  0  0  0  0
    9.4523   -2.4064   48.7424 C   0  0  0  0  0  0  0  0  0  0  0  0
   15.3983   -3.3716   47.3589 C   0  0  0  0  0  0  0  0  0  0  0  0
   13.6455   -2.4134   45.5677 C   0  0  0  0  0  0  0  0  0  0  0  0
   16.3780   -3.9452   48.3150 C   0  0  0  0  0  0  0  0  0  0  0  0
   15.9415   -4.4594   49.4450 C   0  0  0  0  0  0  0  0  0  0  0  0
   15.5839   -2.8211   46.1044 C   0  0  0  0  0  0  0  0  0  0  0  0
   16.9668   -5.0405   50.3540 O   0  0  0  0  0  0  0  0  0  0  0  0
   14.5976   -4.4005   49.9149 C   0  0  0  0  0  0  0  0  0  0  0  0
  1  2  1  0
  2  3  2  0
  3  4  1  0
  1  5  2  0
  4  5  1  0
  4  6  2  0
  5  7  1  0
  7  8  2  0
  6  9  1  0
  3 10  1  0
  9 11  1  0
 10 11  1  0
  7 12  1  0
 12 13  2  0
  9 14  2  0
 12 15  1  0
 13 16  1  0
 16 17  1  0
  8 18  1  0
 16 18  2  0
 11 19  2  0
 15 20  1  0
 14 21  1  0
 14 22  1  0
 19 22  1  0
 21 23  1  0
 21 24  2  0
 24 25  1  0
 22 26  2  0
 25 26  2  0
 27 25  1  6
 23 28  1  0
 27 29  1  0
 29 30  1  0
 30 31  1  0
 30 32  1  0
 29 33  2  0
 32 34  2  0
 34 35  1  0
 31 36  1  0
 27 37  1  0
 36 37  1  0
 34 38  1  0
 32 39  1  0
 38 40  1  0
 40 41  2  0
 38 42  2  0
 39 42  1  0
 41 43  1  0
 35 44  2  0
 41 44  1  0
M  END
$$$$
O14757_Pocket2Mol_idx-in-all-generaetd-328
     RDKit          3D

 43 49  0  0  0  0  0  0  0  0999 V2000
    5.3420    0.2589   42.8836 O   0  0  0  0  0  0  0  0  0  0  0  0
    5.1627   -0.7554   43.4753 C   0  0  0  0  0  0  0  0  0  0  0  0
    4.0509   -1.4657   43.4177 N   0  0  0  0  0  0  0  0  0  0  0  0
    5.9969   -1.2317   44.6840 C   0  0  0  0  0  0  0  0  0  0  0  0
    2.9618   -1.1021   42.5918 C   0  0  1  0  0  0  0  0  0  0  0  0
    7.3392   -0.8596   44.8412 C   0  0  0  0  0  0  0  0  0  0  0  0
    1.9754   -2.0820   42.2741 C   0  0  0  0  0  0  0  0  0  0  0  0
    5.5910   -2.4282   45.3439 C   0  0  0  0  0  0  0  0  0  0  0  0
    6.5874   -2.9636   46.1581 C   0  0  0  0  0  0  0  0  0  0  0  0
    4.2763   -3.0680   45.0493 N   0  0  0  0  0  0  0  0  0  0  0  0
    3.6188   -2.5886   44.2024 C   0  0  0  0  0  0  0  0  0  0  0  0
    8.1921   -1.4071   45.7505 C   0  0  0  0  0  0  0  0  0  0  0  0
    1.0154   -1.8839   41.2980 C   0  0  0  0  0  0  0  0  0  0  0  0
    2.5720   -3.3564   43.9063 C   0  0  0  0  0  0  0  0  0  0  0  0
    0.2502   -2.8976   41.0751 C   0  0  0  0  0  0  0  0  0  0  0  0
    6.1761   -4.1775   47.0209 C   0  0  0  0  0  0  0  0  0  0  0  0
    1.7266   -3.1047   43.0115 C   0  0  2  0  0  0  0  0  0  0  0  0
    2.3696   -4.5367   44.7536 N   0  0  0  0  0  0  0  0  0  0  0  0
    1.2264   -5.2346   44.4693 C   0  0  0  0  0  0  0  0  0  0  0  0
    0.7187   -3.8955   42.5465 C   0  0  0  0  0  0  0  0  0  0  0  0
    9.4576   -0.8949   46.0327 N   0  0  0  0  0  0  0  0  0  0  0  0
    0.8625   -6.3901   45.2462 C   0  0  0  0  0  0  0  0  0  0  0  0
    7.6467   -2.5139   46.4892 C   0  0  0  0  0  0  0  0  0  0  0  0
   10.4908   -1.5336   45.8242 C   0  0  0  0  0  0  0  0  0  0  0  0
    0.3057   -4.9299   43.2909 C   0  0  0  0  0  0  0  0  0  0  0  0
   11.5916   -1.4291   46.7436 C   0  0  0  0  0  0  0  0  0  0  0  0
   10.5566   -2.3672   44.8649 O   0  0  0  0  0  0  0  0  0  0  0  0
   12.8421   -1.9355   46.2823 C   0  0  0  0  0  0  0  0  0  0  0  0
   13.4833   -2.8582   46.9841 C   0  0  0  0  0  0  0  0  0  0  0  0
   11.4002   -1.1447   48.0540 C   0  0  0  0  0  0  0  0  0  0  0  0
   10.2867   -0.4569   48.4999 O   0  0  0  0  0  0  0  0  0  0  0  0
   12.3327   -1.4798   48.9564 C   0  0  0  0  0  0  0  0  0  0  0  0
   14.7901   -3.3162   46.6439 C   0  0  0  0  0  0  0  0  0  0  0  0
   12.1651   -1.3050   50.3239 O   0  0  0  0  0  0  0  0  0  0  0  0
   15.6765   -2.5740   46.0979 C   0  0  0  0  0  0  0  0  0  0  0  0
   13.4417   -2.4710   48.5369 C   0  0  0  0  0  0  0  0  0  0  0  0
   15.5553   -1.2853   45.8338 C   0  0  0  0  0  0  0  0  0  0  0  0
   15.4119   -0.8806   44.5116 C   0  0  0  0  0  0  0  0  0  0  0  0
   15.4231    0.5245   44.1215 C   0  0  0  0  0  0  0  0  0  0  0  0
    2.4635    0.2112   42.8525 C   0  0  0  0  0  0  0  0  0  0  0  0
   15.1051    1.3384   44.9492 C   0  0  0  0  0  0  0  0  0  0  0  0
   15.3958    1.1540   46.3157 C   0  0  0  0  0  0  0  0  0  0  0  0
   15.5560   -0.1817   46.7188 C   0  0  0  0  0  0  0  0  0  0  0  0
  1  2  2  0
  2  3  1  0
  2  4  1  0
  3  5  1  0
  4  6  2  0
  5  7  1  0
  4  8  1  0
  8  9  2  0
  8 10  1  0
  3 11  1  0
 10 11  2  0
  6 12  1  0
  7 13  2  0
 11 14  1  0
 13 15  1  0
  9 16  1  0
 17  7  1  6
 14 17  1  0
 14 18  2  0
 18 19  1  0
 15 20  2  0
 17 20  1  0
 12 21  1  0
 19 22  1  0
  9 23  1  0
 12 23  2  0
 21 24  1  0
 19 25  2  0
 20 25  1  0
 24 26  1  0
 24 27  2  0
 26 28  2  0
 28 29  1  0
 26 30  1  0
 30 31  1  0
 30 32  2  0
 29 33  1  0
 32 34  1  0
 33 35  2  3
 29 36  2  0
 32 36  1  0
 35 37  1  0
 37 38  2  0
 38 39  1  0
  5 40  1  1
 39 41  2  0
 41 42  1  0
 37 43  1  0
 42 43  2  0
M  END
$$$$
O14757_Pocket2Mol_idx-in-all-generaetd-329
     RDKit          3D

 32 37  0  0  0  0  0  0  0  0999 V2000
    5.3420    0.2589   42.8836 N   0  0  0  0  0  0  0  0  0  0  0  0
    5.6740   -0.8311   43.5645 C   0  0  0  0  0  0  0  0  0  0  0  0
    6.8416   -0.9240   44.3627 N   0  0  0  0  0  0  0  0  0  0  0  0
    4.1141    0.2821   42.2689 C   0  0  0  0  0  0  0  0  0  0  0  0
    3.2237   -0.7484   42.3921 N   0  0  0  0  0  0  0  0  0  0  0  0
    6.8097   -1.9585   45.3182 C   0  0  0  0  0  0  0  0  0  0  0  0
    3.5007   -1.8060   43.1511 C   0  0  0  0  0  0  0  0  0  0  0  0
    4.7020   -1.8573   43.8328 C   0  0  0  0  0  0  0  0  0  0  0  0
    5.4887   -2.6670   44.9856 C   0  0  0  0  0  0  0  0  0  0  0  0
    2.5208   -2.8458   43.2671 C   0  0  0  0  0  0  0  0  0  0  0  0
    2.6558   -3.8570   44.2541 C   0  0  0  0  0  0  0  0  0  0  0  0
    7.6468   -2.3589   46.2854 C   0  0  0  0  0  0  0  0  0  0  0  0
    3.8579   -4.1296   44.9532 N   0  0  0  0  0  0  0  0  0  0  0  0
    1.3096   -2.7520   42.6410 C   0  0  0  0  0  0  0  0  0  0  0  0
    4.9776   -3.8402   45.4939 C   0  0  0  0  0  0  0  0  0  0  0  0
    8.7023   -1.6088   46.4743 C   0  0  0  0  0  0  0  0  0  0  0  0
    9.5984   -1.8433   47.5139 C   0  0  0  0  0  0  0  0  0  0  0  0
    7.3782   -3.4221   47.2077 C   0  0  0  0  0  0  0  0  0  0  0  0
    1.5977   -4.7338   44.4801 C   0  0  0  0  0  0  0  0  0  0  0  0
    1.0668   -1.7644   41.4981 C   0  0  0  0  0  0  0  0  0  0  0  0
   10.8175   -0.9959   47.6882 O   0  0  0  0  0  0  0  0  0  0  0  0
   11.6053   -1.2371   48.6095 C   0  0  0  0  0  0  0  0  0  0  0  0
    0.3244   -3.6976   42.8655 C   0  0  0  0  0  0  0  0  0  0  0  0
   -0.8593   -3.6685   42.0130 N   0  0  0  0  0  0  0  0  0  0  0  0
    1.8517   -5.8131   45.4828 O   0  0  0  0  0  0  0  0  0  0  0  0
    0.4775   -4.6810   43.7729 C   0  0  0  0  0  0  0  0  0  0  0  0
    8.4243   -3.6698   48.3048 C   0  0  0  0  0  0  0  0  0  0  0  0
    0.8884   -6.6483   45.6347 C   0  0  0  0  0  0  0  0  0  0  0  0
   -1.0939   -2.6005   41.2593 C   0  0  0  0  0  0  0  0  0  0  0  0
    9.4839   -2.8689   48.3320 C   0  0  0  0  0  0  0  0  0  0  0  0
   -2.3270   -2.5363   40.5451 N   0  0  0  0  0  0  0  0  0  0  0  0
   -0.0556   -1.6582   40.9364 C   0  0  0  0  0  0  0  0  0  0  0  0
  1  2  2  0
  2  3  1  0
  1  4  1  0
  4  5  2  0
  3  6  1  0
  5  7  1  0
  2  8  1  0
  7  8  2  0
  6  9  2  0
  8  9  1  0
  7 10  1  0
 10 11  2  0
  6 12  1  0
 11 13  1  0
 10 14  1  0
  9 15  1  0
 13 15  1  0
 12 16  2  0
 16 17  1  0
 12 18  1  0
 11 19  1  0
 14 20  2  0
 17 21  1  0
 21 22  1  0
 14 23  1  0
 23 24  2  0
 19 25  1  0
 19 26  2  0
 23 26  1  0
 18 27  2  0
 25 28  1  0
 24 29  1  0
 17 30  2  0
 27 30  1  0
 29 31  1  0
 20 32  1  0
 29 32  2  0
M  END
$$$$
O14757_Pocket2Mol_idx-in-all-generaetd-330
     RDKit          3D

 38 43  0  0  0  0  0  0  0  0999 V2000
    1.5482   -0.3111   41.9233 C   0  0  0  0  0  0  0  0  0  0  0  0
    2.7284    0.2018   42.1525 N   0  0  0  0  0  0  0  0  0  0  0  0
    3.7893   -0.3016   42.7005 C   0  0  0  0  0  0  0  0  0  0  0  0
    3.3781   -1.7350   43.0000 C   0  0  0  0  0  0  0  0  0  0  0  0
    2.0339   -1.9619   42.6217 C   0  0  0  0  0  0  0  0  0  0  0  0
    4.1166   -2.4997   43.8458 C   0  0  0  0  0  0  0  0  0  0  0  0
    1.1731   -3.0051   42.5773 C   0  0  0  0  0  0  0  0  0  0  0  0
    0.4701   -3.2344   41.4901 C   0  0  0  0  0  0  0  0  0  0  0  0
    5.3799   -1.7814   44.2691 C   0  0  0  0  0  0  0  0  0  0  0  0
    5.0159   -0.0180   43.1201 N   0  0  0  0  0  0  0  0  0  0  0  0
    5.7693   -0.6937   43.8418 C   0  0  0  0  0  0  0  0  0  0  0  0
    0.8078   -3.6166   43.6782 C   0  0  0  0  0  0  0  0  0  0  0  0
    0.0663   -4.7011   43.7415 N   0  0  0  0  0  0  0  0  0  0  0  0
    6.2223   -2.6843   45.1565 C   0  0  0  0  0  0  0  0  0  0  0  0
    6.9599   -0.2351   44.2608 N   0  0  0  0  0  0  0  0  0  0  0  0
    5.9065   -3.9037   45.7499 N   0  0  0  0  0  0  0  0  0  0  0  0
   -0.5459   -5.1185   42.5870 C   0  0  0  0  0  0  0  0  0  0  0  0
    5.7480   -4.0340   46.9810 C   0  0  0  0  0  0  0  0  0  0  0  0
    7.4448   -1.8511   45.4198 C   0  0  0  0  0  0  0  0  0  0  0  0
    7.7572   -0.7827   45.0128 C   0  0  0  0  0  0  0  0  0  0  0  0
    8.4076   -2.7217   46.4541 C   0  0  0  0  0  0  0  0  0  0  0  0
    9.3167   -2.0988   47.1049 N   0  0  0  0  0  0  0  0  0  0  0  0
   -0.4719   -4.3893   41.5406 C   0  0  0  0  0  0  0  0  0  0  0  0
    8.3667   -4.0284   46.5743 N   0  0  0  0  0  0  0  0  0  0  0  0
    9.5309   -4.3147   47.3094 C   0  0  0  0  0  0  0  0  0  0  0  0
    5.3113   -3.3789   47.8005 O   0  0  0  0  0  0  0  0  0  0  0  0
    9.9022   -5.6301   47.7684 C   0  0  0  0  0  0  0  0  0  0  0  0
    5.4470   -5.5868   47.2096 C   0  0  0  0  0  0  0  0  0  0  0  0
   11.2254   -5.8679   48.0402 C   0  0  0  0  0  0  0  0  0  0  0  0
    8.9736   -6.6532   47.8548 C   0  0  0  0  0  0  0  0  0  0  0  0
   10.0616   -3.0670   47.6360 C   0  0  0  0  0  0  0  0  0  0  0  0
    9.2755   -7.8884   48.2076 C   0  0  0  0  0  0  0  0  0  0  0  0
   12.3151   -4.8393   47.9221 O   0  0  0  0  0  0  0  0  0  0  0  0
    8.2519   -8.9331   48.3446 C   0  0  0  0  0  0  0  0  0  0  0  0
   10.5780   -8.0935   48.4113 C   0  0  0  0  0  0  0  0  0  0  0  0
   11.7297   -7.1780   48.3936 C   0  0  0  0  0  0  0  0  0  0  0  0
    7.1530   -8.7018   47.6605 O   0  0  0  0  0  0  0  0  0  0  0  0
    5.9241   -9.1093   48.1360 C   0  0  0  0  0  0  0  0  0  0  0  0
  1  2  1  0
  2  3  2  0
  3  4  1  0
  1  5  2  0
  4  5  1  0
  4  6  2  0
  5  7  1  0
  7  8  2  0
  6  9  1  0
  3 10  1  0
  9 11  2  0
 10 11  1  0
  7 12  1  0
 12 13  2  0
  9 14  1  0
 11 15  1  0
 14 16  1  0
 13 17  1  0
 16 18  1  0
 14 19  2  0
 15 20  2  0
 19 20  1  0
 19 21  1  0
 21 22  2  0
  8 23  1  0
 17 23  2  0
 21 24  1  0
 24 25  1  0
 18 26  2  0
 25 27  1  0
 18 28  1  0
 27 29  2  0
 27 30  1  0
 22 31  1  0
 25 31  2  0
 30 32  2  0
 29 33  1  0
 32 34  1  0
 32 35  1  0
 29 36  1  0
 35 36  2  0
 34 37  1  0
 37 38  1  0
M  END
$$$$
O14757_Pocket2Mol_idx-in-all-generaetd-331
     RDKit          3D

 42 49  0  0  0  0  0  0  0  0999 V2000
    1.5482   -0.3111   41.9233 C   0  0  0  0  0  0  0  0  0  0  0  0
    2.7284    0.2018   42.1525 N   0  0  0  0  0  0  0  0  0  0  0  0
    3.7893   -0.3016   42.7005 C   0  0  0  0  0  0  0  0  0  0  0  0
    3.3781   -1.7350   43.0000 C   0  0  0  0  0  0  0  0  0  0  0  0
    2.0339   -1.9619   42.6217 C   0  0  0  0  0  0  0  0  0  0  0  0
    4.1166   -2.4997   43.8458 C   0  0  0  0  0  0  0  0  0  0  0  0
    1.1731   -3.0051   42.5773 C   0  0  0  0  0  0  0  0  0  0  0  0
    0.4701   -3.2344   41.4901 C   0  0  0  0  0  0  0  0  0  0  0  0
    5.3799   -1.7814   44.2691 C   0  0  0  0  0  0  0  0  0  0  0  0
    5.0159   -0.0180   43.1201 N   0  0  0  0  0  0  0  0  0  0  0  0
    5.7693   -0.6937   43.8418 C   0  0  0  0  0  0  0  0  0  0  0  0
    0.8078   -3.6166   43.6782 C   0  0  0  0  0  0  0  0  0  0  0  0
    0.0663   -4.7011   43.7415 N   0  0  0  0  0  0  0  0  0  0  0  0
    6.2223   -2.6843   45.1565 C   0  0  0  0  0  0  0  0  0  0  0  0
    6.9599   -0.2351   44.2608 N   0  0  0  0  0  0  0  0  0  0  0  0
    5.9065   -3.9037   45.7499 N   0  0  0  0  0  0  0  0  0  0  0  0
   -0.5459   -5.1185   42.5870 C   0  0  0  0  0  0  0  0  0  0  0  0
    5.7480   -4.0340   46.9810 C   0  0  0  0  0  0  0  0  0  0  0  0
    7.4448   -1.8511   45.4198 C   0  0  0  0  0  0  0  0  0  0  0  0
    7.7572   -0.7827   45.0128 C   0  0  0  0  0  0  0  0  0  0  0  0
    8.4076   -2.7217   46.4541 C   0  0  0  0  0  0  0  0  0  0  0  0
    9.3167   -2.0988   47.1049 N   0  0  0  0  0  0  0  0  0  0  0  0
   -0.4719   -4.3893   41.5406 C   0  0  0  0  0  0  0  0  0  0  0  0
    8.3667   -4.0284   46.5743 N   0  0  0  0  0  0  0  0  0  0  0  0
    9.5309   -4.3147   47.3094 C   0  0  0  0  0  0  0  0  0  0  0  0
    5.3113   -3.3789   47.8005 O   0  0  0  0  0  0  0  0  0  0  0  0
    9.9022   -5.6301   47.7684 C   0  0  0  0  0  0  0  0  0  0  0  0
    5.4470   -5.5868   47.2096 C   0  0  0  0  0  0  0  0  0  0  0  0
   11.2254   -5.8679   48.0402 C   0  0  0  0  0  0  0  0  0  0  0  0
    8.9736   -6.6532   47.8548 C   0  0  0  0  0  0  0  0  0  0  0  0
   10.0616   -3.0670   47.6360 C   0  0  0  0  0  0  0  0  0  0  0  0
    7.5566   -6.3564   47.5477 N   0  0  0  0  0  0  0  0  0  0  0  0
   12.3328   -4.8893   47.9268 C   0  0  0  0  0  0  0  0  0  0  0  0
   12.2085   -3.9673   46.9997 C   0  0  0  0  0  0  0  0  0  0  0  0
    9.2156   -7.8300   48.4499 C   0  0  0  0  0  0  0  0  0  0  0  0
   11.4851   -2.8378   47.7540 C   0  0  0  0  0  0  0  0  0  0  0  0
    6.4874   -6.3039   48.2799 C   0  0  0  0  0  0  0  0  0  0  0  0
    8.2619   -8.8998   48.5740 O   0  0  0  0  0  0  0  0  0  0  0  0
   11.5928   -7.1202   48.5770 C   0  0  0  0  0  0  0  0  0  0  0  0
   12.9393   -7.4595   48.9456 O   0  0  0  0  0  0  0  0  0  0  0  0
    8.6912  -10.1431   48.5465 C   0  0  0  0  0  0  0  0  0  0  0  0
   10.6412   -8.2342   48.7912 C   0  0  0  0  0  0  0  0  0  0  0  0
  1  2  1  0
  2  3  2  0
  3  4  1  0
  1  5  2  0
  4  5  1  0
  4  6  2  0
  5  7  1  0
  7  8  2  0
  6  9  1  0
  3 10  1  0
  9 11  2  0
 10 11  1  0
  7 12  1  0
 12 13  2  0
  9 14  1  0
 11 15  1  0
 14 16  1  0
 13 17  1  0
 16 18  1  0
 14 19  2  0
 15 20  2  0
 19 20  1  0
 19 21  1  0
 21 22  2  0
  8 23  1  0
 17 23  2  0
 21 24  1  0
 24 25  1  0
 18 26  2  0
 25 27  1  0
 18 28  1  0
 27 29  2  0
 27 30  1  0
 22 31  1  0
 25 31  2  0
 30 32  1  0
 29 33  1  0
 33 34  1  0
 30 35  2  0
 31 36  1  0
 34 36  1  0
 28 37  1  0
 32 37  1  0
 35 38  1  0
 29 39  1  0
 39 40  1  0
 38 41  1  0
 35 42  1  0
 39 42  2  0
M  END
$$$$
O14757_Pocket2Mol_idx-in-all-generaetd-332
     RDKit          3D

 46 55  0  0  0  0  0  0  0  0999 V2000
    1.5482   -0.3111   41.9233 C   0  0  0  0  0  0  0  0  0  0  0  0
    2.7284    0.2018   42.1525 N   0  0  0  0  0  0  0  0  0  0  0  0
    3.7893   -0.3016   42.7005 C   0  0  0  0  0  0  0  0  0  0  0  0
    3.3781   -1.7350   43.0000 C   0  0  0  0  0  0  0  0  0  0  0  0
    2.0339   -1.9619   42.6217 C   0  0  0  0  0  0  0  0  0  0  0  0
    5.0090    0.1219   42.9340 N   0  0  0  0  0  0  0  0  0  0  0  0
    4.2895   -2.4979   43.6707 C   0  0  0  0  0  0  0  0  0  0  0  0
    5.8391   -0.6675   43.6343 C   0  0  0  0  0  0  0  0  0  0  0  0
    6.9849   -0.2377   44.0028 N   0  0  0  0  0  0  0  0  0  0  0  0
    4.0426   -3.8794   44.0832 C   0  0  0  0  0  0  0  0  0  0  0  0
    7.6796   -0.8734   44.9326 C   0  0  0  0  0  0  0  0  0  0  0  0
    1.1064   -2.9576   42.4211 C   0  0  0  0  0  0  0  0  0  0  0  0
    5.5298   -1.9496   44.0315 C   0  0  0  0  0  0  0  0  0  0  0  0
    3.8954   -4.1817   45.4718 C   0  0  0  0  0  0  0  0  0  0  0  0
    0.6765   -3.5480   43.4006 C   0  0  1  0  0  0  0  0  0  0  0  0
    0.5804   -3.2191   41.1635 C   0  0  0  0  0  0  0  0  0  0  0  0
    2.8083   -4.8227   45.9203 N   0  0  0  0  0  0  0  0  0  0  0  0
   -0.1574   -4.5754   42.9329 N   0  0  0  0  0  0  0  0  0  0  0  0
    6.5271   -2.5531   44.9677 C   0  0  0  0  0  0  0  0  0  0  0  0
   -0.2272   -4.3703   41.5137 C   0  0  0  0  0  0  0  0  0  0  0  0
    7.5095   -2.0029   45.3993 C   0  0  0  0  0  0  0  0  0  0  0  0
    8.2550   -2.6982   46.3988 C   0  0  0  0  0  0  0  0  0  0  0  0
    8.8975   -0.3029   45.3267 O   0  0  0  0  0  0  0  0  0  0  0  0
    4.8299   -4.4637   46.4212 C   0  0  0  0  0  0  0  0  0  0  0  0
    4.2707   -4.9248   47.6295 N   0  0  0  0  0  0  0  0  0  0  0  0
    3.2045   -5.2092   47.1521 C   0  0  0  0  0  0  0  0  0  0  0  0
    1.4482   -4.6186   45.4134 C   0  0  1  0  0  0  0  0  0  0  0  0
    1.2398   -3.5043   44.6236 O   0  0  0  0  0  0  0  0  0  0  0  0
    6.3317   -3.9297   46.0870 C   0  0  2  0  0  0  0  0  0  0  0  0
    9.5296   -2.5449   46.9776 C   0  0  0  0  0  0  0  0  0  0  0  0
    9.7921   -1.7530   47.9018 O   0  0  0  0  0  0  0  0  0  0  0  0
    7.3972   -3.8130   46.7939 C   0  0  0  0  0  0  0  0  0  0  0  0
    1.2392   -5.7793   44.5610 C   0  0  0  0  0  0  0  0  0  0  0  0
   10.4934   -3.0755   46.3117 N   0  0  0  0  0  0  0  0  0  0  0  0
   10.3750   -4.1130   45.4302 C   0  0  0  0  0  0  0  0  0  0  0  0
   11.8947   -2.7998   46.7984 C   0  0  0  0  0  0  0  0  0  0  0  0
   12.8362   -2.7998   45.7275 C   0  0  1  0  0  0  0  0  0  0  0  0
   11.7375   -4.7913   45.1817 C   0  0  0  0  0  0  0  0  0  0  0  0
   14.0236   -2.1316   45.9685 C   0  0  0  0  0  0  0  0  0  0  0  0
   14.3430   -0.9723   45.2884 C   0  0  0  0  0  0  0  0  0  0  0  0
   12.9826   -4.1332   45.3033 C   0  0  0  0  0  0  0  0  0  0  0  0
   15.5518   -0.2801   45.5526 C   0  0  0  0  0  0  0  0  0  0  0  0
   14.6112   -2.4253   47.1287 C   0  0  0  0  0  0  0  0  0  0  0  0
   14.2677   -3.5704   47.9659 O   0  0  0  0  0  0  0  0  0  0  0  0
   16.1991   -0.6478   46.6811 C   0  0  0  0  0  0  0  0  0  0  0  0
   15.8278   -1.8301   47.5928 C   0  0  0  0  0  0  0  0  0  0  0  0
  1  2  1  0
  2  3  2  0
  3  4  1  0
  1  5  2  0
  4  5  1  0
  3  6  1  0
  4  7  2  0
  6  8  1  0
  8  9  1  0
  7 10  1  0
  9 11  1  0
  5 12  1  0
  7 13  1  0
  8 13  2  0
 10 14  1  0
 12 15  1  0
 12 16  2  0
 14 17  1  0
 15 18  1  0
 13 19  1  0
 16 20  1  0
 18 20  2  0
 11 21  1  0
 19 21  2  0
 21 22  1  0
 11 23  2  0
 14 24  2  0
 24 25  1  0
 17 26  1  0
 25 26  2  0
 17 27  1  0
 15 28  1  6
 27 28  1  0
 19 29  1  0
 24 29  1  0
 22 30  1  0
 30 31  2  0
 22 32  2  0
 29 32  1  1
 27 33  1  6
 30 34  1  0
 34 35  1  0
 34 36  1  0
 36 37  1  0
 35 38  1  0
 37 39  1  1
 39 40  2  0
 37 41  1  0
 38 41  1  0
 40 42  1  0
 39 43  1  0
 43 44  1  0
 42 45  2  0
 43 46  2  0
 45 46  1  0
M  END
$$$$
O14757_Pocket2Mol_idx-in-all-generaetd-333
     RDKit          3D

 41 49  0  0  0  0  0  0  0  0999 V2000
    1.5482   -0.3111   41.9233 C   0  0  0  0  0  0  0  0  0  0  0  0
    2.7284    0.2018   42.1525 N   0  0  0  0  0  0  0  0  0  0  0  0
    3.7893   -0.3016   42.7005 C   0  0  0  0  0  0  0  0  0  0  0  0
    3.3781   -1.7350   43.0000 C   0  0  0  0  0  0  0  0  0  0  0  0
    2.0339   -1.9619   42.6217 C   0  0  0  0  0  0  0  0  0  0  0  0
    5.0090    0.1219   42.9340 N   0  0  0  0  0  0  0  0  0  0  0  0
    4.2895   -2.4979   43.6707 C   0  0  0  0  0  0  0  0  0  0  0  0
    5.8391   -0.6675   43.6343 C   0  0  0  0  0  0  0  0  0  0  0  0
    6.9849   -0.2377   44.0028 N   0  0  0  0  0  0  0  0  0  0  0  0
    4.0426   -3.8794   44.0832 C   0  0  0  0  0  0  0  0  0  0  0  0
    7.6796   -0.8734   44.9326 C   0  0  0  0  0  0  0  0  0  0  0  0
    1.1064   -2.9576   42.4211 C   0  0  0  0  0  0  0  0  0  0  0  0
    5.5298   -1.9496   44.0315 C   0  0  0  0  0  0  0  0  0  0  0  0
    3.8954   -4.1817   45.4718 C   0  0  0  0  0  0  0  0  0  0  0  0
    0.6765   -3.5480   43.4006 C   0  0  1  0  0  0  0  0  0  0  0  0
    0.5804   -3.2191   41.1635 C   0  0  0  0  0  0  0  0  0  0  0  0
    2.8083   -4.8227   45.9203 N   0  0  0  0  0  0  0  0  0  0  0  0
   -0.1574   -4.5754   42.9329 N   0  0  0  0  0  0  0  0  0  0  0  0
    6.5271   -2.5531   44.9677 C   0  0  0  0  0  0  0  0  0  0  0  0
   -0.2272   -4.3703   41.5137 C   0  0  0  0  0  0  0  0  0  0  0  0
    7.5095   -2.0029   45.3993 C   0  0  0  0  0  0  0  0  0  0  0  0
    8.2550   -2.6982   46.3988 C   0  0  0  0  0  0  0  0  0  0  0  0
    8.8975   -0.3029   45.3267 O   0  0  0  0  0  0  0  0  0  0  0  0
    4.8299   -4.4637   46.4212 C   0  0  0  0  0  0  0  0  0  0  0  0
    4.2707   -4.9248   47.6295 N   0  0  0  0  0  0  0  0  0  0  0  0
    3.2045   -5.2092   47.1521 C   0  0  0  0  0  0  0  0  0  0  0  0
    1.4482   -4.6186   45.4134 C   0  0  1  0  0  0  0  0  0  0  0  0
    1.2398   -3.5043   44.6236 O   0  0  0  0  0  0  0  0  0  0  0  0
    6.3317   -3.9297   46.0870 C   0  0  2  0  0  0  0  0  0  0  0  0
    9.5296   -2.5449   46.9776 C   0  0  0  0  0  0  0  0  0  0  0  0
    9.7921   -1.7530   47.9018 O   0  0  0  0  0  0  0  0  0  0  0  0
    7.3972   -3.8130   46.7939 C   0  0  0  0  0  0  0  0  0  0  0  0
    1.2392   -5.7793   44.5610 C   0  0  0  0  0  0  0  0  0  0  0  0
   10.4934   -3.0755   46.3117 N   0  0  0  0  0  0  0  0  0  0  0  0
   10.3750   -4.1130   45.4302 C   0  0  0  0  0  0  0  0  0  0  0  0
   11.8947   -2.7998   46.7984 C   0  0  0  0  0  0  0  0  0  0  0  0
   12.5725   -3.7950   47.1748 C   0  0  0  0  0  0  0  0  0  0  0  0
   12.4263   -1.5296   46.5097 C   0  0  0  0  0  0  0  0  0  0  0  0
   13.9907   -3.6147   47.5346 C   0  0  0  0  0  0  0  0  0  0  0  0
   13.7342   -1.2910   46.6682 C   0  0  0  0  0  0  0  0  0  0  0  0
   14.5235   -2.3067   47.2363 C   0  0  0  0  0  0  0  0  0  0  0  0
  1  2  1  0
  2  3  2  0
  3  4  1  0
  1  5  2  0
  4  5  1  0
  3  6  1  0
  4  7  2  0
  6  8  1  0
  8  9  1  0
  7 10  1  0
  9 11  1  0
  5 12  1  0
  7 13  1  0
  8 13  2  0
 10 14  1  0
 12 15  1  0
 12 16  2  0
 14 17  1  0
 15 18  1  0
 13 19  1  0
 16 20  1  0
 18 20  2  0
 11 21  1  0
 19 21  2  0
 21 22  1  0
 11 23  2  0
 14 24  2  0
 24 25  1  0
 17 26  1  0
 25 26  2  0
 17 27  1  0
 15 28  1  6
 27 28  1  0
 19 29  1  0
 24 29  1  0
 22 30  1  0
 30 31  2  0
 22 32  2  0
 29 32  1  1
 27 33  1  6
 30 34  1  0
 34 35  1  0
 34 36  1  0
 36 37  2  0
 36 38  1  0
 37 39  1  0
 38 40  2  0
 39 41  2  0
 40 41  1  0
M  END
$$$$
O14757_Pocket2Mol_idx-in-all-generaetd-334
     RDKit          3D

 47 54  0  0  0  0  0  0  0  0999 V2000
    5.3420    0.2589   42.8836 O   0  0  0  0  0  0  0  0  0  0  0  0
    5.1627   -0.7554   43.4753 C   0  0  0  0  0  0  0  0  0  0  0  0
    4.0509   -1.4657   43.4177 N   0  0  0  0  0  0  0  0  0  0  0  0
    5.9969   -1.2317   44.6840 C   0  0  0  0  0  0  0  0  0  0  0  0
    2.9618   -1.1021   42.5918 C   0  0  1  0  0  0  0  0  0  0  0  0
    7.3392   -0.8596   44.8412 C   0  0  0  0  0  0  0  0  0  0  0  0
    1.9754   -2.0820   42.2741 C   0  0  0  0  0  0  0  0  0  0  0  0
    5.5910   -2.4282   45.3439 C   0  0  0  0  0  0  0  0  0  0  0  0
    6.5874   -2.9636   46.1581 C   0  0  0  0  0  0  0  0  0  0  0  0
    4.2763   -3.0680   45.0493 N   0  0  0  0  0  0  0  0  0  0  0  0
    3.6188   -2.5886   44.2024 C   0  0  0  0  0  0  0  0  0  0  0  0
    8.1921   -1.4071   45.7505 C   0  0  0  0  0  0  0  0  0  0  0  0
    1.0154   -1.8839   41.2980 C   0  0  0  0  0  0  0  0  0  0  0  0
    2.5720   -3.3564   43.9063 C   0  0  0  0  0  0  0  0  0  0  0  0
    0.2502   -2.8976   41.0751 C   0  0  0  0  0  0  0  0  0  0  0  0
    6.1761   -4.1775   47.0209 C   0  0  0  0  0  0  0  0  0  0  0  0
    1.7266   -3.1047   43.0115 C   0  0  2  0  0  0  0  0  0  0  0  0
    2.3696   -4.5367   44.7536 N   0  0  0  0  0  0  0  0  0  0  0  0
    1.2264   -5.2346   44.4693 C   0  0  0  0  0  0  0  0  0  0  0  0
    0.7187   -3.8955   42.5465 C   0  0  0  0  0  0  0  0  0  0  0  0
    9.4576   -0.8949   46.0327 N   0  0  0  0  0  0  0  0  0  0  0  0
    0.8625   -6.3901   45.2462 C   0  0  0  0  0  0  0  0  0  0  0  0
    7.6467   -2.5139   46.4892 C   0  0  0  0  0  0  0  0  0  0  0  0
   10.4908   -1.5336   45.8242 C   0  0  0  0  0  0  0  0  0  0  0  0
    0.3057   -4.9299   43.2909 C   0  0  0  0  0  0  0  0  0  0  0  0
   11.5916   -1.4291   46.7436 C   0  0  0  0  0  0  0  0  0  0  0  0
   10.5566   -2.3672   44.8649 O   0  0  0  0  0  0  0  0  0  0  0  0
   12.8421   -1.9355   46.2823 C   0  0  0  0  0  0  0  0  0  0  0  0
   13.4833   -2.8582   46.9841 C   0  0  0  0  0  0  0  0  0  0  0  0
   11.4002   -1.1447   48.0540 C   0  0  0  0  0  0  0  0  0  0  0  0
   10.2867   -0.4569   48.4999 O   0  0  0  0  0  0  0  0  0  0  0  0
   12.3327   -1.4798   48.9564 C   0  0  1  0  0  0  0  0  0  0  0  0
   14.7901   -3.3162   46.6439 C   0  0  0  0  0  0  0  0  0  0  0  0
   12.1651   -1.3050   50.3239 O   0  0  0  0  0  0  0  0  0  0  0  0
   15.6765   -2.5740   46.0979 C   0  0  0  0  0  0  0  0  0  0  0  0
    2.4608    0.2106   42.8512 C   0  0  0  0  0  0  0  0  0  0  0  0
   15.5213   -1.2590   45.7606 C   0  0  0  0  0  0  0  0  0  0  0  0
   14.5349   -0.8899   44.8574 C   0  0  0  0  0  0  0  0  0  0  0  0
   12.9775   -3.3460   48.2127 C   0  0  0  0  0  0  0  0  0  0  0  0
   14.7129   -0.1943   43.8652 C   0  0  0  0  0  0  0  0  0  0  0  0
   13.1163   -1.3789   45.0490 O   0  0  0  0  0  0  0  0  0  0  0  0
   12.7443   -2.7596   49.2688 C   0  0  0  0  0  0  0  0  0  0  0  0
   15.8145    0.5028   43.5830 C   0  0  0  0  0  0  0  0  0  0  0  0
   15.9344    1.4629   42.4540 C   0  0  0  0  0  0  0  0  0  0  0  0
   16.8604   -0.8099   45.1972 C   0  0  0  0  0  0  0  0  0  0  0  0
   18.0785   -1.0444   45.9752 O   0  0  0  0  0  0  0  0  0  0  0  0
   17.0153    0.2752   44.2769 C   0  0  0  0  0  0  0  0  0  0  0  0
  1  2  2  0
  2  3  1  0
  2  4  1  0
  3  5  1  0
  4  6  2  0
  5  7  1  0
  4  8  1  0
  8  9  2  0
  8 10  1  0
  3 11  1  0
 10 11  2  0
  6 12  1  0
  7 13  2  0
 11 14  1  0
 13 15  1  0
  9 16  1  0
 17  7  1  6
 14 17  1  0
 14 18  2  0
 18 19  1  0
 15 20  2  0
 17 20  1  0
 12 21  1  0
 19 22  1  0
  9 23  1  0
 12 23  2  0
 21 24  1  0
 19 25  2  0
 20 25  1  0
 24 26  1  0
 24 27  2  0
 26 28  1  0
 28 29  2  0
 26 30  2  0
 30 31  1  0
 30 32  1  0
 29 33  1  0
 32 34  1  1
 33 35  2  0
  5 36  1  1
 35 37  1  0
 37 38  2  0
 29 39  1  0
 38 40  1  0
 28 41  1  0
 38 41  1  0
 32 42  1  0
 39 42  1  0
 40 43  2  0
 43 44  1  0
 37 45  1  0
 45 46  1  0
 43 47  1  0
 45 47  2  0
M  END
$$$$
O14757_Pocket2Mol_idx-in-all-generaetd-335
     RDKit          3D

 36 41  0  0  0  0  0  0  0  0999 V2000
    1.5482   -0.3111   41.9233 C   0  0  0  0  0  0  0  0  0  0  0  0
    2.7284    0.2018   42.1525 N   0  0  0  0  0  0  0  0  0  0  0  0
    3.7893   -0.3016   42.7005 C   0  0  0  0  0  0  0  0  0  0  0  0
    3.3781   -1.7350   43.0000 C   0  0  0  0  0  0  0  0  0  0  0  0
    2.0339   -1.9619   42.6217 C   0  0  0  0  0  0  0  0  0  0  0  0
    4.1166   -2.4997   43.8458 C   0  0  0  0  0  0  0  0  0  0  0  0
    1.1731   -3.0051   42.5773 C   0  0  0  0  0  0  0  0  0  0  0  0
    0.4701   -3.2344   41.4901 C   0  0  0  0  0  0  0  0  0  0  0  0
    5.3799   -1.7814   44.2691 C   0  0  0  0  0  0  0  0  0  0  0  0
    5.0159   -0.0180   43.1201 N   0  0  0  0  0  0  0  0  0  0  0  0
    5.7693   -0.6937   43.8418 C   0  0  0  0  0  0  0  0  0  0  0  0
    0.8078   -3.6166   43.6782 C   0  0  0  0  0  0  0  0  0  0  0  0
    0.0663   -4.7011   43.7415 N   0  0  0  0  0  0  0  0  0  0  0  0
    6.2223   -2.6843   45.1565 C   0  0  0  0  0  0  0  0  0  0  0  0
    6.9599   -0.2351   44.2608 N   0  0  0  0  0  0  0  0  0  0  0  0
    5.9065   -3.9037   45.7499 N   0  0  0  0  0  0  0  0  0  0  0  0
   -0.5459   -5.1185   42.5870 C   0  0  0  0  0  0  0  0  0  0  0  0
    5.7480   -4.0340   46.9810 C   0  0  0  0  0  0  0  0  0  0  0  0
    7.4448   -1.8511   45.4198 C   0  0  0  0  0  0  0  0  0  0  0  0
    7.7572   -0.7827   45.0128 C   0  0  0  0  0  0  0  0  0  0  0  0
    8.4076   -2.7217   46.4541 C   0  0  0  0  0  0  0  0  0  0  0  0
    9.3167   -2.0988   47.1049 N   0  0  0  0  0  0  0  0  0  0  0  0
   -0.4719   -4.3893   41.5406 C   0  0  0  0  0  0  0  0  0  0  0  0
    8.3667   -4.0284   46.5743 N   0  0  0  0  0  0  0  0  0  0  0  0
   10.1532   -2.5726   47.9567 C   0  0  0  0  0  0  0  0  0  0  0  0
   11.0726   -1.7892   48.6998 C   0  0  0  0  0  0  0  0  0  0  0  0
   10.4886   -0.9372   49.4584 C   0  0  0  0  0  0  0  0  0  0  0  0
    8.9772   -4.5617   47.6013 C   0  0  0  0  0  0  0  0  0  0  0  0
    9.9765   -3.9922   48.2636 C   0  0  0  0  0  0  0  0  0  0  0  0
   11.3393   -0.1462   50.3539 C   0  0  0  0  0  0  0  0  0  0  0  0
   12.4892   -1.8956   48.4941 C   0  0  0  0  0  0  0  0  0  0  0  0
   12.8930   -0.3809   50.0834 C   0  0  0  0  0  0  0  0  0  0  0  0
   12.9994   -2.9244   47.4139 C   0  0  0  0  0  0  0  0  0  0  0  0
   13.2804   -1.1960   49.2234 C   0  0  0  0  0  0  0  0  0  0  0  0
   13.2158   -2.3419   46.2078 C   0  0  0  0  0  0  0  0  0  0  0  0
   12.1688   -2.0557   45.4064 C   0  0  0  0  0  0  0  0  0  0  0  0
  1  2  1  0
  2  3  2  0
  3  4  1  0
  1  5  2  0
  4  5  1  0
  4  6  2  0
  5  7  1  0
  7  8  2  0
  6  9  1  0
  3 10  1  0
  9 11  2  0
 10 11  1  0
  7 12  1  0
 12 13  2  0
  9 14  1  0
 11 15  1  0
 14 16  1  0
 13 17  1  0
 16 18  1  0
 14 19  2  0
 15 20  2  0
 19 20  1  0
 19 21  1  0
 21 22  2  0
  8 23  1  0
 17 23  2  0
 21 24  1  0
 22 25  1  0
 25 26  1  0
 26 27  2  0
 24 28  2  0
 25 29  2  0
 28 29  1  0
 27 30  1  0
 26 31  1  0
 30 32  2  0
 31 33  1  0
 31 34  2  0
 32 34  1  0
 33 35  1  0
 35 36  1  0
M  END
$$$$
O14757_Pocket2Mol_idx-in-all-generaetd-336
     RDKit          3D

 43 51  0  0  0  0  0  0  0  0999 V2000
    1.5482   -0.3111   41.9233 C   0  0  0  0  0  0  0  0  0  0  0  0
    2.7284    0.2018   42.1525 N   0  0  0  0  0  0  0  0  0  0  0  0
    3.7893   -0.3016   42.7005 C   0  0  0  0  0  0  0  0  0  0  0  0
    3.3781   -1.7350   43.0000 C   0  0  0  0  0  0  0  0  0  0  0  0
    2.0339   -1.9619   42.6217 C   0  0  0  0  0  0  0  0  0  0  0  0
    5.0090    0.1219   42.9340 N   0  0  0  0  0  0  0  0  0  0  0  0
    4.2895   -2.4979   43.6707 C   0  0  0  0  0  0  0  0  0  0  0  0
    5.8391   -0.6675   43.6343 C   0  0  0  0  0  0  0  0  0  0  0  0
    6.9849   -0.2377   44.0028 N   0  0  0  0  0  0  0  0  0  0  0  0
    4.0426   -3.8794   44.0832 C   0  0  0  0  0  0  0  0  0  0  0  0
    7.6796   -0.8734   44.9326 C   0  0  0  0  0  0  0  0  0  0  0  0
    1.1064   -2.9576   42.4211 C   0  0  0  0  0  0  0  0  0  0  0  0
    5.5298   -1.9496   44.0315 C   0  0  0  0  0  0  0  0  0  0  0  0
    3.8954   -4.1817   45.4718 C   0  0  0  0  0  0  0  0  0  0  0  0
    0.6765   -3.5480   43.4006 C   0  0  1  0  0  0  0  0  0  0  0  0
    0.5804   -3.2191   41.1635 C   0  0  0  0  0  0  0  0  0  0  0  0
    2.8083   -4.8227   45.9203 N   0  0  0  0  0  0  0  0  0  0  0  0
   -0.1574   -4.5754   42.9329 N   0  0  0  0  0  0  0  0  0  0  0  0
    6.5271   -2.5531   44.9677 C   0  0  0  0  0  0  0  0  0  0  0  0
   -0.2272   -4.3703   41.5137 C   0  0  0  0  0  0  0  0  0  0  0  0
    7.5095   -2.0029   45.3993 C   0  0  0  0  0  0  0  0  0  0  0  0
    8.2550   -2.6982   46.3988 C   0  0  0  0  0  0  0  0  0  0  0  0
    8.8975   -0.3029   45.3267 O   0  0  0  0  0  0  0  0  0  0  0  0
    4.8299   -4.4637   46.4212 C   0  0  0  0  0  0  0  0  0  0  0  0
    4.2707   -4.9248   47.6295 N   0  0  0  0  0  0  0  0  0  0  0  0
    3.2045   -5.2092   47.1521 C   0  0  0  0  0  0  0  0  0  0  0  0
    1.4482   -4.6186   45.4134 C   0  0  1  0  0  0  0  0  0  0  0  0
    1.2398   -3.5043   44.6236 O   0  0  0  0  0  0  0  0  0  0  0  0
    6.3317   -3.9297   46.0870 C   0  0  2  0  0  0  0  0  0  0  0  0
    9.5296   -2.5449   46.9776 C   0  0  0  0  0  0  0  0  0  0  0  0
    9.7921   -1.7530   47.9018 O   0  0  0  0  0  0  0  0  0  0  0  0
    7.3972   -3.8130   46.7939 C   0  0  0  0  0  0  0  0  0  0  0  0
    1.2392   -5.7793   44.5610 C   0  0  0  0  0  0  0  0  0  0  0  0
   10.4934   -3.0755   46.3117 N   0  0  0  0  0  0  0  0  0  0  0  0
   10.3750   -4.1130   45.4302 C   0  0  0  0  0  0  0  0  0  0  0  0
   11.8947   -2.7998   46.7984 C   0  0  0  0  0  0  0  0  0  0  0  0
   12.5725   -3.7950   47.1748 C   0  0  0  0  0  0  0  0  0  0  0  0
   12.4263   -1.5296   46.5097 C   0  0  0  0  0  0  0  0  0  0  0  0
   13.9907   -3.6147   47.5346 C   0  0  0  0  0  0  0  0  0  0  0  0
   13.7686   -1.3248   46.7623 C   0  0  0  0  0  0  0  0  0  0  0  0
   14.3607   -0.0220   46.5071 O   0  0  0  0  0  0  0  0  0  0  0  0
   13.8219    0.7335   45.6592 C   0  0  0  0  0  0  0  0  0  0  0  0
   14.5417   -2.3361   47.3007 C   0  0  0  0  0  0  0  0  0  0  0  0
  1  2  1  0
  2  3  2  0
  3  4  1  0
  1  5  2  0
  4  5  1  0
  3  6  1  0
  4  7  2  0
  6  8  1  0
  8  9  1  0
  7 10  1  0
  9 11  1  0
  5 12  1  0
  7 13  1  0
  8 13  2  0
 10 14  1  0
 12 15  1  0
 12 16  2  0
 14 17  1  0
 15 18  1  0
 13 19  1  0
 16 20  1  0
 18 20  2  0
 11 21  1  0
 19 21  2  0
 21 22  1  0
 11 23  2  0
 14 24  2  0
 24 25  1  0
 17 26  1  0
 25 26  2  0
 17 27  1  0
 15 28  1  6
 27 28  1  0
 19 29  1  0
 24 29  1  0
 22 30  1  0
 30 31  2  0
 22 32  2  0
 29 32  1  1
 27 33  1  6
 30 34  1  0
 34 35  1  0
 34 36  1  0
 36 37  2  0
 36 38  1  0
 37 39  1  0
 38 40  2  0
 40 41  1  0
 41 42  1  0
 39 43  2  0
 40 43  1  0
M  END
$$$$
O14757_Pocket2Mol_idx-in-all-generaetd-337
     RDKit          3D

 27 29  0  0  0  0  0  0  0  0999 V2000
    3.7044    0.1389   42.5158 N   0  0  0  0  0  0  0  0  0  0  0  0
    3.0206   -1.0018   42.4929 C   0  0  0  0  0  0  0  0  0  0  0  0
    3.4791   -2.0817   43.2077 C   0  0  0  0  0  0  0  0  0  0  0  0
    4.8540    0.3862   43.0582 N   0  0  0  0  0  0  0  0  0  0  0  0
    5.1377   -0.9552   43.7144 C   0  0  0  0  0  0  0  0  0  0  0  0
    1.5846   -1.0753   41.7644 C   0  0  0  0  0  0  0  0  0  0  0  0
    4.6026   -2.0358   43.8129 C   0  0  0  0  0  0  0  0  0  0  0  0
    5.1584   -3.1511   44.6069 C   0  0  0  0  0  0  0  0  0  0  0  0
    6.6094   -0.7911   44.3696 N   0  0  0  0  0  0  0  0  0  0  0  0
    4.4744   -4.3270   44.8472 C   0  0  0  0  0  0  0  0  0  0  0  0
    6.9275   -1.8713   45.2437 C   0  0  0  0  0  0  0  0  0  0  0  0
    8.2702   -1.7750   45.8768 C   0  0  0  0  0  0  0  0  0  0  0  0
    0.9365   -0.0867   41.7346 O   0  0  0  0  0  0  0  0  0  0  0  0
    6.2322   -3.0484   45.3118 C   0  0  0  0  0  0  0  0  0  0  0  0
    6.7747   -4.0433   46.1202 N   0  0  0  0  0  0  0  0  0  0  0  0
    1.2161   -2.2739   41.2518 N   0  0  0  0  0  0  0  0  0  0  0  0
    9.0373   -0.5649   45.9132 O   0  0  0  0  0  0  0  0  0  0  0  0
    3.8907   -5.0906   43.9511 O   0  0  0  0  0  0  0  0  0  0  0  0
    4.3454   -4.8388   46.1621 N   0  0  0  0  0  0  0  0  0  0  0  0
    3.4531   -5.8952   46.4159 C   0  0  0  0  0  0  0  0  0  0  0  0
    8.6904   -2.8983   46.6073 N   0  0  0  0  0  0  0  0  0  0  0  0
    7.9257   -3.9393   46.7384 C   0  0  0  0  0  0  0  0  0  0  0  0
    8.4765   -4.8975   47.5307 O   0  0  0  0  0  0  0  0  0  0  0  0
   10.0073   -2.6575   47.1176 C   0  0  0  0  0  0  0  0  0  0  0  0
   10.1212   -1.8007   48.1941 C   0  0  0  0  0  0  0  0  0  0  0  0
   10.9927   -2.2335   46.0332 C   0  0  0  0  0  0  0  0  0  0  0  0
   10.6265   -4.0268   47.5894 C   0  0  0  0  0  0  0  0  0  0  0  0
  1  2  2  0
  2  3  1  0
  1  4  1  0
  4  5  2  0
  2  6  1  0
  3  7  2  0
  5  7  1  0
  7  8  1  0
  5  9  1  0
  8 10  1  0
  9 11  2  0
 11 12  1  0
  6 13  2  0
  8 14  2  0
 11 14  1  0
 14 15  1  0
  6 16  1  0
 12 17  2  0
 10 18  2  0
 10 19  1  0
 19 20  1  0
 12 21  1  0
 15 22  1  0
 21 22  1  0
 22 23  2  0
 21 24  1  0
 24 25  1  0
 24 26  1  0
 24 27  1  0
M  END
$$$$
O14757_Pocket2Mol_idx-in-all-generaetd-338
     RDKit          3D

 39 46  0  0  0  0  0  0  0  0999 V2000
    4.8037   -0.1366   42.7100 N   0  0  0  0  0  0  0  0  0  0  0  0
    3.6577   -0.7759   42.7186 C   0  0  0  0  0  0  0  0  0  0  0  0
    3.6660   -1.8665   43.4760 C   0  0  0  0  0  0  0  0  0  0  0  0
    2.7271   -2.8718   43.6599 C   0  0  0  0  0  0  0  0  0  0  0  0
    2.4846   -0.2994   42.1254 N   0  0  0  0  0  0  0  0  0  0  0  0
    5.0524   -1.7697   43.9367 C   0  0  0  0  0  0  0  0  0  0  0  0
    1.4917   -2.9000   43.0914 C   0  0  0  0  0  0  0  0  0  0  0  0
    3.1274   -3.9503   44.5163 C   0  0  0  0  0  0  0  0  0  0  0  0
    1.0744   -1.9066   42.1491 C   0  0  2  0  0  0  0  0  0  0  0  0
    5.6624   -0.7003   43.4895 C   0  0  0  0  0  0  0  0  0  0  0  0
    5.5753   -2.5784   45.0324 C   0  0  0  0  0  0  0  0  0  0  0  0
    0.4030   -3.6297   43.4883 N   0  0  0  0  0  0  0  0  0  0  0  0
    1.5052   -0.8077   41.7519 C   0  0  0  0  0  0  0  0  0  0  0  0
   -0.5645   -3.4039   42.5585 N   0  0  0  0  0  0  0  0  0  0  0  0
    2.5059   -5.1012   44.7935 C   0  0  0  0  0  0  0  0  0  0  0  0
    4.4581   -3.8218   45.2947 C   0  0  0  0  0  0  0  0  0  0  0  0
   -0.3089   -2.3979   41.8128 C   0  0  0  0  0  0  0  0  0  0  0  0
    6.6435   -2.6577   45.6991 C   0  0  0  0  0  0  0  0  0  0  0  0
    7.0869   -3.7008   46.4717 C   0  0  0  0  0  0  0  0  0  0  0  0
    7.5912   -1.5296   45.5455 C   0  0  0  0  0  0  0  0  0  0  0  0
    8.7765   -1.4352   46.2248 C   0  0  0  0  0  0  0  0  0  0  0  0
    6.3069   -4.7944   46.6836 O   0  0  0  0  0  0  0  0  0  0  0  0
    4.8984   -4.5252   46.1302 C   0  0  0  0  0  0  0  0  0  0  0  0
    4.2122   -5.9932   46.2216 C   0  0  0  0  0  0  0  0  0  0  0  0
    8.3395   -3.6608   47.2172 C   0  0  0  0  0  0  0  0  0  0  0  0
    4.6690   -6.8778   47.1549 O   0  0  0  0  0  0  0  0  0  0  0  0
    9.1822   -2.5745   47.1243 C   0  0  0  0  0  0  0  0  0  0  0  0
   10.4419   -2.3733   47.8332 C   0  0  0  0  0  0  0  0  0  0  0  0
   10.5277   -1.5655   48.7043 O   0  0  0  0  0  0  0  0  0  0  0  0
    2.9373   -6.0805   45.7037 C   0  0  0  0  0  0  0  0  0  0  0  0
   11.4886   -2.8791   47.1590 O   0  0  0  0  0  0  0  0  0  0  0  0
   12.5752   -2.3359   47.1530 C   0  0  0  0  0  0  0  0  0  0  0  0
   12.9193   -1.9090   45.7253 C   0  0  0  0  0  0  0  0  0  0  0  0
   14.0461   -1.3819   45.4309 C   0  0  0  0  0  0  0  0  0  0  0  0
   13.5349   -2.2724   48.1315 C   0  0  0  0  0  0  0  0  0  0  0  0
   15.1049   -1.3384   46.4413 C   0  0  0  0  0  0  0  0  0  0  0  0
   16.3882   -0.8269   46.0821 O   0  0  0  0  0  0  0  0  0  0  0  0
   14.8556   -1.8017   47.8052 C   0  0  0  0  0  0  0  0  0  0  0  0
   14.4062   -0.9064   44.2011 C   0  0  0  0  0  0  0  0  0  0  0  0
  1  2  2  0
  2  3  1  0
  3  4  2  0
  2  5  1  0
  3  6  1  0
  4  7  1  0
  4  8  1  0
  7  9  1  0
  1 10  1  0
  6 10  1  0
  6 11  2  0
  7 12  2  0
  5 13  2  0
  9 13  1  1
 12 14  1  0
  8 15  2  0
  8 16  1  0
 11 16  1  0
  9 17  1  0
 14 17  2  0
 11 18  1  0
 18 19  2  0
 18 20  1  0
 20 21  2  0
 19 22  1  0
 16 23  2  0
 22 23  1  0
 23 24  1  0
 19 25  1  0
 24 26  1  0
 21 27  1  0
 25 27  2  0
 27 28  1  0
 28 29  2  0
 15 30  1  0
 24 30  2  0
 28 31  1  0
 31 32  1  0
 32 33  2  0
 33 34  1  0
 32 35  1  0
 34 36  2  0
 36 37  1  0
 35 38  2  0
 36 38  1  0
 34 39  1  0
M  END
$$$$
O14757_Pocket2Mol_idx-in-all-generaetd-339
     RDKit          3D

 35 40  0  0  0  0  0  0  0  0999 V2000
    1.5482   -0.3111   41.9233 C   0  0  0  0  0  0  0  0  0  0  0  0
    2.7284    0.2018   42.1525 N   0  0  0  0  0  0  0  0  0  0  0  0
    3.7893   -0.3016   42.7005 C   0  0  0  0  0  0  0  0  0  0  0  0
    3.3781   -1.7350   43.0000 C   0  0  0  0  0  0  0  0  0  0  0  0
    2.0339   -1.9619   42.6217 C   0  0  0  0  0  0  0  0  0  0  0  0
    4.1166   -2.4997   43.8458 C   0  0  0  0  0  0  0  0  0  0  0  0
    1.1731   -3.0051   42.5773 C   0  0  0  0  0  0  0  0  0  0  0  0
    0.4701   -3.2344   41.4901 C   0  0  0  0  0  0  0  0  0  0  0  0
    5.3799   -1.7814   44.2691 C   0  0  0  0  0  0  0  0  0  0  0  0
    5.0159   -0.0180   43.1201 N   0  0  0  0  0  0  0  0  0  0  0  0
    5.7693   -0.6937   43.8418 C   0  0  0  0  0  0  0  0  0  0  0  0
    0.8078   -3.6166   43.6782 C   0  0  0  0  0  0  0  0  0  0  0  0
    0.0663   -4.7011   43.7415 N   0  0  0  0  0  0  0  0  0  0  0  0
    6.2223   -2.6843   45.1565 C   0  0  0  0  0  0  0  0  0  0  0  0
    6.9599   -0.2351   44.2608 N   0  0  0  0  0  0  0  0  0  0  0  0
    5.9065   -3.9037   45.7499 N   0  0  0  0  0  0  0  0  0  0  0  0
   -0.5459   -5.1185   42.5870 C   0  0  0  0  0  0  0  0  0  0  0  0
    5.7480   -4.0340   46.9810 C   0  0  0  0  0  0  0  0  0  0  0  0
    7.4448   -1.8511   45.4198 C   0  0  0  0  0  0  0  0  0  0  0  0
    7.7572   -0.7827   45.0128 C   0  0  0  0  0  0  0  0  0  0  0  0
    8.4076   -2.7217   46.4541 C   0  0  0  0  0  0  0  0  0  0  0  0
    9.3167   -2.0988   47.1049 N   0  0  0  0  0  0  0  0  0  0  0  0
   -0.4719   -4.3893   41.5406 C   0  0  0  0  0  0  0  0  0  0  0  0
    8.3667   -4.0284   46.5743 N   0  0  0  0  0  0  0  0  0  0  0  0
    9.5309   -4.3147   47.3094 C   0  0  0  0  0  0  0  0  0  0  0  0
    5.3113   -3.3789   47.8005 O   0  0  0  0  0  0  0  0  0  0  0  0
    9.9022   -5.6301   47.7684 C   0  0  0  0  0  0  0  0  0  0  0  0
    5.4470   -5.5868   47.2096 C   0  0  0  0  0  0  0  0  0  0  0  0
   11.2254   -5.8679   48.0402 C   0  0  0  0  0  0  0  0  0  0  0  0
    8.9736   -6.6532   47.8548 C   0  0  0  0  0  0  0  0  0  0  0  0
   10.0616   -3.0670   47.6360 C   0  0  0  0  0  0  0  0  0  0  0  0
    9.2755   -7.8884   48.2076 C   0  0  0  0  0  0  0  0  0  0  0  0
   12.3151   -4.8393   47.9221 O   0  0  0  0  0  0  0  0  0  0  0  0
   11.6499   -7.1540   48.4582 C   0  0  0  0  0  0  0  0  0  0  0  0
   10.6717   -8.1444   48.5652 C   0  0  0  0  0  0  0  0  0  0  0  0
  1  2  1  0
  2  3  2  0
  3  4  1  0
  1  5  2  0
  4  5  1  0
  4  6  2  0
  5  7  1  0
  7  8  2  0
  6  9  1  0
  3 10  1  0
  9 11  2  0
 10 11  1  0
  7 12  1  0
 12 13  2  0
  9 14  1  0
 11 15  1  0
 14 16  1  0
 13 17  1  0
 16 18  1  0
 14 19  2  0
 15 20  2  0
 19 20  1  0
 19 21  1  0
 21 22  2  0
  8 23  1  0
 17 23  2  0
 21 24  1  0
 24 25  1  0
 18 26  2  0
 25 27  1  0
 18 28  1  0
 27 29  2  0
 27 30  1  0
 22 31  1  0
 25 31  2  0
 30 32  2  0
 29 33  1  0
 29 34  1  0
 32 35  1  0
 34 35  2  0
M  END
$$$$
O14757_Pocket2Mol_idx-in-all-generaetd-340
     RDKit          3D

 34 39  0  0  0  0  0  0  0  0999 V2000
    1.5482   -0.3111   41.9233 C   0  0  0  0  0  0  0  0  0  0  0  0
    2.7284    0.2018   42.1525 N   0  0  0  0  0  0  0  0  0  0  0  0
    3.7893   -0.3016   42.7005 C   0  0  0  0  0  0  0  0  0  0  0  0
    3.3781   -1.7350   43.0000 C   0  0  0  0  0  0  0  0  0  0  0  0
    2.0339   -1.9619   42.6217 C   0  0  0  0  0  0  0  0  0  0  0  0
    4.1166   -2.4997   43.8458 C   0  0  0  0  0  0  0  0  0  0  0  0
    1.1731   -3.0051   42.5773 C   0  0  0  0  0  0  0  0  0  0  0  0
    0.4701   -3.2344   41.4901 C   0  0  0  0  0  0  0  0  0  0  0  0
    5.3799   -1.7814   44.2691 C   0  0  0  0  0  0  0  0  0  0  0  0
    5.0159   -0.0180   43.1201 N   0  0  0  0  0  0  0  0  0  0  0  0
    5.7693   -0.6937   43.8418 C   0  0  0  0  0  0  0  0  0  0  0  0
    0.8078   -3.6166   43.6782 C   0  0  0  0  0  0  0  0  0  0  0  0
    0.0663   -4.7011   43.7415 N   0  0  0  0  0  0  0  0  0  0  0  0
    6.2223   -2.6843   45.1565 C   0  0  0  0  0  0  0  0  0  0  0  0
    6.9599   -0.2351   44.2608 N   0  0  0  0  0  0  0  0  0  0  0  0
    5.9065   -3.9037   45.7499 N   0  0  0  0  0  0  0  0  0  0  0  0
   -0.5459   -5.1185   42.5870 C   0  0  0  0  0  0  0  0  0  0  0  0
    5.7480   -4.0340   46.9810 C   0  0  0  0  0  0  0  0  0  0  0  0
    7.4448   -1.8511   45.4198 C   0  0  0  0  0  0  0  0  0  0  0  0
    7.7572   -0.7827   45.0128 C   0  0  0  0  0  0  0  0  0  0  0  0
    8.4076   -2.7217   46.4541 C   0  0  0  0  0  0  0  0  0  0  0  0
    9.3167   -2.0988   47.1049 N   0  0  0  0  0  0  0  0  0  0  0  0
   -0.4719   -4.3893   41.5406 C   0  0  0  0  0  0  0  0  0  0  0  0
    5.0887   -3.4849   47.7878 O   0  0  0  0  0  0  0  0  0  0  0  0
    6.6862   -5.0913   47.4809 C   0  0  0  0  0  0  0  0  0  0  0  0
    8.0012   -4.4642   47.9733 C   0  0  0  0  0  0  0  0  0  0  0  0
    8.3252   -3.8858   46.6511 O   0  0  0  0  0  0  0  0  0  0  0  0
   10.2305   -2.8903   47.7858 O   0  0  0  0  0  0  0  0  0  0  0  0
   11.5307   -2.6759   47.2852 C   0  0  1  0  0  0  0  0  0  0  0  0
   11.7232   -3.0362   46.0071 C   0  0  0  0  0  0  0  0  0  0  0  0
   12.0298   -1.4129   47.7923 C   0  0  0  0  0  0  0  0  0  0  0  0
   12.2538   -0.5681   46.7440 C   0  0  2  0  0  0  0  0  0  0  0  0
   12.3637   -1.6513   45.5674 C   0  0  0  0  0  0  0  0  0  0  0  0
   13.4587    0.1002   46.7932 O   0  0  0  0  0  0  0  0  0  0  0  0
  1  2  1  0
  2  3  2  0
  3  4  1  0
  1  5  2  0
  4  5  1  0
  4  6  2  0
  5  7  1  0
  7  8  2  0
  6  9  1  0
  3 10  1  0
  9 11  2  0
 10 11  1  0
  7 12  1  0
 12 13  2  0
  9 14  1  0
 11 15  1  0
 14 16  1  0
 13 17  1  0
 16 18  1  0
 14 19  2  0
 15 20  2  0
 19 20  1  0
 19 21  1  0
 21 22  2  3
  8 23  1  0
 17 23  2  0
 18 24  2  0
 18 25  1  0
 25 26  1  0
 21 27  1  0
 26 27  1  0
 22 28  1  0
 29 28  1  6
 29 30  1  0
 29 31  1  0
 31 32  1  0
 30 33  1  0
 32 33  1  0
 32 34  1  1
M  END
$$$$
O14757_Pocket2Mol_idx-in-all-generaetd-341
     RDKit          3D

 36 42  0  0  0  0  0  0  0  0999 V2000
    1.5482   -0.3111   41.9233 C   0  0  0  0  0  0  0  0  0  0  0  0
    2.7284    0.2018   42.1525 N   0  0  0  0  0  0  0  0  0  0  0  0
    3.7893   -0.3016   42.7005 C   0  0  0  0  0  0  0  0  0  0  0  0
    3.3781   -1.7350   43.0000 C   0  0  0  0  0  0  0  0  0  0  0  0
    2.0339   -1.9619   42.6217 C   0  0  0  0  0  0  0  0  0  0  0  0
    4.1166   -2.4997   43.8458 C   0  0  0  0  0  0  0  0  0  0  0  0
    1.1731   -3.0051   42.5773 C   0  0  0  0  0  0  0  0  0  0  0  0
    0.4701   -3.2344   41.4901 C   0  0  0  0  0  0  0  0  0  0  0  0
    5.3799   -1.7814   44.2691 C   0  0  0  0  0  0  0  0  0  0  0  0
    5.0159   -0.0180   43.1201 N   0  0  0  0  0  0  0  0  0  0  0  0
    5.7693   -0.6937   43.8418 C   0  0  0  0  0  0  0  0  0  0  0  0
    0.8078   -3.6166   43.6782 C   0  0  0  0  0  0  0  0  0  0  0  0
    0.0663   -4.7011   43.7415 N   0  0  0  0  0  0  0  0  0  0  0  0
    6.2223   -2.6843   45.1565 C   0  0  0  0  0  0  0  0  0  0  0  0
    6.9599   -0.2351   44.2608 N   0  0  0  0  0  0  0  0  0  0  0  0
    5.9065   -3.9037   45.7499 N   0  0  0  0  0  0  0  0  0  0  0  0
   -0.5459   -5.1185   42.5870 C   0  0  0  0  0  0  0  0  0  0  0  0
    5.7480   -4.0340   46.9810 C   0  0  0  0  0  0  0  0  0  0  0  0
    7.4448   -1.8511   45.4198 C   0  0  0  0  0  0  0  0  0  0  0  0
    7.7572   -0.7827   45.0128 C   0  0  0  0  0  0  0  0  0  0  0  0
    8.4076   -2.7217   46.4541 C   0  0  0  0  0  0  0  0  0  0  0  0
    9.3167   -2.0988   47.1049 N   0  0  0  0  0  0  0  0  0  0  0  0
   -0.4719   -4.3893   41.5406 C   0  0  0  0  0  0  0  0  0  0  0  0
    8.3667   -4.0284   46.5743 N   0  0  0  0  0  0  0  0  0  0  0  0
    9.5309   -4.3147   47.3094 C   0  0  0  0  0  0  0  0  0  0  0  0
    5.3113   -3.3789   47.8005 O   0  0  0  0  0  0  0  0  0  0  0  0
    9.9022   -5.6301   47.7684 C   0  0  0  0  0  0  0  0  0  0  0  0
    5.4470   -5.5868   47.2096 C   0  0  0  0  0  0  0  0  0  0  0  0
   11.2254   -5.8679   48.0402 C   0  0  0  0  0  0  0  0  0  0  0  0
    8.9736   -6.6532   47.8548 C   0  0  0  0  0  0  0  0  0  0  0  0
   10.0616   -3.0670   47.6360 C   0  0  0  0  0  0  0  0  0  0  0  0
    7.5566   -6.3564   47.5477 N   0  0  0  0  0  0  0  0  0  0  0  0
    6.4157   -6.1721   48.0913 C   0  0  0  0  0  0  0  0  0  0  0  0
    9.3646   -7.8782   48.1671 C   0  0  0  0  0  0  0  0  0  0  0  0
   11.6332   -7.1418   48.4193 C   0  0  0  0  0  0  0  0  0  0  0  0
   10.7008   -8.1511   48.5500 C   0  0  0  0  0  0  0  0  0  0  0  0
  1  2  1  0
  2  3  2  0
  3  4  1  0
  1  5  2  0
  4  5  1  0
  4  6  2  0
  5  7  1  0
  7  8  2  0
  6  9  1  0
  3 10  1  0
  9 11  2  0
 10 11  1  0
  7 12  1  0
 12 13  2  0
  9 14  1  0
 11 15  1  0
 14 16  1  0
 13 17  1  0
 16 18  1  0
 14 19  2  0
 15 20  2  0
 19 20  1  0
 19 21  1  0
 21 22  2  0
  8 23  1  0
 17 23  2  0
 21 24  1  0
 24 25  1  0
 18 26  2  0
 25 27  1  0
 18 28  1  0
 27 29  2  0
 27 30  1  0
 22 31  1  0
 25 31  2  0
 30 32  1  0
 28 33  1  0
 32 33  1  0
 30 34  2  0
 29 35  1  0
 34 36  1  0
 35 36  2  0
M  END
$$$$
O14757_Pocket2Mol_idx-in-all-generaetd-342
     RDKit          3D

 31 38  0  0  0  0  0  0  0  0999 V2000
    1.5482   -0.3111   41.9233 C   0  0  0  0  0  0  0  0  0  0  0  0
    2.7284    0.2018   42.1525 N   0  0  0  0  0  0  0  0  0  0  0  0
    3.7893   -0.3016   42.7005 C   0  0  0  0  0  0  0  0  0  0  0  0
    3.3781   -1.7350   43.0000 C   0  0  0  0  0  0  0  0  0  0  0  0
    2.0339   -1.9619   42.6217 C   0  0  0  0  0  0  0  0  0  0  0  0
    5.0090    0.1219   42.9340 N   0  0  0  0  0  0  0  0  0  0  0  0
    4.2895   -2.4979   43.6707 C   0  0  0  0  0  0  0  0  0  0  0  0
    5.8391   -0.6675   43.6343 C   0  0  0  0  0  0  0  0  0  0  0  0
    6.9849   -0.2377   44.0028 N   0  0  0  0  0  0  0  0  0  0  0  0
    4.0426   -3.8794   44.0832 C   0  0  0  0  0  0  0  0  0  0  0  0
    7.6796   -0.8734   44.9326 C   0  0  0  0  0  0  0  0  0  0  0  0
    1.1064   -2.9576   42.4211 C   0  0  0  0  0  0  0  0  0  0  0  0
    5.5298   -1.9496   44.0315 C   0  0  0  0  0  0  0  0  0  0  0  0
    3.8954   -4.1817   45.4718 C   0  0  0  0  0  0  0  0  0  0  0  0
    0.6765   -3.5480   43.4006 C   0  0  1  0  0  0  0  0  0  0  0  0
    0.5804   -3.2191   41.1635 C   0  0  0  0  0  0  0  0  0  0  0  0
    2.8083   -4.8227   45.9203 N   0  0  0  0  0  0  0  0  0  0  0  0
   -0.1574   -4.5754   42.9329 N   0  0  0  0  0  0  0  0  0  0  0  0
    6.5271   -2.5531   44.9677 C   0  0  0  0  0  0  0  0  0  0  0  0
   -0.2272   -4.3703   41.5137 C   0  0  0  0  0  0  0  0  0  0  0  0
    7.5095   -2.0029   45.3993 C   0  0  0  0  0  0  0  0  0  0  0  0
    8.2550   -2.6982   46.3988 C   0  0  0  0  0  0  0  0  0  0  0  0
    8.8975   -0.3029   45.3267 O   0  0  0  0  0  0  0  0  0  0  0  0
    4.8299   -4.4637   46.4212 C   0  0  0  0  0  0  0  0  0  0  0  0
    4.2707   -4.9248   47.6295 N   0  0  0  0  0  0  0  0  0  0  0  0
    3.2045   -5.2092   47.1521 C   0  0  0  0  0  0  0  0  0  0  0  0
    1.4482   -4.6186   45.4134 C   0  0  1  0  0  0  0  0  0  0  0  0
    1.2398   -3.5043   44.6236 O   0  0  0  0  0  0  0  0  0  0  0  0
    6.2225   -3.7639   46.1877 C   0  0  0  0  0  0  0  0  0  0  0  0
    7.3849   -3.8396   46.7845 C   0  0  0  0  0  0  0  0  0  0  0  0
    1.2547   -5.7941   44.5612 C   0  0  0  0  0  0  0  0  0  0  0  0
  1  2  1  0
  2  3  2  0
  3  4  1  0
  1  5  2  0
  4  5  1  0
  3  6  1  0
  4  7  2  0
  6  8  1  0
  8  9  1  0
  7 10  1  0
  9 11  1  0
  5 12  1  0
  7 13  1  0
  8 13  2  0
 10 14  1  0
 12 15  1  0
 12 16  2  0
 14 17  1  0
 15 18  1  0
 13 19  1  0
 16 20  1  0
 18 20  2  0
 11 21  1  0
 19 21  2  0
 21 22  1  0
 11 23  2  0
 14 24  2  0
 24 25  1  0
 17 26  1  0
 25 26  2  0
 17 27  1  0
 15 28  1  6
 27 28  1  0
 19 29  1  0
 24 29  1  0
 22 30  1  0
 29 30  2  0
 27 31  1  6
M  END
$$$$
O14757_Pocket2Mol_idx-in-all-generaetd-343
     RDKit          3D

 47 54  0  0  0  0  0  0  0  0999 V2000
    1.5482   -0.3111   41.9233 C   0  0  0  0  0  0  0  0  0  0  0  0
    2.7284    0.2018   42.1525 N   0  0  0  0  0  0  0  0  0  0  0  0
    3.7893   -0.3016   42.7005 C   0  0  0  0  0  0  0  0  0  0  0  0
    3.3781   -1.7350   43.0000 C   0  0  0  0  0  0  0  0  0  0  0  0
    2.0339   -1.9619   42.6217 C   0  0  0  0  0  0  0  0  0  0  0  0
    4.1166   -2.4997   43.8458 C   0  0  0  0  0  0  0  0  0  0  0  0
    1.1731   -3.0051   42.5773 C   0  0  0  0  0  0  0  0  0  0  0  0
    0.4701   -3.2344   41.4901 C   0  0  0  0  0  0  0  0  0  0  0  0
    5.3799   -1.7814   44.2691 C   0  0  0  0  0  0  0  0  0  0  0  0
    5.0159   -0.0180   43.1201 N   0  0  0  0  0  0  0  0  0  0  0  0
    5.7693   -0.6937   43.8418 C   0  0  0  0  0  0  0  0  0  0  0  0
    0.8078   -3.6166   43.6782 C   0  0  0  0  0  0  0  0  0  0  0  0
    0.0663   -4.7011   43.7415 N   0  0  0  0  0  0  0  0  0  0  0  0
    6.2223   -2.6843   45.1565 C   0  0  0  0  0  0  0  0  0  0  0  0
    1.4459   -3.3095   45.0236 O   0  0  0  0  0  0  0  0  0  0  0  0
   -0.5278   -5.1074   42.5506 C   0  0  0  0  0  0  0  0  0  0  0  0
   -1.3099   -6.2193   42.5332 N   0  0  0  0  0  0  0  0  0  0  0  0
   -0.3906   -4.3573   41.3904 C   0  0  0  0  0  0  0  0  0  0  0  0
    7.0535   -0.4845   44.4478 N   0  0  0  0  0  0  0  0  0  0  0  0
    0.6210   -3.8397   46.1835 C   0  0  0  0  0  0  0  0  0  0  0  0
    6.2906   -3.7888   45.8815 C   0  0  0  0  0  0  0  0  0  0  0  0
    7.3965   -1.5466   45.3147 C   0  0  0  0  0  0  0  0  0  0  0  0
    5.1449   -4.4973   46.0473 O   0  0  0  0  0  0  0  0  0  0  0  0
    7.4148   -4.1081   46.6372 C   0  0  0  0  0  0  0  0  0  0  0  0
    8.5011   -3.1747   46.6693 C   0  0  0  0  0  0  0  0  0  0  0  0
    8.4580   -1.9168   46.0438 C   0  0  0  0  0  0  0  0  0  0  0  0
    9.8193   -3.4927   47.5654 C   0  0  1  0  0  0  0  0  0  0  0  0
    4.3482   -4.5667   47.1383 C   0  0  0  0  0  0  0  0  0  0  0  0
   10.8925   -3.4519   46.9633 C   0  0  0  0  0  0  0  0  0  0  0  0
   11.7691   -2.4393   47.2298 N   0  0  0  0  0  0  0  0  0  0  0  0
   11.5679   -1.6048   48.2682 C   0  0  0  0  0  0  0  0  0  0  0  0
   13.2337   -2.7224   46.9899 C   0  0  0  0  0  0  0  0  0  0  0  0
   11.1468   -4.1806   45.9346 O   0  0  0  0  0  0  0  0  0  0  0  0
   14.0674   -3.2434   47.7193 C   0  0  0  0  0  0  0  0  0  0  0  0
   13.7337   -3.8357   48.9955 C   0  0  0  0  0  0  0  0  0  0  0  0
   10.6978   -1.8484   49.2819 O   0  0  0  0  0  0  0  0  0  0  0  0
   15.4145   -3.0897   47.4674 C   0  0  0  0  0  0  0  0  0  0  0  0
    9.6185   -2.3722   48.7838 C   0  0  0  0  0  0  0  0  0  0  0  0
   13.6236   -2.2426   45.6742 C   0  0  0  0  0  0  0  0  0  0  0  0
   16.4002   -3.6862   48.4243 C   0  0  0  0  0  0  0  0  0  0  0  0
   14.5527   -4.4499   49.9458 C   0  0  0  0  0  0  0  0  0  0  0  0
   15.9884   -4.3436   49.5894 C   0  0  0  0  0  0  0  0  0  0  0  0
   12.7017   -1.6366   44.7366 O   0  0  0  0  0  0  0  0  0  0  0  0
   14.9886   -2.1522   45.3864 C   0  0  0  0  0  0  0  0  0  0  0  0
   15.4162   -1.6592   44.0893 O   0  0  0  0  0  0  0  0  0  0  0  0
   15.7004   -0.4569   43.8981 C   0  0  0  0  0  0  0  0  0  0  0  0
   15.8867   -2.6625   46.2578 C   0  0  0  0  0  0  0  0  0  0  0  0
  1  2  1  0
  2  3  2  0
  3  4  1  0
  1  5  2  0
  4  5  1  0
  4  6  2  0
  5  7  1  0
  7  8  2  0
  6  9  1  0
  3 10  1  0
  9 11  1  0
 10 11  1  0
  7 12  1  0
 12 13  2  0
  9 14  2  0
 12 15  1  0
 13 16  1  0
 16 17  1  0
  8 18  1  0
 16 18  2  0
 11 19  2  0
 15 20  1  0
 14 21  1  0
 14 22  1  0
 19 22  1  0
 21 23  1  0
 21 24  2  0
 24 25  1  0
 22 26  2  0
 25 26  2  0
 27 25  1  6
 23 28  1  0
 27 29  1  0
 29 30  1  0
 30 31  1  0
 30 32  1  0
 29 33  2  0
 32 34  1  0
 34 35  2  0
 31 36  1  0
 34 37  1  0
 27 38  1  0
 36 38  1  0
 32 39  2  0
 37 40  2  0
 35 41  1  0
 40 42  1  0
 41 42  2  0
 39 43  1  0
 39 44  1  0
 44 45  1  0
 45 46  1  0
 37 47  1  0
 44 47  2  0
M  END
$$$$
O14757_Pocket2Mol_idx-in-all-generaetd-344
     RDKit          3D

 35 39  0  0  0  0  0  0  0  0999 V2000
    4.5156    0.0550   42.9895 N   0  0  0  0  0  0  0  0  0  0  0  0
    5.0618   -0.8645   43.5295 C   0  0  0  0  0  0  0  0  0  0  0  0
    4.4350   -2.0604   43.7783 C   0  0  0  0  0  0  0  0  0  0  0  0
    4.9987   -3.0994   44.5839 C   0  0  0  0  0  0  0  0  0  0  0  0
    3.2714   -1.8664   43.0632 C   0  0  0  0  0  0  0  0  0  0  0  0
    6.4064   -0.5942   44.3204 N   0  0  0  0  0  0  0  0  0  0  0  0
    4.3422   -4.3256   44.7203 C   0  0  0  0  0  0  0  0  0  0  0  0
    2.1845   -2.6668   42.8270 N   0  0  0  0  0  0  0  0  0  0  0  0
    6.7872   -1.6740   45.1626 C   0  0  0  0  0  0  0  0  0  0  0  0
    3.3364   -0.5682   42.5216 C   0  0  0  0  0  0  0  0  0  0  0  0
    6.0794   -2.8367   45.2418 C   0  0  0  0  0  0  0  0  0  0  0  0
    2.2080   -0.0040   41.8105 N   0  0  0  0  0  0  0  0  0  0  0  0
    3.5122   -4.5717   45.8882 C   0  0  0  0  0  0  0  0  0  0  0  0
    8.0343   -1.3439   45.8176 C   0  0  0  0  0  0  0  0  0  0  0  0
    8.5676   -2.2678   46.6666 C   0  0  0  0  0  0  0  0  0  0  0  0
    1.2034   -0.9715   41.7505 C   0  0  0  0  0  0  0  0  0  0  0  0
    9.7543   -2.0263   47.4257 C   0  0  1  0  0  0  0  0  0  0  0  0
   10.9435   -2.3462   46.8726 C   0  0  0  0  0  0  0  0  0  0  0  0
    2.0759   -4.8825   45.5393 N   0  0  0  0  0  0  0  0  0  0  0  0
    1.2148   -2.2334   42.1576 C   0  0  0  0  0  0  0  0  0  0  0  0
    9.6982   -0.8148   48.0427 O   0  0  0  0  0  0  0  0  0  0  0  0
   11.0881   -3.3882   46.0717 O   0  0  0  0  0  0  0  0  0  0  0  0
    7.6623   -3.4449   46.9706 C   0  0  0  0  0  0  0  0  0  0  0  0
    6.5323   -3.6370   46.2770 C   0  0  0  0  0  0  0  0  0  0  0  0
    0.0607   -3.1280   41.9172 C   0  0  0  0  0  0  0  0  0  0  0  0
   12.3311   -3.5802   45.4279 C   0  0  0  0  0  0  0  0  0  0  0  0
   11.7186   -1.3261   46.7020 C   0  0  0  0  0  0  0  0  0  0  0  0
   12.9544   -1.4993   46.1478 C   0  0  0  0  0  0  0  0  0  0  0  0
   13.3025   -2.6449   45.5125 C   0  0  0  0  0  0  0  0  0  0  0  0
   13.8832   -0.4878   46.1646 O   0  0  0  0  0  0  0  0  0  0  0  0
   -0.3845   -3.3726   40.6953 O   0  0  0  0  0  0  0  0  0  0  0  0
    1.7882   -5.8011   44.8926 C   0  0  0  0  0  0  0  0  0  0  0  0
    1.2123   -3.7449   45.4496 C   0  0  0  0  0  0  0  0  0  0  0  0
    0.2112   -3.9145   46.5456 C   0  0  0  0  0  0  0  0  0  0  0  0
   -0.4298   -3.7204   42.9102 O   0  0  0  0  0  0  0  0  0  0  0  0
  1  2  2  0
  2  3  1  0
  3  4  1  0
  3  5  2  0
  2  6  1  0
  4  7  1  0
  5  8  1  0
  6  9  2  0
  1 10  1  0
  5 10  1  0
  4 11  2  0
  9 11  1  0
 10 12  2  0
  7 13  1  0
  9 14  1  0
 14 15  2  0
 12 16  1  0
 15 17  1  0
 17 18  1  0
 13 19  1  0
  8 20  2  0
 16 20  1  0
 17 21  1  6
 18 22  1  0
 15 23  1  0
 11 24  1  0
 23 24  2  0
 20 25  1  0
 22 26  1  0
 18 27  2  0
 27 28  1  0
 26 29  1  0
 28 29  1  0
 28 30  2  0
 25 31  2  0
 19 32  1  0
 19 33  1  0
 33 34  1  0
 25 35  1  0
M  END
$$$$
O14757_Pocket2Mol_idx-in-all-generaetd-345
     RDKit          3D

 37 43  0  0  0  0  0  0  0  0999 V2000
    4.5156    0.0550   42.9895 N   0  0  0  0  0  0  0  0  0  0  0  0
    5.0618   -0.8645   43.5295 C   0  0  0  0  0  0  0  0  0  0  0  0
    4.4350   -2.0604   43.7783 C   0  0  0  0  0  0  0  0  0  0  0  0
    4.9987   -3.0994   44.5839 C   0  0  0  0  0  0  0  0  0  0  0  0
    3.2714   -1.8664   43.0632 C   0  0  0  0  0  0  0  0  0  0  0  0
    6.4064   -0.5942   44.3204 N   0  0  0  0  0  0  0  0  0  0  0  0
    4.3422   -4.3256   44.7203 C   0  0  0  0  0  0  0  0  0  0  0  0
    2.1845   -2.6668   42.8270 N   0  0  0  0  0  0  0  0  0  0  0  0
    3.3305   -0.5395   42.5465 N   0  0  0  0  0  0  0  0  0  0  0  0
    1.9502   -3.8972   43.4076 C   0  0  0  0  0  0  0  0  0  0  0  0
    2.7156   -4.1184   44.6954 N   0  0  0  0  0  0  0  0  0  0  0  0
    6.8581   -1.5862   45.1101 C   0  0  0  0  0  0  0  0  0  0  0  0
    6.1801   -2.8430   45.2383 C   0  0  0  0  0  0  0  0  0  0  0  0
    2.1454   -5.1901   45.5771 C   0  0  0  0  0  0  0  0  0  0  0  0
    8.0137   -1.3946   45.8526 C   0  0  0  0  0  0  0  0  0  0  0  0
    0.9733   -4.5725   43.2066 O   0  0  0  0  0  0  0  0  0  0  0  0
    2.2437    0.0035   41.8733 C   0  0  0  0  0  0  0  0  0  0  0  0
    1.3210   -2.2077   41.7009 C   0  0  0  0  0  0  0  0  0  0  0  0
    8.6047   -2.2876   46.6923 C   0  0  0  0  0  0  0  0  0  0  0  0
    7.9141   -3.5157   46.8869 C   0  0  0  0  0  0  0  0  0  0  0  0
    1.0501   -0.8658   41.6612 C   0  0  0  0  0  0  0  0  0  0  0  0
    6.7278   -3.7718   46.2525 C   0  0  0  0  0  0  0  0  0  0  0  0
    9.8280   -2.0492   47.3361 C   0  0  0  0  0  0  0  0  0  0  0  0
    9.8262   -1.5735   48.5432 C   0  0  0  0  0  0  0  0  0  0  0  0
   11.0745   -2.0905   46.6735 C   0  0  0  0  0  0  0  0  0  0  0  0
    8.5798   -1.4294   49.3788 F   0  0  0  0  0  0  0  0  0  0  0  0
   10.9754   -1.2454   49.3173 C   0  0  0  0  0  0  0  0  0  0  0  0
   12.2431   -1.7844   47.3194 C   0  0  0  0  0  0  0  0  0  0  0  0
   12.3027   -1.4029   48.7252 C   0  0  0  0  0  0  0  0  0  0  0  0
   13.5212   -1.8824   46.5853 C   0  0  0  0  0  0  0  0  0  0  0  0
    1.0433   -4.5208   46.3540 C   0  0  0  0  0  0  0  0  0  0  0  0
   13.6066   -1.3002   45.3939 C   0  0  0  0  0  0  0  0  0  0  0  0
   14.5955   -2.4639   47.1696 C   0  0  0  0  0  0  0  0  0  0  0  0
   15.7508   -2.4647   46.2573 C   0  0  0  0  0  0  0  0  0  0  0  0
   16.9135   -3.2079   46.8311 O   0  0  0  0  0  0  0  0  0  0  0  0
   15.8487   -1.9691   45.0735 C   0  0  0  0  0  0  0  0  0  0  0  0
   14.7097   -1.3346   44.6010 C   0  0  0  0  0  0  0  0  0  0  0  0
  1  2  2  0
  2  3  1  0
  3  4  1  0
  3  5  2  0
  2  6  1  0
  4  7  1  0
  5  8  1  0
  1  9  1  0
  5  9  1  0
  8 10  1  0
  7 11  1  0
 10 11  1  0
  6 12  2  0
  4 13  2  0
 12 13  1  0
 11 14  1  0
 12 15  1  0
 10 16  2  0
  9 17  1  0
  8 18  1  0
 15 19  2  0
 19 20  1  0
 17 21  1  0
 18 21  1  0
 13 22  1  0
 20 22  2  0
 19 23  1  0
 23 24  2  0
 23 25  1  0
 24 26  1  0
 24 27  1  0
 25 28  2  0
 27 29  2  0
 28 29  1  0
 28 30  1  0
 14 31  1  0
 30 32  2  0
 30 33  1  0
 33 34  2  0
 34 35  1  0
 34 36  1  0
 32 37  1  0
 36 37  2  0
M  END
$$$$
O14757_Pocket2Mol_idx-in-all-generaetd-346
     RDKit          3D

 39 44  0  0  0  0  0  0  0  0999 V2000
    1.5482   -0.3111   41.9233 C   0  0  0  0  0  0  0  0  0  0  0  0
    2.7284    0.2018   42.1525 N   0  0  0  0  0  0  0  0  0  0  0  0
    3.7893   -0.3016   42.7005 C   0  0  0  0  0  0  0  0  0  0  0  0
    3.3781   -1.7350   43.0000 C   0  0  0  0  0  0  0  0  0  0  0  0
    2.0339   -1.9619   42.6217 C   0  0  0  0  0  0  0  0  0  0  0  0
    4.1166   -2.4997   43.8458 C   0  0  0  0  0  0  0  0  0  0  0  0
    1.1731   -3.0051   42.5773 C   0  0  0  0  0  0  0  0  0  0  0  0
    0.4701   -3.2344   41.4901 C   0  0  0  0  0  0  0  0  0  0  0  0
    5.3799   -1.7814   44.2691 C   0  0  0  0  0  0  0  0  0  0  0  0
    5.0159   -0.0180   43.1201 N   0  0  0  0  0  0  0  0  0  0  0  0
    5.7693   -0.6937   43.8418 C   0  0  0  0  0  0  0  0  0  0  0  0
    0.8078   -3.6166   43.6782 C   0  0  0  0  0  0  0  0  0  0  0  0
    0.0663   -4.7011   43.7415 N   0  0  0  0  0  0  0  0  0  0  0  0
    6.2223   -2.6843   45.1565 C   0  0  0  0  0  0  0  0  0  0  0  0
    6.9599   -0.2351   44.2608 N   0  0  0  0  0  0  0  0  0  0  0  0
    5.9065   -3.9037   45.7499 N   0  0  0  0  0  0  0  0  0  0  0  0
   -0.5459   -5.1185   42.5870 C   0  0  0  0  0  0  0  0  0  0  0  0
    5.7480   -4.0340   46.9810 C   0  0  0  0  0  0  0  0  0  0  0  0
    7.4448   -1.8511   45.4198 C   0  0  0  0  0  0  0  0  0  0  0  0
    7.7572   -0.7827   45.0128 C   0  0  0  0  0  0  0  0  0  0  0  0
    8.4076   -2.7217   46.4541 C   0  0  0  0  0  0  0  0  0  0  0  0
    9.3167   -2.0988   47.1049 N   0  0  0  0  0  0  0  0  0  0  0  0
   -0.4719   -4.3893   41.5406 C   0  0  0  0  0  0  0  0  0  0  0  0
    8.3667   -4.0284   46.5743 N   0  0  0  0  0  0  0  0  0  0  0  0
   10.1532   -2.5726   47.9567 C   0  0  0  0  0  0  0  0  0  0  0  0
   11.0726   -1.7892   48.6998 C   0  0  0  0  0  0  0  0  0  0  0  0
   10.4886   -0.9372   49.4584 C   0  0  0  0  0  0  0  0  0  0  0  0
   10.2139   -3.8947   48.0407 C   0  0  0  0  0  0  0  0  0  0  0  0
    6.6188   -4.9855   47.3969 N   0  0  0  0  0  0  0  0  0  0  0  0
    5.1401   -3.1961   47.7242 O   0  0  0  0  0  0  0  0  0  0  0  0
    9.2230   -4.6492   47.2923 C   0  0  0  0  0  0  0  0  0  0  0  0
   12.4306   -1.6942   48.6002 C   0  0  0  0  0  0  0  0  0  0  0  0
   13.1277   -2.5738   47.4657 C   0  0  0  0  0  0  0  0  0  0  0  0
   12.9867   -0.9385   49.4619 C   0  0  0  0  0  0  0  0  0  0  0  0
   13.5901   -2.1437   46.5134 O   0  0  0  0  0  0  0  0  0  0  0  0
   11.3329   -0.2152   50.4442 C   0  0  0  0  0  0  0  0  0  0  0  0
   13.0079   -3.8295   47.5377 O   0  0  0  0  0  0  0  0  0  0  0  0
   14.6117   -0.9696   49.3095 C   0  0  0  0  0  0  0  0  0  0  0  0
   12.5553   -0.1732   50.3648 C   0  0  0  0  0  0  0  0  0  0  0  0
  1  2  1  0
  2  3  2  0
  3  4  1  0
  1  5  2  0
  4  5  1  0
  4  6  2  0
  5  7  1  0
  7  8  2  0
  6  9  1  0
  3 10  1  0
  9 11  2  0
 10 11  1  0
  7 12  1  0
 12 13  2  0
  9 14  1  0
 11 15  1  0
 14 16  1  0
 13 17  1  0
 16 18  1  0
 14 19  2  0
 15 20  2  0
 19 20  1  0
 19 21  1  0
 21 22  2  0
  8 23  1  0
 17 23  2  0
 21 24  1  0
 22 25  1  0
 25 26  1  0
 26 27  2  0
 25 28  2  0
 18 29  1  0
 18 30  2  0
 24 31  2  0
 28 31  1  0
 26 32  1  0
 32 33  1  0
 32 34  2  0
 33 35  2  0
 27 36  1  0
 33 37  1  0
 34 38  1  0
 34 39  1  0
 36 39  2  0
M  END
$$$$
O14757_Pocket2Mol_idx-in-all-generaetd-347
     RDKit          3D

 33 37  0  0  0  0  0  0  0  0999 V2000
    5.5575   -0.4055   43.2321 N   0  0  0  0  0  0  0  0  0  0  0  0
    4.5233    0.0727   42.5988 N   0  0  0  0  0  0  0  0  0  0  0  0
    5.1726   -1.5114   43.9314 C   0  0  0  0  0  0  0  0  0  0  0  0
    5.9080   -2.2268   44.9217 C   0  0  0  0  0  0  0  0  0  0  0  0
    5.3635   -3.3861   45.5121 C   0  0  0  0  0  0  0  0  0  0  0  0
    7.1791   -1.7734   45.4544 C   0  0  0  0  0  0  0  0  0  0  0  0
    3.4069   -0.5377   42.5980 C   0  0  0  0  0  0  0  0  0  0  0  0
    2.1839   -0.4257   41.9942 C   0  0  0  0  0  0  0  0  0  0  0  0
    3.7449   -1.7453   43.5024 C   0  0  0  0  0  0  0  0  0  0  0  0
    7.8525   -0.6503   45.0420 O   0  0  0  0  0  0  0  0  0  0  0  0
    7.8789   -2.5576   46.3941 C   0  0  0  0  0  0  0  0  0  0  0  0
    2.8045   -2.7414   43.6928 C   0  0  0  0  0  0  0  0  0  0  0  0
    9.2115   -2.0969   46.8642 C   0  0  0  0  0  0  0  0  0  0  0  0
    4.0793   -3.8977   45.1232 C   0  0  0  0  0  0  0  0  0  0  0  0
    9.4064   -1.6424   47.9232 O   0  0  0  0  0  0  0  0  0  0  0  0
    3.1160   -3.7348   44.5196 N   0  0  0  0  0  0  0  0  0  0  0  0
   10.2271   -2.0181   45.9902 O   0  0  0  0  0  0  0  0  0  0  0  0
    1.5846   -2.6820   43.0143 C   0  0  0  0  0  0  0  0  0  0  0  0
   11.4761   -2.1798   46.4472 C   0  0  0  0  0  0  0  0  0  0  0  0
    1.2997   -1.5506   42.1525 C   0  0  0  0  0  0  0  0  0  0  0  0
    0.5555   -3.6734   43.1531 C   0  0  0  0  0  0  0  0  0  0  0  0
   -0.1252   -4.0680   42.0341 O   0  0  0  0  0  0  0  0  0  0  0  0
    0.3090   -4.1637   44.1784 O   0  0  0  0  0  0  0  0  0  0  0  0
    5.8996   -4.0688   46.5513 C   0  0  0  0  0  0  0  0  0  0  0  0
    7.2191   -3.6737   47.0406 C   0  0  0  0  0  0  0  0  0  0  0  0
   12.4471   -1.3624   45.7994 C   0  0  0  0  0  0  0  0  0  0  0  0
   11.7898   -3.1534   47.3130 C   0  0  0  0  0  0  0  0  0  0  0  0
   10.7906   -4.0871   47.8052 O   0  0  0  0  0  0  0  0  0  0  0  0
   13.1632   -3.4103   47.6838 C   0  0  0  0  0  0  0  0  0  0  0  0
   13.4787   -4.4209   48.6073 O   0  0  0  0  0  0  0  0  0  0  0  0
   13.7823   -1.5721   46.2921 C   0  0  0  0  0  0  0  0  0  0  0  0
   13.7435   -4.1199   49.8268 C   0  0  0  0  0  0  0  0  0  0  0  0
   14.1472   -2.5482   47.1606 C   0  0  0  0  0  0  0  0  0  0  0  0
  1  2  2  0
  1  3  1  0
  3  4  1  0
  4  5  2  0
  4  6  1  0
  2  7  1  0
  7  8  2  0
  3  9  2  0
  7  9  1  0
  6 10  1  0
  6 11  2  0
  9 12  1  0
 11 13  1  0
  5 14  1  0
 13 15  2  0
 12 16  1  0
 14 16  2  0
 13 17  1  0
 12 18  1  0
 17 19  1  0
  8 20  1  0
 18 20  2  0
 18 21  1  0
 21 22  1  0
 21 23  2  0
  5 24  1  0
 11 25  1  0
 24 25  2  0
 19 26  2  0
 19 27  1  0
 27 28  1  0
 27 29  2  0
 29 30  1  0
 26 31  1  0
 30 32  1  0
 29 33  1  0
 31 33  2  0
M  END
$$$$
O14757_Pocket2Mol_idx-in-all-generaetd-348
     RDKit          3D

 47 56  0  0  0  0  0  0  0  0999 V2000
    1.5482   -0.3111   41.9233 C   0  0  0  0  0  0  0  0  0  0  0  0
    2.7284    0.2018   42.1525 N   0  0  0  0  0  0  0  0  0  0  0  0
    3.7893   -0.3016   42.7005 C   0  0  0  0  0  0  0  0  0  0  0  0
    3.3781   -1.7350   43.0000 C   0  0  0  0  0  0  0  0  0  0  0  0
    2.0339   -1.9619   42.6217 C   0  0  0  0  0  0  0  0  0  0  0  0
    5.0090    0.1219   42.9340 N   0  0  0  0  0  0  0  0  0  0  0  0
    4.2895   -2.4979   43.6707 C   0  0  0  0  0  0  0  0  0  0  0  0
    5.8391   -0.6675   43.6343 C   0  0  0  0  0  0  0  0  0  0  0  0
    6.9849   -0.2377   44.0028 N   0  0  0  0  0  0  0  0  0  0  0  0
    4.0426   -3.8794   44.0832 C   0  0  0  0  0  0  0  0  0  0  0  0
    7.6796   -0.8734   44.9326 C   0  0  0  0  0  0  0  0  0  0  0  0
    1.1064   -2.9576   42.4211 C   0  0  0  0  0  0  0  0  0  0  0  0
    5.5298   -1.9496   44.0315 C   0  0  0  0  0  0  0  0  0  0  0  0
    3.8954   -4.1817   45.4718 C   0  0  0  0  0  0  0  0  0  0  0  0
    0.6765   -3.5480   43.4006 C   0  0  1  0  0  0  0  0  0  0  0  0
    0.5804   -3.2191   41.1635 C   0  0  0  0  0  0  0  0  0  0  0  0
    2.8083   -4.8227   45.9203 N   0  0  0  0  0  0  0  0  0  0  0  0
   -0.1574   -4.5754   42.9329 N   0  0  0  0  0  0  0  0  0  0  0  0
    6.5271   -2.5531   44.9677 C   0  0  0  0  0  0  0  0  0  0  0  0
   -0.2272   -4.3703   41.5137 C   0  0  0  0  0  0  0  0  0  0  0  0
    7.5095   -2.0029   45.3993 C   0  0  0  0  0  0  0  0  0  0  0  0
    8.2550   -2.6982   46.3988 C   0  0  2  0  0  0  0  0  0  0  0  0
    8.8975   -0.3029   45.3267 O   0  0  0  0  0  0  0  0  0  0  0  0
    4.8299   -4.4637   46.4212 C   0  0  0  0  0  0  0  0  0  0  0  0
    4.2707   -4.9248   47.6295 N   0  0  0  0  0  0  0  0  0  0  0  0
    3.2045   -5.2092   47.1521 C   0  0  0  0  0  0  0  0  0  0  0  0
    1.4482   -4.6186   45.4134 C   0  0  2  0  0  0  0  0  0  0  0  0
    1.2398   -3.5043   44.6236 O   0  0  0  0  0  0  0  0  0  0  0  0
    6.3317   -3.9297   46.0870 C   0  0  2  0  0  0  0  0  0  0  0  0
    9.5296   -2.5449   46.9776 C   0  0  0  0  0  0  0  0  0  0  0  0
    9.7921   -1.7530   47.9018 O   0  0  0  0  0  0  0  0  0  0  0  0
    7.4454   -3.8344   46.8035 C   0  0  0  0  0  0  0  0  0  0  0  0
   10.5010   -3.0847   46.3190 O   0  0  0  0  0  0  0  0  0  0  0  0
    0.5569   -4.7693   46.5649 C   0  0  0  0  0  0  0  0  0  0  0  0
   11.7452   -2.8462   46.6234 C   0  0  0  0  0  0  0  0  0  0  0  0
   12.4344   -1.8951   45.7393 C   0  0  0  0  0  0  0  0  0  0  0  0
   12.4612   -3.5429   47.5581 C   0  0  0  0  0  0  0  0  0  0  0  0
   11.7737   -4.5216   48.4115 C   0  0  0  0  0  0  0  0  0  0  0  0
   13.7761   -1.6251   45.9829 C   0  0  0  0  0  0  0  0  0  0  0  0
   13.7909   -3.1787   47.7950 C   0  0  0  0  0  0  0  0  0  0  0  0
   14.4374   -0.6496   45.1506 C   0  0  0  0  0  0  0  0  0  0  0  0
   14.5863   -3.8413   48.8675 C   0  0  0  0  0  0  0  0  0  0  0  0
   14.3043   -2.2958   47.0697 C   0  0  0  0  0  0  0  0  0  0  0  0
   13.8320   -4.7924   49.6737 C   0  0  0  0  0  0  0  0  0  0  0  0
   12.4905   -5.1038   49.4168 C   0  0  0  0  0  0  0  0  0  0  0  0
   14.6739    0.4195   45.5645 O   0  0  0  0  0  0  0  0  0  0  0  0
   14.6178   -0.9636   43.9504 O   0  0  0  0  0  0  0  0  0  0  0  0
  1  2  1  0
  2  3  2  0
  3  4  1  0
  1  5  2  0
  4  5  1  0
  3  6  1  0
  4  7  2  0
  6  8  1  0
  8  9  1  0
  7 10  1  0
  9 11  1  0
  5 12  1  0
  7 13  1  0
  8 13  2  0
 10 14  1  0
 12 15  1  0
 12 16  2  0
 14 17  1  0
 15 18  1  0
 13 19  1  0
 16 20  1  0
 18 20  2  0
 11 21  1  0
 19 21  2  0
 21 22  1  0
 11 23  2  0
 14 24  2  0
 24 25  1  0
 17 26  1  0
 25 26  2  0
 17 27  1  0
 15 28  1  6
 27 28  1  0
 19 29  1  0
 24 29  1  0
 22 30  1  6
 30 31  2  0
 22 32  1  0
 29 32  1  1
 30 33  1  0
 27 34  1  1
 33 35  1  0
 35 36  2  0
 35 37  1  0
 37 38  2  0
 36 39  1  0
 37 40  1  0
 39 41  1  0
 40 42  2  0
 39 43  2  0
 40 43  1  0
 42 44  1  0
 38 45  1  0
 44 45  2  0
 41 46  1  0
 41 47  2  0
M  END
$$$$
O14757_Pocket2Mol_idx-in-all-generaetd-349
     RDKit          3D

 44 51  0  0  0  0  0  0  0  0999 V2000
    1.5482   -0.3111   41.9233 C   0  0  0  0  0  0  0  0  0  0  0  0
    2.7284    0.2018   42.1525 N   0  0  0  0  0  0  0  0  0  0  0  0
    3.7893   -0.3016   42.7005 C   0  0  0  0  0  0  0  0  0  0  0  0
    3.3781   -1.7350   43.0000 C   0  0  0  0  0  0  0  0  0  0  0  0
    2.0339   -1.9619   42.6217 C   0  0  0  0  0  0  0  0  0  0  0  0
    4.1166   -2.4997   43.8458 C   0  0  0  0  0  0  0  0  0  0  0  0
    1.1731   -3.0051   42.5773 C   0  0  0  0  0  0  0  0  0  0  0  0
    0.4701   -3.2344   41.4901 C   0  0  0  0  0  0  0  0  0  0  0  0
    5.3799   -1.7814   44.2691 C   0  0  0  0  0  0  0  0  0  0  0  0
    5.0159   -0.0180   43.1201 N   0  0  0  0  0  0  0  0  0  0  0  0
    5.7693   -0.6937   43.8418 C   0  0  0  0  0  0  0  0  0  0  0  0
    0.8078   -3.6166   43.6782 C   0  0  0  0  0  0  0  0  0  0  0  0
    0.0663   -4.7011   43.7415 N   0  0  0  0  0  0  0  0  0  0  0  0
    6.2223   -2.6843   45.1565 C   0  0  0  0  0  0  0  0  0  0  0  0
    1.4459   -3.3095   45.0236 O   0  0  0  0  0  0  0  0  0  0  0  0
   -0.5278   -5.1074   42.5506 C   0  0  0  0  0  0  0  0  0  0  0  0
   -1.3099   -6.2193   42.5332 N   0  0  0  0  0  0  0  0  0  0  0  0
   -0.3906   -4.3573   41.3904 C   0  0  0  0  0  0  0  0  0  0  0  0
    7.0535   -0.4845   44.4478 N   0  0  0  0  0  0  0  0  0  0  0  0
    0.6210   -3.8397   46.1835 C   0  0  0  0  0  0  0  0  0  0  0  0
    6.2906   -3.7888   45.8815 C   0  0  0  0  0  0  0  0  0  0  0  0
    7.3965   -1.5466   45.3147 C   0  0  0  0  0  0  0  0  0  0  0  0
    5.1449   -4.4973   46.0473 O   0  0  0  0  0  0  0  0  0  0  0  0
    7.4148   -4.1081   46.6372 C   0  0  0  0  0  0  0  0  0  0  0  0
    8.5011   -3.1747   46.6693 C   0  0  0  0  0  0  0  0  0  0  0  0
    8.4580   -1.9168   46.0438 C   0  0  0  0  0  0  0  0  0  0  0  0
    9.8193   -3.4927   47.5654 C   0  0  1  0  0  0  0  0  0  0  0  0
    4.3482   -4.5667   47.1383 C   0  0  0  0  0  0  0  0  0  0  0  0
   10.8925   -3.4519   46.9633 C   0  0  0  0  0  0  0  0  0  0  0  0
   11.7691   -2.4393   47.2298 N   0  0  0  0  0  0  0  0  0  0  0  0
   11.5679   -1.6048   48.2682 C   0  0  0  0  0  0  0  0  0  0  0  0
   13.2337   -2.7224   46.9899 C   0  0  0  0  0  0  0  0  0  0  0  0
   11.1468   -4.1806   45.9346 O   0  0  0  0  0  0  0  0  0  0  0  0
   14.0674   -3.2434   47.7193 C   0  0  0  0  0  0  0  0  0  0  0  0
   13.7337   -3.8357   48.9955 C   0  0  0  0  0  0  0  0  0  0  0  0
   10.6978   -1.8484   49.2819 O   0  0  0  0  0  0  0  0  0  0  0  0
   15.4145   -3.0897   47.4674 C   0  0  0  0  0  0  0  0  0  0  0  0
    9.6185   -2.3722   48.7838 C   0  0  0  0  0  0  0  0  0  0  0  0
   13.6236   -2.2426   45.6742 C   0  0  0  0  0  0  0  0  0  0  0  0
   16.4002   -3.6862   48.4243 C   0  0  0  0  0  0  0  0  0  0  0  0
   14.5527   -4.4499   49.9458 C   0  0  0  0  0  0  0  0  0  0  0  0
   15.9884   -4.3436   49.5894 C   0  0  0  0  0  0  0  0  0  0  0  0
   14.9462   -2.1516   45.3830 C   0  0  0  0  0  0  0  0  0  0  0  0
   15.8808   -2.6555   46.2518 C   0  0  0  0  0  0  0  0  0  0  0  0
  1  2  1  0
  2  3  2  0
  3  4  1  0
  1  5  2  0
  4  5  1  0
  4  6  2  0
  5  7  1  0
  7  8  2  0
  6  9  1  0
  3 10  1  0
  9 11  1  0
 10 11  1  0
  7 12  1  0
 12 13  2  0
  9 14  2  0
 12 15  1  0
 13 16  1  0
 16 17  1  0
  8 18  1  0
 16 18  2  0
 11 19  2  0
 15 20  1  0
 14 21  1  0
 14 22  1  0
 19 22  1  0
 21 23  1  0
 21 24  2  0
 24 25  1  0
 22 26  2  0
 25 26  2  0
 27 25  1  6
 23 28  1  0
 27 29  1  0
 29 30  1  0
 30 31  1  0
 30 32  1  0
 29 33  2  0
 32 34  1  0
 34 35  2  0
 31 36  1  0
 34 37  1  0
 27 38  1  0
 36 38  1  0
 32 39  2  0
 37 40  2  0
 35 41  1  0
 40 42  1  0
 41 42  2  0
 39 43  1  0
 37 44  1  0
 43 44  2  0
M  END
$$$$
O14757_Pocket2Mol_idx-in-all-generaetd-350
     RDKit          3D

 34 39  0  0  0  0  0  0  0  0999 V2000
    5.3420    0.2589   42.8836 O   0  0  0  0  0  0  0  0  0  0  0  0
    5.1627   -0.7554   43.4753 C   0  0  0  0  0  0  0  0  0  0  0  0
    4.0509   -1.4657   43.4177 N   0  0  0  0  0  0  0  0  0  0  0  0
    5.9969   -1.2317   44.6840 C   0  0  0  0  0  0  0  0  0  0  0  0
    2.9618   -1.1021   42.5918 C   0  0  1  0  0  0  0  0  0  0  0  0
    7.3392   -0.8596   44.8412 C   0  0  0  0  0  0  0  0  0  0  0  0
    1.9754   -2.0820   42.2741 C   0  0  0  0  0  0  0  0  0  0  0  0
    5.5910   -2.4282   45.3439 C   0  0  0  0  0  0  0  0  0  0  0  0
    6.5874   -2.9636   46.1581 C   0  0  0  0  0  0  0  0  0  0  0  0
    4.2763   -3.0680   45.0493 N   0  0  0  0  0  0  0  0  0  0  0  0
    3.6188   -2.5886   44.2024 C   0  0  0  0  0  0  0  0  0  0  0  0
    8.1921   -1.4071   45.7505 C   0  0  0  0  0  0  0  0  0  0  0  0
    1.0154   -1.8839   41.2980 C   0  0  0  0  0  0  0  0  0  0  0  0
    2.5720   -3.3564   43.9063 C   0  0  0  0  0  0  0  0  0  0  0  0
    0.2502   -2.8976   41.0751 C   0  0  0  0  0  0  0  0  0  0  0  0
    6.1761   -4.1775   47.0209 C   0  0  0  0  0  0  0  0  0  0  0  0
    1.7266   -3.1047   43.0115 C   0  0  2  0  0  0  0  0  0  0  0  0
    2.3696   -4.5367   44.7536 N   0  0  0  0  0  0  0  0  0  0  0  0
    1.2264   -5.2346   44.4693 C   0  0  0  0  0  0  0  0  0  0  0  0
    0.7187   -3.8955   42.5465 C   0  0  0  0  0  0  0  0  0  0  0  0
    9.4576   -0.8949   46.0327 N   0  0  0  0  0  0  0  0  0  0  0  0
    0.8625   -6.3901   45.2462 C   0  0  0  0  0  0  0  0  0  0  0  0
    7.6467   -2.5139   46.4892 C   0  0  0  0  0  0  0  0  0  0  0  0
   10.4908   -1.5336   45.8242 C   0  0  0  0  0  0  0  0  0  0  0  0
    0.3057   -4.9299   43.2909 C   0  0  0  0  0  0  0  0  0  0  0  0
   11.5916   -1.4291   46.7436 C   0  0  0  0  0  0  0  0  0  0  0  0
   10.5566   -2.3672   44.8649 O   0  0  0  0  0  0  0  0  0  0  0  0
   11.6051   -2.2111   47.7709 N   0  0  0  0  0  0  0  0  0  0  0  0
    2.4805    0.2099   42.8350 O   0  0  0  0  0  0  0  0  0  0  0  0
   12.6177   -0.5842   46.5430 C   0  0  0  0  0  0  0  0  0  0  0  0
   10.6022   -3.0999   48.2311 C   0  0  0  0  0  0  0  0  0  0  0  0
    9.8980   -2.5525   49.3676 C   0  0  0  0  0  0  0  0  0  0  0  0
   12.7303   -2.0010   48.6431 C   0  0  0  0  0  0  0  0  0  0  0  0
   13.5299   -0.9151   47.7496 C   0  0  0  0  0  0  0  0  0  0  0  0
  1  2  2  0
  2  3  1  0
  2  4  1  0
  3  5  1  0
  4  6  2  0
  5  7  1  0
  4  8  1  0
  8  9  2  0
  8 10  1  0
  3 11  1  0
 10 11  2  0
  6 12  1  0
  7 13  2  0
 11 14  1  0
 13 15  1  0
  9 16  1  0
 17  7  1  6
 14 17  1  0
 14 18  2  0
 18 19  1  0
 15 20  2  0
 17 20  1  0
 12 21  1  0
 19 22  1  0
  9 23  1  0
 12 23  2  0
 21 24  1  0
 19 25  2  0
 20 25  1  0
 24 26  1  0
 24 27  2  0
 26 28  1  0
  5 29  1  1
 26 30  2  0
 28 31  1  0
 31 32  1  0
 28 33  1  0
 30 34  1  0
 33 34  2  0
M  END
$$$$
O14757_Pocket2Mol_idx-in-all-generaetd-351
     RDKit          3D

 32 37  0  0  0  0  0  0  0  0999 V2000
    4.5156    0.0550   42.9895 N   0  0  0  0  0  0  0  0  0  0  0  0
    5.0618   -0.8645   43.5295 C   0  0  0  0  0  0  0  0  0  0  0  0
    4.4350   -2.0604   43.7783 C   0  0  0  0  0  0  0  0  0  0  0  0
    4.9987   -3.0994   44.5839 C   0  0  0  0  0  0  0  0  0  0  0  0
    3.2714   -1.8664   43.0632 C   0  0  0  0  0  0  0  0  0  0  0  0
    6.4064   -0.5942   44.3204 N   0  0  0  0  0  0  0  0  0  0  0  0
    4.3422   -4.3256   44.7203 C   0  0  0  0  0  0  0  0  0  0  0  0
    2.1845   -2.6668   42.8270 N   0  0  0  0  0  0  0  0  0  0  0  0
    3.3305   -0.5395   42.5465 N   0  0  0  0  0  0  0  0  0  0  0  0
    1.9502   -3.8972   43.4076 C   0  0  0  0  0  0  0  0  0  0  0  0
    2.7156   -4.1184   44.6954 N   0  0  0  0  0  0  0  0  0  0  0  0
    6.8581   -1.5862   45.1101 C   0  0  0  0  0  0  0  0  0  0  0  0
    6.1801   -2.8430   45.2383 C   0  0  0  0  0  0  0  0  0  0  0  0
    2.1454   -5.1901   45.5771 C   0  0  0  0  0  0  0  0  0  0  0  0
    8.0137   -1.3946   45.8526 C   0  0  0  0  0  0  0  0  0  0  0  0
    0.9733   -4.5725   43.2066 O   0  0  0  0  0  0  0  0  0  0  0  0
    2.2437    0.0035   41.8733 C   0  0  0  0  0  0  0  0  0  0  0  0
    1.3210   -2.2077   41.7009 C   0  0  0  0  0  0  0  0  0  0  0  0
    8.6047   -2.2876   46.6923 C   0  0  0  0  0  0  0  0  0  0  0  0
    7.9141   -3.5157   46.8869 C   0  0  0  0  0  0  0  0  0  0  0  0
    1.0501   -0.8658   41.6612 C   0  0  0  0  0  0  0  0  0  0  0  0
    6.7278   -3.7718   46.2525 C   0  0  0  0  0  0  0  0  0  0  0  0
    9.8280   -2.0492   47.3361 C   0  0  0  0  0  0  0  0  0  0  0  0
    9.8262   -1.5735   48.5432 C   0  0  0  0  0  0  0  0  0  0  0  0
   11.0745   -2.0905   46.6735 C   0  0  0  0  0  0  0  0  0  0  0  0
    8.5798   -1.4294   49.3788 F   0  0  0  0  0  0  0  0  0  0  0  0
   10.9035   -1.3906   49.1995 C   0  0  0  0  0  0  0  0  0  0  0  0
   11.1251   -2.4931   45.1635 C   0  0  0  0  0  0  0  0  0  0  0  0
   11.3408   -3.5669   44.8995 O   0  0  0  0  0  0  0  0  0  0  0  0
   12.1703   -1.9648   47.2397 C   0  0  0  0  0  0  0  0  0  0  0  0
   11.0503   -1.5303   44.2936 O   0  0  0  0  0  0  0  0  0  0  0  0
   12.1874   -1.5543   48.6501 C   0  0  0  0  0  0  0  0  0  0  0  0
  1  2  2  0
  2  3  1  0
  3  4  1  0
  3  5  2  0
  2  6  1  0
  4  7  1  0
  5  8  1  0
  1  9  1  0
  5  9  1  0
  8 10  1  0
  7 11  1  0
 10 11  1  0
  6 12  2  0
  4 13  2  0
 12 13  1  0
 11 14  1  0
 12 15  1  0
 10 16  2  0
  9 17  1  0
  8 18  1  0
 15 19  2  0
 19 20  1  0
 17 21  1  0
 18 21  1  0
 13 22  1  0
 20 22  2  0
 19 23  1  0
 23 24  2  0
 23 25  1  0
 24 26  1  0
 24 27  1  0
 25 28  1  0
 28 29  2  0
 25 30  2  0
 28 31  1  0
 27 32  2  0
 30 32  1  0
M  END
$$$$
O14757_Pocket2Mol_idx-in-all-generaetd-352
     RDKit          3D

 39 45  0  0  0  0  0  0  0  0999 V2000
    1.5482   -0.3111   41.9233 C   0  0  0  0  0  0  0  0  0  0  0  0
    2.7284    0.2018   42.1525 N   0  0  0  0  0  0  0  0  0  0  0  0
    3.7893   -0.3016   42.7005 C   0  0  0  0  0  0  0  0  0  0  0  0
    3.3781   -1.7350   43.0000 C   0  0  0  0  0  0  0  0  0  0  0  0
    2.0339   -1.9619   42.6217 C   0  0  0  0  0  0  0  0  0  0  0  0
    4.1166   -2.4997   43.8458 C   0  0  0  0  0  0  0  0  0  0  0  0
    1.1731   -3.0051   42.5773 C   0  0  0  0  0  0  0  0  0  0  0  0
    0.4701   -3.2344   41.4901 C   0  0  0  0  0  0  0  0  0  0  0  0
    5.3799   -1.7814   44.2691 C   0  0  0  0  0  0  0  0  0  0  0  0
    5.0159   -0.0180   43.1201 N   0  0  0  0  0  0  0  0  0  0  0  0
    5.7693   -0.6937   43.8418 C   0  0  0  0  0  0  0  0  0  0  0  0
    0.8078   -3.6166   43.6782 C   0  0  0  0  0  0  0  0  0  0  0  0
    0.0663   -4.7011   43.7415 N   0  0  0  0  0  0  0  0  0  0  0  0
    6.2223   -2.6843   45.1565 C   0  0  0  0  0  0  0  0  0  0  0  0
    6.9599   -0.2351   44.2608 N   0  0  0  0  0  0  0  0  0  0  0  0
    5.9065   -3.9037   45.7499 N   0  0  0  0  0  0  0  0  0  0  0  0
   -0.5459   -5.1185   42.5870 C   0  0  0  0  0  0  0  0  0  0  0  0
    5.7480   -4.0340   46.9810 C   0  0  0  0  0  0  0  0  0  0  0  0
    7.4448   -1.8511   45.4198 C   0  0  0  0  0  0  0  0  0  0  0  0
    7.7572   -0.7827   45.0128 C   0  0  0  0  0  0  0  0  0  0  0  0
    8.4076   -2.7217   46.4541 C   0  0  0  0  0  0  0  0  0  0  0  0
    9.3167   -2.0988   47.1049 N   0  0  0  0  0  0  0  0  0  0  0  0
   -0.4719   -4.3893   41.5406 C   0  0  0  0  0  0  0  0  0  0  0  0
    8.3667   -4.0284   46.5743 N   0  0  0  0  0  0  0  0  0  0  0  0
    9.5309   -4.3147   47.3094 C   0  0  0  0  0  0  0  0  0  0  0  0
    5.3113   -3.3789   47.8005 O   0  0  0  0  0  0  0  0  0  0  0  0
    9.9022   -5.6301   47.7684 C   0  0  0  0  0  0  0  0  0  0  0  0
    5.4470   -5.5868   47.2096 C   0  0  0  0  0  0  0  0  0  0  0  0
   11.2254   -5.8679   48.0402 C   0  0  0  0  0  0  0  0  0  0  0  0
    8.9736   -6.6532   47.8548 C   0  0  0  0  0  0  0  0  0  0  0  0
   10.0616   -3.0670   47.6360 C   0  0  0  0  0  0  0  0  0  0  0  0
    7.5566   -6.3564   47.5477 N   0  0  0  0  0  0  0  0  0  0  0  0
    6.4157   -6.1721   48.0913 C   0  0  0  0  0  0  0  0  0  0  0  0
    9.3646   -7.8782   48.1671 C   0  0  0  0  0  0  0  0  0  0  0  0
   12.3073   -4.8526   47.9155 O   0  0  0  0  0  0  0  0  0  0  0  0
    8.3867   -8.9995   48.3228 O   0  0  0  0  0  0  0  0  0  0  0  0
   10.6917   -8.2049   48.5433 C   0  0  0  0  0  0  0  0  0  0  0  0
   11.6881   -7.1259   48.4463 C   0  0  0  0  0  0  0  0  0  0  0  0
    8.2768   -9.6783   47.2768 C   0  0  0  0  0  0  0  0  0  0  0  0
  1  2  1  0
  2  3  2  0
  3  4  1  0
  1  5  2  0
  4  5  1  0
  4  6  2  0
  5  7  1  0
  7  8  2  0
  6  9  1  0
  3 10  1  0
  9 11  2  0
 10 11  1  0
  7 12  1  0
 12 13  2  0
  9 14  1  0
 11 15  1  0
 14 16  1  0
 13 17  1  0
 16 18  1  0
 14 19  2  0
 15 20  2  0
 19 20  1  0
 19 21  1  0
 21 22  2  0
  8 23  1  0
 17 23  2  0
 21 24  1  0
 24 25  1  0
 18 26  2  0
 25 27  1  0
 18 28  1  0
 27 29  2  0
 27 30  1  0
 22 31  1  0
 25 31  2  0
 30 32  1  0
 28 33  1  0
 32 33  1  0
 30 34  2  0
 29 35  1  0
 34 36  1  0
 34 37  1  0
 29 38  1  0
 37 38  2  0
 36 39  1  0
M  END
$$$$
O14757_Pocket2Mol_idx-in-all-generaetd-353
     RDKit          3D

 37 42  0  0  0  0  0  0  0  0999 V2000
    1.5482   -0.3111   41.9233 C   0  0  0  0  0  0  0  0  0  0  0  0
    2.7284    0.2018   42.1525 N   0  0  0  0  0  0  0  0  0  0  0  0
    3.7893   -0.3016   42.7005 C   0  0  0  0  0  0  0  0  0  0  0  0
    3.3781   -1.7350   43.0000 C   0  0  0  0  0  0  0  0  0  0  0  0
    2.0339   -1.9619   42.6217 C   0  0  0  0  0  0  0  0  0  0  0  0
    4.1166   -2.4997   43.8458 C   0  0  0  0  0  0  0  0  0  0  0  0
    1.1731   -3.0051   42.5773 C   0  0  0  0  0  0  0  0  0  0  0  0
    0.4701   -3.2344   41.4901 C   0  0  0  0  0  0  0  0  0  0  0  0
    5.3799   -1.7814   44.2691 C   0  0  0  0  0  0  0  0  0  0  0  0
    5.0159   -0.0180   43.1201 N   0  0  0  0  0  0  0  0  0  0  0  0
    5.7693   -0.6937   43.8418 C   0  0  0  0  0  0  0  0  0  0  0  0
    0.8078   -3.6166   43.6782 C   0  0  0  0  0  0  0  0  0  0  0  0
    0.0663   -4.7011   43.7415 N   0  0  0  0  0  0  0  0  0  0  0  0
    6.2223   -2.6843   45.1565 C   0  0  0  0  0  0  0  0  0  0  0  0
    6.9599   -0.2351   44.2608 N   0  0  0  0  0  0  0  0  0  0  0  0
    5.9065   -3.9037   45.7499 N   0  0  0  0  0  0  0  0  0  0  0  0
   -0.5459   -5.1185   42.5870 C   0  0  0  0  0  0  0  0  0  0  0  0
    5.7480   -4.0340   46.9810 C   0  0  0  0  0  0  0  0  0  0  0  0
    7.4448   -1.8511   45.4198 C   0  0  0  0  0  0  0  0  0  0  0  0
    7.7572   -0.7827   45.0128 C   0  0  0  0  0  0  0  0  0  0  0  0
    8.4076   -2.7217   46.4541 C   0  0  0  0  0  0  0  0  0  0  0  0
    9.3167   -2.0988   47.1049 N   0  0  0  0  0  0  0  0  0  0  0  0
   -0.4719   -4.3893   41.5406 C   0  0  0  0  0  0  0  0  0  0  0  0
    8.3667   -4.0284   46.5743 N   0  0  0  0  0  0  0  0  0  0  0  0
    9.5309   -4.3147   47.3094 C   0  0  0  0  0  0  0  0  0  0  0  0
    5.3113   -3.3789   47.8005 O   0  0  0  0  0  0  0  0  0  0  0  0
    9.9022   -5.6301   47.7684 C   0  0  0  0  0  0  0  0  0  0  0  0
    5.4470   -5.5868   47.2096 C   0  0  0  0  0  0  0  0  0  0  0  0
   11.2254   -5.8679   48.0402 C   0  0  0  0  0  0  0  0  0  0  0  0
    8.9736   -6.6532   47.8548 C   0  0  0  0  0  0  0  0  0  0  0  0
   10.0616   -3.0670   47.6360 C   0  0  0  0  0  0  0  0  0  0  0  0
    9.2755   -7.8884   48.2076 C   0  0  0  0  0  0  0  0  0  0  0  0
   12.3151   -4.8393   47.9221 O   0  0  0  0  0  0  0  0  0  0  0  0
    8.2519   -8.9331   48.3446 C   0  0  0  0  0  0  0  0  0  0  0  0
    7.7918   -9.2569   47.1381 O   0  0  0  0  0  0  0  0  0  0  0  0
   11.6419   -7.0335   48.3248 C   0  0  0  0  0  0  0  0  0  0  0  0
   10.6849   -8.1363   48.5005 C   0  0  0  0  0  0  0  0  0  0  0  0
  1  2  1  0
  2  3  2  0
  3  4  1  0
  1  5  2  0
  4  5  1  0
  4  6  2  0
  5  7  1  0
  7  8  2  0
  6  9  1  0
  3 10  1  0
  9 11  2  0
 10 11  1  0
  7 12  1  0
 12 13  2  0
  9 14  1  0
 11 15  1  0
 14 16  1  0
 13 17  1  0
 16 18  1  0
 14 19  2  0
 15 20  2  0
 19 20  1  0
 19 21  1  0
 21 22  2  0
  8 23  1  0
 17 23  2  0
 21 24  1  0
 24 25  1  0
 18 26  2  0
 25 27  1  0
 18 28  1  0
 27 29  2  0
 27 30  1  0
 22 31  1  0
 25 31  2  0
 30 32  2  0
 29 33  1  0
 32 34  1  0
 34 35  1  0
 29 36  1  0
 32 37  1  0
 36 37  2  0
M  END
$$$$
O14757_Pocket2Mol_idx-in-all-generaetd-354
     RDKit          3D

 35 39  0  0  0  0  0  0  0  0999 V2000
    5.5575   -0.4055   43.2321 N   0  0  0  0  0  0  0  0  0  0  0  0
    4.5233    0.0727   42.5988 N   0  0  0  0  0  0  0  0  0  0  0  0
    5.1726   -1.5114   43.9314 C   0  0  0  0  0  0  0  0  0  0  0  0
    5.9080   -2.2268   44.9217 C   0  0  0  0  0  0  0  0  0  0  0  0
    5.3635   -3.3861   45.5121 C   0  0  0  0  0  0  0  0  0  0  0  0
    7.1791   -1.7734   45.4544 C   0  0  0  0  0  0  0  0  0  0  0  0
    3.4069   -0.5377   42.5980 C   0  0  0  0  0  0  0  0  0  0  0  0
    2.1839   -0.4257   41.9942 C   0  0  0  0  0  0  0  0  0  0  0  0
    3.7449   -1.7453   43.5024 C   0  0  0  0  0  0  0  0  0  0  0  0
    7.8525   -0.6503   45.0420 O   0  0  0  0  0  0  0  0  0  0  0  0
    7.8789   -2.5576   46.3941 C   0  0  0  0  0  0  0  0  0  0  0  0
    2.8045   -2.7414   43.6928 C   0  0  0  0  0  0  0  0  0  0  0  0
    9.2115   -2.0969   46.8642 C   0  0  0  0  0  0  0  0  0  0  0  0
    4.0793   -3.8977   45.1232 C   0  0  0  0  0  0  0  0  0  0  0  0
    9.4064   -1.6424   47.9232 O   0  0  0  0  0  0  0  0  0  0  0  0
    3.1160   -3.7348   44.5196 N   0  0  0  0  0  0  0  0  0  0  0  0
   10.2271   -2.0181   45.9902 O   0  0  0  0  0  0  0  0  0  0  0  0
    1.5846   -2.6820   43.0143 C   0  0  0  0  0  0  0  0  0  0  0  0
   11.4761   -2.1798   46.4472 C   0  0  0  0  0  0  0  0  0  0  0  0
    1.2997   -1.5506   42.1525 C   0  0  0  0  0  0  0  0  0  0  0  0
    0.5555   -3.6734   43.1531 C   0  0  0  0  0  0  0  0  0  0  0  0
   -0.1252   -4.0680   42.0341 O   0  0  0  0  0  0  0  0  0  0  0  0
    0.3090   -4.1637   44.1784 O   0  0  0  0  0  0  0  0  0  0  0  0
    5.8996   -4.0688   46.5513 C   0  0  0  0  0  0  0  0  0  0  0  0
    7.2191   -3.6737   47.0406 C   0  0  0  0  0  0  0  0  0  0  0  0
   12.4471   -1.3624   45.7994 C   0  0  0  0  0  0  0  0  0  0  0  0
   11.7898   -3.1534   47.3130 C   0  0  0  0  0  0  0  0  0  0  0  0
   10.7906   -4.0871   47.8052 O   0  0  0  0  0  0  0  0  0  0  0  0
   13.1632   -3.4103   47.6838 C   0  0  0  0  0  0  0  0  0  0  0  0
   13.4787   -4.4209   48.6073 O   0  0  0  0  0  0  0  0  0  0  0  0
   13.7823   -1.5721   46.2921 C   0  0  0  0  0  0  0  0  0  0  0  0
   14.1057   -2.5459   47.2054 C   0  0  0  0  0  0  0  0  0  0  0  0
   14.7813   -0.6761   45.7956 C   0  0  0  0  0  0  0  0  0  0  0  0
   14.7667   -0.4146   44.4795 O   0  0  0  0  0  0  0  0  0  0  0  0
   15.5794   -0.0898   46.5239 O   0  0  0  0  0  0  0  0  0  0  0  0
  1  2  2  0
  1  3  1  0
  3  4  1  0
  4  5  2  0
  4  6  1  0
  2  7  1  0
  7  8  2  0
  3  9  2  0
  7  9  1  0
  6 10  1  0
  6 11  2  0
  9 12  1  0
 11 13  1  0
  5 14  1  0
 13 15  2  0
 12 16  1  0
 14 16  2  0
 13 17  1  0
 12 18  1  0
 17 19  1  0
  8 20  1  0
 18 20  2  0
 18 21  1  0
 21 22  1  0
 21 23  2  0
  5 24  1  0
 11 25  1  0
 24 25  2  0
 19 26  2  0
 19 27  1  0
 27 28  1  0
 27 29  2  0
 29 30  1  0
 26 31  1  0
 29 32  1  0
 31 32  2  0
 31 33  1  0
 33 34  2  0
 33 35  1  0
M  END
$$$$
O14757_Pocket2Mol_idx-in-all-generaetd-355
     RDKit          3D

 32 37  0  0  0  0  0  0  0  0999 V2000
    4.5156    0.0550   42.9895 N   0  0  0  0  0  0  0  0  0  0  0  0
    5.0618   -0.8645   43.5295 C   0  0  0  0  0  0  0  0  0  0  0  0
    4.4350   -2.0604   43.7783 C   0  0  0  0  0  0  0  0  0  0  0  0
    4.9987   -3.0994   44.5839 C   0  0  0  0  0  0  0  0  0  0  0  0
    3.2714   -1.8664   43.0632 C   0  0  0  0  0  0  0  0  0  0  0  0
    6.4064   -0.5942   44.3204 N   0  0  0  0  0  0  0  0  0  0  0  0
    4.3422   -4.3256   44.7203 C   0  0  0  0  0  0  0  0  0  0  0  0
    2.1845   -2.6668   42.8270 N   0  0  0  0  0  0  0  0  0  0  0  0
    3.3305   -0.5395   42.5465 N   0  0  0  0  0  0  0  0  0  0  0  0
    1.9502   -3.8972   43.4076 C   0  0  0  0  0  0  0  0  0  0  0  0
    2.7156   -4.1184   44.6954 N   0  0  0  0  0  0  0  0  0  0  0  0
    6.8581   -1.5862   45.1101 C   0  0  0  0  0  0  0  0  0  0  0  0
    6.1801   -2.8430   45.2383 C   0  0  0  0  0  0  0  0  0  0  0  0
    2.1454   -5.1901   45.5771 C   0  0  0  0  0  0  0  0  0  0  0  0
    8.0137   -1.3946   45.8526 C   0  0  0  0  0  0  0  0  0  0  0  0
    0.9733   -4.5725   43.2066 O   0  0  0  0  0  0  0  0  0  0  0  0
    2.2437    0.0035   41.8733 C   0  0  0  0  0  0  0  0  0  0  0  0
    1.3210   -2.2077   41.7009 C   0  0  0  0  0  0  0  0  0  0  0  0
    8.6047   -2.2876   46.6923 C   0  0  0  0  0  0  0  0  0  0  0  0
    7.9141   -3.5157   46.8869 C   0  0  0  0  0  0  0  0  0  0  0  0
    1.0501   -0.8658   41.6612 C   0  0  0  0  0  0  0  0  0  0  0  0
    6.7278   -3.7718   46.2525 C   0  0  0  0  0  0  0  0  0  0  0  0
    9.8280   -2.0492   47.3361 C   0  0  0  0  0  0  0  0  0  0  0  0
    9.8262   -1.5735   48.5432 C   0  0  0  0  0  0  0  0  0  0  0  0
   11.0745   -2.0905   46.6735 C   0  0  0  0  0  0  0  0  0  0  0  0
    8.5798   -1.4294   49.3788 F   0  0  0  0  0  0  0  0  0  0  0  0
   10.9754   -1.2454   49.3173 C   0  0  0  0  0  0  0  0  0  0  0  0
   12.2431   -1.7844   47.3194 C   0  0  0  0  0  0  0  0  0  0  0  0
   11.0790   -2.4282   45.1105 C   0  0  0  0  0  0  0  0  0  0  0  0
   10.9480   -0.9325   50.7176 O   0  0  0  0  0  0  0  0  0  0  0  0
   12.2032   -1.4661   48.6782 C   0  0  0  0  0  0  0  0  0  0  0  0
   10.9603    0.3988   50.8693 C   0  0  0  0  0  0  0  0  0  0  0  0
  1  2  2  0
  2  3  1  0
  3  4  1  0
  3  5  2  0
  2  6  1  0
  4  7  1  0
  5  8  1  0
  1  9  1  0
  5  9  1  0
  8 10  1  0
  7 11  1  0
 10 11  1  0
  6 12  2  0
  4 13  2  0
 12 13  1  0
 11 14  1  0
 12 15  1  0
 10 16  2  0
  9 17  1  0
  8 18  1  0
 15 19  2  0
 19 20  1  0
 17 21  1  0
 18 21  1  0
 13 22  1  0
 20 22  2  0
 19 23  1  0
 23 24  2  0
 23 25  1  0
 24 26  1  0
 24 27  1  0
 25 28  2  0
 25 29  1  0
 27 30  1  0
 27 31  2  0
 28 31  1  0
 30 32  1  0
M  END
$$$$
O14757_Pocket2Mol_idx-in-all-generaetd-356
     RDKit          3D

 33 39  0  0  0  0  0  0  0  0999 V2000
    5.3420    0.2589   42.8836 O   0  0  0  0  0  0  0  0  0  0  0  0
    5.1627   -0.7554   43.4753 C   0  0  0  0  0  0  0  0  0  0  0  0
    4.0509   -1.4657   43.4177 N   0  0  0  0  0  0  0  0  0  0  0  0
    5.9969   -1.2317   44.6840 C   0  0  0  0  0  0  0  0  0  0  0  0
    2.9618   -1.1021   42.5918 C   0  0  1  0  0  0  0  0  0  0  0  0
    7.3392   -0.8596   44.8412 C   0  0  0  0  0  0  0  0  0  0  0  0
    1.9754   -2.0820   42.2741 C   0  0  0  0  0  0  0  0  0  0  0  0
    5.5910   -2.4282   45.3439 C   0  0  0  0  0  0  0  0  0  0  0  0
    6.5874   -2.9636   46.1581 C   0  0  0  0  0  0  0  0  0  0  0  0
    4.2763   -3.0680   45.0493 N   0  0  0  0  0  0  0  0  0  0  0  0
    3.6188   -2.5886   44.2024 C   0  0  0  0  0  0  0  0  0  0  0  0
    8.1921   -1.4071   45.7505 C   0  0  0  0  0  0  0  0  0  0  0  0
    1.0154   -1.8839   41.2980 C   0  0  0  0  0  0  0  0  0  0  0  0
    2.5720   -3.3564   43.9063 C   0  0  0  0  0  0  0  0  0  0  0  0
    0.2502   -2.8976   41.0751 C   0  0  0  0  0  0  0  0  0  0  0  0
    6.1761   -4.1775   47.0209 C   0  0  0  0  0  0  0  0  0  0  0  0
    1.7266   -3.1047   43.0115 C   0  0  2  0  0  0  0  0  0  0  0  0
    2.3696   -4.5367   44.7536 N   0  0  0  0  0  0  0  0  0  0  0  0
    1.2264   -5.2346   44.4693 C   0  0  0  0  0  0  0  0  0  0  0  0
    0.7187   -3.8955   42.5465 C   0  0  0  0  0  0  0  0  0  0  0  0
    9.4576   -0.8949   46.0327 N   0  0  0  0  0  0  0  0  0  0  0  0
    2.4628    0.2076   42.7867 C   0  0  0  0  0  0  0  0  0  0  0  0
    0.9064   -6.4149   45.2248 C   0  0  0  0  0  0  0  0  0  0  0  0
    0.3107   -5.0600   43.3630 C   0  0  0  0  0  0  0  0  0  0  0  0
    7.8349   -2.4469   46.4709 C   0  0  0  0  0  0  0  0  0  0  0  0
   10.1474   -1.4478   46.9669 C   0  0  0  0  0  0  0  0  0  0  0  0
    9.6325   -2.5356   47.5734 C   0  0  0  0  0  0  0  0  0  0  0  0
    8.6297   -3.0621   47.3869 N   0  0  0  0  0  0  0  0  0  0  0  0
   10.6287   -3.1664   48.5942 C   0  0  0  0  0  0  0  0  0  0  0  0
   11.4696   -1.0741   47.0540 C   0  0  0  0  0  0  0  0  0  0  0  0
   11.8685   -2.7045   48.7769 C   0  0  0  0  0  0  0  0  0  0  0  0
   12.3274   -1.6175   47.9984 C   0  0  0  0  0  0  0  0  0  0  0  0
   13.6020   -1.2198   48.1591 O   0  0  0  0  0  0  0  0  0  0  0  0
  1  2  2  0
  2  3  1  0
  2  4  1  0
  3  5  1  0
  4  6  2  0
  5  7  1  0
  4  8  1  0
  8  9  2  0
  8 10  1  0
  3 11  1  0
 10 11  2  0
  6 12  1  0
  7 13  2  0
 11 14  1  0
 13 15  1  0
  9 16  1  0
 17  7  1  6
 14 17  1  0
 14 18  2  0
 18 19  1  0
 15 20  2  0
 17 20  1  0
 12 21  1  0
  5 22  1  1
 19 23  1  0
 19 24  2  0
 20 24  1  0
  9 25  1  0
 12 25  2  0
 21 26  1  0
 26 27  1  0
 25 28  1  0
 27 28  2  0
 27 29  1  0
 26 30  2  0
 29 31  2  0
 30 32  1  0
 31 32  1  0
 32 33  2  0
M  END
$$$$
O14757_Pocket2Mol_idx-in-all-generaetd-357
     RDKit          3D

 31 34  0  0  0  0  0  0  0  0999 V2000
    3.7044    0.1389   42.5158 N   0  0  0  0  0  0  0  0  0  0  0  0
    3.0206   -1.0018   42.4929 C   0  0  0  0  0  0  0  0  0  0  0  0
    3.4791   -2.0817   43.2077 C   0  0  0  0  0  0  0  0  0  0  0  0
    4.8540    0.3862   43.0582 N   0  0  0  0  0  0  0  0  0  0  0  0
    5.1377   -0.9552   43.7144 C   0  0  0  0  0  0  0  0  0  0  0  0
    1.5846   -1.0753   41.7644 C   0  0  0  0  0  0  0  0  0  0  0  0
    4.6026   -2.0358   43.8129 C   0  0  0  0  0  0  0  0  0  0  0  0
    5.1584   -3.1511   44.6069 C   0  0  0  0  0  0  0  0  0  0  0  0
    6.6094   -0.7911   44.3696 N   0  0  0  0  0  0  0  0  0  0  0  0
    4.4744   -4.3270   44.8472 C   0  0  0  0  0  0  0  0  0  0  0  0
    6.9275   -1.8713   45.2437 C   0  0  0  0  0  0  0  0  0  0  0  0
    8.2702   -1.7750   45.8768 C   0  0  0  0  0  0  0  0  0  0  0  0
    0.9365   -0.0867   41.7346 O   0  0  0  0  0  0  0  0  0  0  0  0
    6.2322   -3.0484   45.3118 C   0  0  0  0  0  0  0  0  0  0  0  0
    6.7747   -4.0433   46.1202 N   0  0  0  0  0  0  0  0  0  0  0  0
    1.2161   -2.2739   41.2518 N   0  0  0  0  0  0  0  0  0  0  0  0
    9.0373   -0.5649   45.9132 O   0  0  0  0  0  0  0  0  0  0  0  0
    3.8907   -5.0906   43.9511 O   0  0  0  0  0  0  0  0  0  0  0  0
    4.3454   -4.8388   46.1621 N   0  0  0  0  0  0  0  0  0  0  0  0
    3.4531   -5.8952   46.4159 C   0  0  0  0  0  0  0  0  0  0  0  0
    8.6904   -2.8983   46.6073 N   0  0  0  0  0  0  0  0  0  0  0  0
    7.9257   -3.9393   46.7384 C   0  0  0  0  0  0  0  0  0  0  0  0
    8.4765   -4.8975   47.5307 O   0  0  0  0  0  0  0  0  0  0  0  0
   10.0100   -2.6771   47.3464 C   0  0  0  0  0  0  0  0  0  0  0  0
   10.0326   -1.8380   48.3764 C   0  0  0  0  0  0  0  0  0  0  0  0
   11.1123   -3.0851   46.6870 C   0  0  0  0  0  0  0  0  0  0  0  0
   11.1072   -3.8213   45.4597 C   0  0  0  0  0  0  0  0  0  0  0  0
   11.0296   -5.0092   45.4509 C   0  0  0  0  0  0  0  0  0  0  0  0
   12.3326   -2.5048   47.0028 C   0  0  0  0  0  0  0  0  0  0  0  0
   11.2651   -1.5297   48.9347 C   0  0  0  0  0  0  0  0  0  0  0  0
   12.4845   -1.9021   48.2021 C   0  0  0  0  0  0  0  0  0  0  0  0
  1  2  2  0
  2  3  1  0
  1  4  1  0
  4  5  2  0
  2  6  1  0
  3  7  2  0
  5  7  1  0
  7  8  1  0
  5  9  1  0
  8 10  1  0
  9 11  2  0
 11 12  1  0
  6 13  2  0
  8 14  2  0
 11 14  1  0
 14 15  1  0
  6 16  1  0
 12 17  2  0
 10 18  2  0
 10 19  1  0
 19 20  1  0
 12 21  1  0
 15 22  1  0
 21 22  1  0
 22 23  2  0
 21 24  1  0
 24 25  2  0
 24 26  1  0
 26 27  1  0
 27 28  2  0
 26 29  2  0
 25 30  1  0
 29 31  1  0
 30 31  2  0
M  END
$$$$
O14757_Pocket2Mol_idx-in-all-generaetd-358
     RDKit          3D

 28 32  0  0  0  0  0  0  0  0999 V2000
    5.3420    0.2589   42.8836 N   0  0  0  0  0  0  0  0  0  0  0  0
    5.6740   -0.8311   43.5645 C   0  0  0  0  0  0  0  0  0  0  0  0
    4.8288   -1.8236   43.8416 C   0  0  0  0  0  0  0  0  0  0  0  0
    3.6296   -1.5812   43.1756 C   0  0  0  0  0  0  0  0  0  0  0  0
    5.0882   -3.0359   44.6381 C   0  0  0  0  0  0  0  0  0  0  0  0
    6.1485   -2.9700   45.5258 C   0  0  0  0  0  0  0  0  0  0  0  0
    4.2991   -4.0949   44.5899 C   0  0  0  0  0  0  0  0  0  0  0  0
    2.3915   -2.2145   43.0037 C   0  0  0  0  0  0  0  0  0  0  0  0
    3.1185   -4.3300   43.8771 C   0  0  0  0  0  0  0  0  0  0  0  0
    2.6120   -5.5925   44.1861 O   0  0  0  0  0  0  0  0  0  0  0  0
    3.9103   -0.2359   42.6290 C   0  0  0  0  0  0  0  0  0  0  0  0
    2.2344   -3.4540   43.3650 N   0  0  0  0  0  0  0  0  0  0  0  0
    0.8119   -3.8495   43.1300 C   0  0  0  0  0  0  0  0  0  0  0  0
    3.0472    0.4463   41.9449 N   0  0  0  0  0  0  0  0  0  0  0  0
    1.5343   -1.5152   42.1136 C   0  0  0  0  0  0  0  0  0  0  0  0
    7.2580   -2.1553   45.5496 C   0  0  0  0  0  0  0  0  0  0  0  0
    8.2843   -2.2373   46.5265 C   0  0  0  0  0  0  0  0  0  0  0  0
    9.4356   -1.2990   46.5400 C   0  0  0  0  0  0  0  0  0  0  0  0
   10.4651   -1.7166   45.9135 O   0  0  0  0  0  0  0  0  0  0  0  0
    1.9573   -0.0992   41.7221 C   0  0  0  0  0  0  0  0  0  0  0  0
    0.3498   -3.1327   42.0399 C   0  0  0  0  0  0  0  0  0  0  0  0
   11.6169   -1.9467   46.5690 C   0  0  0  0  0  0  0  0  0  0  0  0
    0.2891   -2.0396   41.9196 N   0  0  0  0  0  0  0  0  0  0  0  0
    5.9605   -3.9315   46.6115 C   0  0  0  0  0  0  0  0  0  0  0  0
    6.9975   -3.9738   47.5941 C   0  0  0  0  0  0  0  0  0  0  0  0
    8.0908   -3.1218   47.6236 C   0  0  0  0  0  0  0  0  0  0  0  0
   11.6200   -2.6357   47.5124 O   0  0  0  0  0  0  0  0  0  0  0  0
   12.7380   -1.4568   45.9349 O   0  0  0  0  0  0  0  0  0  0  0  0
  1  2  2  0
  2  3  1  0
  3  4  2  0
  3  5  1  0
  5  6  1  0
  5  7  2  0
  4  8  1  0
  7  9  1  0
  9 10  2  0
  1 11  1  0
  4 11  1  0
  8 12  1  0
  9 12  1  0
 12 13  1  0
 11 14  2  0
  8 15  2  0
  6 16  2  0
 16 17  1  0
 17 18  1  0
 18 19  1  0
 14 20  1  0
 15 20  1  0
 13 21  1  0
 19 22  1  0
 15 23  1  0
 21 23  1  0
  6 24  1  0
 24 25  2  0
 17 26  2  0
 25 26  1  0
 22 27  1  0
 22 28  2  0
M  END
$$$$
O14757_Pocket2Mol_idx-in-all-generaetd-359
     RDKit          3D

 45 53  0  0  0  0  0  0  0  0999 V2000
    1.5482   -0.3111   41.9233 C   0  0  0  0  0  0  0  0  0  0  0  0
    2.7284    0.2018   42.1525 N   0  0  0  0  0  0  0  0  0  0  0  0
    3.7893   -0.3016   42.7005 C   0  0  0  0  0  0  0  0  0  0  0  0
    3.3781   -1.7350   43.0000 C   0  0  0  0  0  0  0  0  0  0  0  0
    2.0339   -1.9619   42.6217 C   0  0  0  0  0  0  0  0  0  0  0  0
    5.0090    0.1219   42.9340 N   0  0  0  0  0  0  0  0  0  0  0  0
    4.2895   -2.4979   43.6707 C   0  0  0  0  0  0  0  0  0  0  0  0
    5.8391   -0.6675   43.6343 C   0  0  0  0  0  0  0  0  0  0  0  0
    6.9849   -0.2377   44.0028 N   0  0  0  0  0  0  0  0  0  0  0  0
    4.0426   -3.8794   44.0832 C   0  0  0  0  0  0  0  0  0  0  0  0
    7.6796   -0.8734   44.9326 C   0  0  0  0  0  0  0  0  0  0  0  0
    1.1064   -2.9576   42.4211 C   0  0  0  0  0  0  0  0  0  0  0  0
    5.5298   -1.9496   44.0315 C   0  0  0  0  0  0  0  0  0  0  0  0
    3.8954   -4.1817   45.4718 C   0  0  0  0  0  0  0  0  0  0  0  0
    0.6765   -3.5480   43.4006 C   0  0  1  0  0  0  0  0  0  0  0  0
    0.5804   -3.2191   41.1635 C   0  0  0  0  0  0  0  0  0  0  0  0
    2.8083   -4.8227   45.9203 N   0  0  0  0  0  0  0  0  0  0  0  0
   -0.1574   -4.5754   42.9329 N   0  0  0  0  0  0  0  0  0  0  0  0
    6.5271   -2.5531   44.9677 C   0  0  0  0  0  0  0  0  0  0  0  0
   -0.2272   -4.3703   41.5137 C   0  0  0  0  0  0  0  0  0  0  0  0
    7.5095   -2.0029   45.3993 C   0  0  0  0  0  0  0  0  0  0  0  0
    8.2550   -2.6982   46.3988 C   0  0  0  0  0  0  0  0  0  0  0  0
    8.8975   -0.3029   45.3267 O   0  0  0  0  0  0  0  0  0  0  0  0
    4.8299   -4.4637   46.4212 C   0  0  0  0  0  0  0  0  0  0  0  0
    4.2707   -4.9248   47.6295 N   0  0  0  0  0  0  0  0  0  0  0  0
    3.2045   -5.2092   47.1521 C   0  0  0  0  0  0  0  0  0  0  0  0
    1.4482   -4.6186   45.4134 C   0  0  1  0  0  0  0  0  0  0  0  0
    1.2398   -3.5043   44.6236 O   0  0  0  0  0  0  0  0  0  0  0  0
    6.3317   -3.9297   46.0870 C   0  0  2  0  0  0  0  0  0  0  0  0
    9.5296   -2.5449   46.9776 C   0  0  0  0  0  0  0  0  0  0  0  0
    9.7921   -1.7530   47.9018 O   0  0  0  0  0  0  0  0  0  0  0  0
    7.3972   -3.8130   46.7939 C   0  0  0  0  0  0  0  0  0  0  0  0
    1.2392   -5.7793   44.5610 C   0  0  0  0  0  0  0  0  0  0  0  0
   10.4982   -3.2564   46.4837 N   0  0  0  0  0  0  0  0  0  0  0  0
   10.3664   -4.3024   45.6489 C   0  0  0  0  0  0  0  0  0  0  0  0
   11.8563   -2.7253   46.7001 C   0  0  0  0  0  0  0  0  0  0  0  0
   12.5920   -2.4093   45.4967 C   0  0  0  0  0  0  0  0  0  0  0  0
   10.3017   -5.6302   46.4426 C   0  0  0  0  0  0  0  0  0  0  0  0
   13.9027   -1.9790   45.6656 C   0  0  0  0  0  0  0  0  0  0  0  0
   12.3588   -2.5019   47.9049 C   0  0  0  0  0  0  0  0  0  0  0  0
   13.7593   -2.0773   47.8895 C   0  0  0  0  0  0  0  0  0  0  0  0
   14.3722   -1.8767   49.2720 C   0  0  0  0  0  0  0  0  0  0  0  0
   14.6857   -1.7025   44.3934 O   0  0  0  0  0  0  0  0  0  0  0  0
   14.1475   -0.7596   43.5316 C   0  0  0  0  0  0  0  0  0  0  0  0
   14.4696   -1.7815   46.8591 C   0  0  0  0  0  0  0  0  0  0  0  0
  1  2  1  0
  2  3  2  0
  3  4  1  0
  1  5  2  0
  4  5  1  0
  3  6  1  0
  4  7  2  0
  6  8  1  0
  8  9  1  0
  7 10  1  0
  9 11  1  0
  5 12  1  0
  7 13  1  0
  8 13  2  0
 10 14  1  0
 12 15  1  0
 12 16  2  0
 14 17  1  0
 15 18  1  0
 13 19  1  0
 16 20  1  0
 18 20  2  0
 11 21  1  0
 19 21  2  0
 21 22  1  0
 11 23  2  0
 14 24  2  0
 24 25  1  0
 17 26  1  0
 25 26  2  0
 17 27  1  0
 15 28  1  6
 27 28  1  0
 19 29  1  0
 24 29  1  0
 22 30  1  0
 30 31  2  0
 22 32  2  0
 29 32  1  1
 27 33  1  6
 30 34  1  0
 34 35  1  0
 34 36  1  0
 36 37  2  0
 35 38  1  0
 37 39  1  0
 36 40  1  0
 40 41  2  0
 41 42  1  0
 39 43  1  0
 43 44  1  0
 39 45  2  0
 41 45  1  0
M  END
$$$$
O14757_Pocket2Mol_idx-in-all-generaetd-360
     RDKit          3D

 36 42  0  0  0  0  0  0  0  0999 V2000
    4.8037   -0.1366   42.7100 N   0  0  0  0  0  0  0  0  0  0  0  0
    3.6577   -0.7759   42.7186 C   0  0  0  0  0  0  0  0  0  0  0  0
    3.6660   -1.8665   43.4760 C   0  0  0  0  0  0  0  0  0  0  0  0
    2.7271   -2.8718   43.6599 C   0  0  0  0  0  0  0  0  0  0  0  0
    2.4846   -0.2994   42.1254 N   0  0  0  0  0  0  0  0  0  0  0  0
    5.0524   -1.7697   43.9367 C   0  0  0  0  0  0  0  0  0  0  0  0
    1.4917   -2.9000   43.0914 C   0  0  0  0  0  0  0  0  0  0  0  0
    3.1274   -3.9503   44.5163 C   0  0  0  0  0  0  0  0  0  0  0  0
    1.0744   -1.9066   42.1491 C   0  0  2  0  0  0  0  0  0  0  0  0
    5.6624   -0.7003   43.4895 C   0  0  0  0  0  0  0  0  0  0  0  0
    5.5753   -2.5784   45.0324 C   0  0  0  0  0  0  0  0  0  0  0  0
    0.4030   -3.6297   43.4883 N   0  0  0  0  0  0  0  0  0  0  0  0
    1.5052   -0.8077   41.7519 C   0  0  0  0  0  0  0  0  0  0  0  0
   -0.5645   -3.4039   42.5585 N   0  0  0  0  0  0  0  0  0  0  0  0
    2.5059   -5.1012   44.7935 C   0  0  0  0  0  0  0  0  0  0  0  0
    4.4581   -3.8218   45.2947 C   0  0  0  0  0  0  0  0  0  0  0  0
   -0.3089   -2.3979   41.8128 C   0  0  0  0  0  0  0  0  0  0  0  0
    6.6435   -2.6577   45.6991 C   0  0  0  0  0  0  0  0  0  0  0  0
    7.0869   -3.7008   46.4717 C   0  0  0  0  0  0  0  0  0  0  0  0
    7.5912   -1.5296   45.5455 C   0  0  0  0  0  0  0  0  0  0  0  0
    8.7765   -1.4352   46.2248 C   0  0  0  0  0  0  0  0  0  0  0  0
    6.3069   -4.7944   46.6836 O   0  0  0  0  0  0  0  0  0  0  0  0
    4.8984   -4.5252   46.1302 C   0  0  0  0  0  0  0  0  0  0  0  0
    4.2122   -5.9932   46.2216 C   0  0  0  0  0  0  0  0  0  0  0  0
    8.3395   -3.6608   47.2172 C   0  0  0  0  0  0  0  0  0  0  0  0
    4.6690   -6.8778   47.1549 O   0  0  0  0  0  0  0  0  0  0  0  0
    9.1822   -2.5745   47.1243 C   0  0  0  0  0  0  0  0  0  0  0  0
    2.9603   -6.0414   45.6688 C   0  0  0  0  0  0  0  0  0  0  0  0
   10.4349   -2.3996   47.8362 C   0  0  0  0  0  0  0  0  0  0  0  0
   10.5770   -1.5405   48.6790 O   0  0  0  0  0  0  0  0  0  0  0  0
   11.4736   -2.9717   47.2121 O   0  0  0  0  0  0  0  0  0  0  0  0
   12.5933   -2.4739   47.2623 C   0  0  0  0  0  0  0  0  0  0  0  0
   13.5953   -3.3472   47.6421 C   0  0  0  0  0  0  0  0  0  0  0  0
   13.5116   -4.5719   47.3764 C   0  0  0  0  0  0  0  0  0  0  0  0
   13.2270   -5.0382   46.2883 O   0  0  0  0  0  0  0  0  0  0  0  0
   14.3351   -5.5830   48.0254 O   0  0  0  0  0  0  0  0  0  0  0  0
  1  2  2  0
  2  3  1  0
  3  4  2  0
  2  5  1  0
  3  6  1  0
  4  7  1  0
  4  8  1  0
  7  9  1  0
  1 10  1  0
  6 10  1  0
  6 11  2  0
  7 12  2  0
  5 13  2  0
  9 13  1  1
 12 14  1  0
  8 15  2  0
  8 16  1  0
 11 16  1  0
  9 17  1  0
 14 17  2  0
 11 18  1  0
 18 19  2  0
 18 20  1  0
 20 21  2  0
 19 22  1  0
 16 23  2  0
 22 23  1  0
 23 24  1  0
 19 25  1  0
 24 26  1  0
 21 27  1  0
 25 27  2  0
 15 28  1  0
 24 28  2  0
 27 29  1  0
 29 30  2  0
 29 31  1  0
 31 32  1  0
 32 33  1  0
 33 34  1  0
 34 35  2  0
 34 36  1  0
M  END
$$$$
O14757_Pocket2Mol_idx-in-all-generaetd-361
     RDKit          3D

 41 47  0  0  0  0  0  0  0  0999 V2000
    1.5482   -0.3111   41.9233 C   0  0  0  0  0  0  0  0  0  0  0  0
    2.7284    0.2018   42.1525 N   0  0  0  0  0  0  0  0  0  0  0  0
    3.7893   -0.3016   42.7005 C   0  0  0  0  0  0  0  0  0  0  0  0
    3.3781   -1.7350   43.0000 C   0  0  0  0  0  0  0  0  0  0  0  0
    2.0339   -1.9619   42.6217 C   0  0  0  0  0  0  0  0  0  0  0  0
    4.1166   -2.4997   43.8458 C   0  0  0  0  0  0  0  0  0  0  0  0
    1.1731   -3.0051   42.5773 C   0  0  0  0  0  0  0  0  0  0  0  0
    0.4701   -3.2344   41.4901 C   0  0  0  0  0  0  0  0  0  0  0  0
    5.3799   -1.7814   44.2691 C   0  0  0  0  0  0  0  0  0  0  0  0
    5.0159   -0.0180   43.1201 N   0  0  0  0  0  0  0  0  0  0  0  0
    5.7693   -0.6937   43.8418 C   0  0  0  0  0  0  0  0  0  0  0  0
    0.8078   -3.6166   43.6782 C   0  0  0  0  0  0  0  0  0  0  0  0
    0.0663   -4.7011   43.7415 N   0  0  0  0  0  0  0  0  0  0  0  0
    6.2223   -2.6843   45.1565 C   0  0  0  0  0  0  0  0  0  0  0  0
    1.4459   -3.3095   45.0236 O   0  0  0  0  0  0  0  0  0  0  0  0
   -0.5278   -5.1074   42.5506 C   0  0  0  0  0  0  0  0  0  0  0  0
   -1.3099   -6.2193   42.5332 N   0  0  0  0  0  0  0  0  0  0  0  0
   -0.3906   -4.3573   41.3904 C   0  0  0  0  0  0  0  0  0  0  0  0
    7.0535   -0.4845   44.4478 N   0  0  0  0  0  0  0  0  0  0  0  0
    0.6210   -3.8397   46.1835 C   0  0  0  0  0  0  0  0  0  0  0  0
    6.2906   -3.7888   45.8815 C   0  0  0  0  0  0  0  0  0  0  0  0
    7.3965   -1.5466   45.3147 C   0  0  0  0  0  0  0  0  0  0  0  0
    5.1449   -4.4973   46.0473 O   0  0  0  0  0  0  0  0  0  0  0  0
    7.4148   -4.1081   46.6372 C   0  0  0  0  0  0  0  0  0  0  0  0
    8.5011   -3.1747   46.6693 C   0  0  0  0  0  0  0  0  0  0  0  0
    8.4580   -1.9168   46.0438 C   0  0  0  0  0  0  0  0  0  0  0  0
    9.8193   -3.4927   47.5654 C   0  0  1  0  0  0  0  0  0  0  0  0
    4.3482   -4.5667   47.1383 C   0  0  0  0  0  0  0  0  0  0  0  0
   10.8925   -3.4519   46.9633 C   0  0  0  0  0  0  0  0  0  0  0  0
   11.7691   -2.4393   47.2298 N   0  0  0  0  0  0  0  0  0  0  0  0
   11.5679   -1.6048   48.2682 C   0  0  0  0  0  0  0  0  0  0  0  0
   13.2337   -2.7224   46.9899 C   0  0  0  0  0  0  0  0  0  0  0  0
   11.1468   -4.1806   45.9346 O   0  0  0  0  0  0  0  0  0  0  0  0
   14.0674   -3.2434   47.7193 C   0  0  0  0  0  0  0  0  0  0  0  0
   13.7337   -3.8357   48.9955 C   0  0  0  0  0  0  0  0  0  0  0  0
   10.6978   -1.8484   49.2819 O   0  0  0  0  0  0  0  0  0  0  0  0
   15.4145   -3.0897   47.4674 C   0  0  0  0  0  0  0  0  0  0  0  0
    9.6185   -2.3722   48.7838 C   0  0  0  0  0  0  0  0  0  0  0  0
   13.6236   -2.2426   45.6742 C   0  0  0  0  0  0  0  0  0  0  0  0
   15.7314   -2.7029   46.4178 C   0  0  0  0  0  0  0  0  0  0  0  0
   14.8538   -2.1814   45.4025 N   0  0  0  0  0  0  0  0  0  0  0  0
  1  2  1  0
  2  3  2  0
  3  4  1  0
  1  5  2  0
  4  5  1  0
  4  6  2  0
  5  7  1  0
  7  8  2  0
  6  9  1  0
  3 10  1  0
  9 11  1  0
 10 11  1  0
  7 12  1  0
 12 13  2  0
  9 14  2  0
 12 15  1  0
 13 16  1  0
 16 17  1  0
  8 18  1  0
 16 18  2  0
 11 19  2  0
 15 20  1  0
 14 21  1  0
 14 22  1  0
 19 22  1  0
 21 23  1  0
 21 24  2  0
 24 25  1  0
 22 26  2  0
 25 26  2  0
 27 25  1  6
 23 28  1  0
 27 29  1  0
 29 30  1  0
 30 31  1  0
 30 32  1  0
 29 33  2  0
 32 34  2  0
 34 35  1  0
 31 36  1  0
 34 37  1  0
 27 38  1  0
 36 38  1  0
 32 39  1  0
 37 40  2  0
 39 41  2  0
 40 41  1  0
M  END
$$$$
O14757_Pocket2Mol_idx-in-all-generaetd-362
     RDKit          3D

 37 44  0  0  0  0  0  0  0  0999 V2000
    4.8173    0.2791   42.6993 N   0  0  0  0  0  0  0  0  0  0  0  0
    5.3297   -0.7477   43.3688 C   0  0  0  0  0  0  0  0  0  0  0  0
    3.4732   -0.2235   42.4530 C   0  0  0  0  0  0  0  0  0  0  0  0
    4.4984   -1.7876   43.6214 C   0  0  0  0  0  0  0  0  0  0  0  0
    3.3438   -1.5190   42.9379 C   0  0  0  0  0  0  0  0  0  0  0  0
    2.1381   -2.3401   42.8254 C   0  0  0  0  0  0  0  0  0  0  0  0
    2.3894    0.3572   41.9843 N   0  0  0  0  0  0  0  0  0  0  0  0
    4.9180   -3.0430   44.3829 C   0  0  0  0  0  0  0  0  0  0  0  0
    5.9444   -2.9314   45.3934 C   0  0  0  0  0  0  0  0  0  0  0  0
    4.2808   -4.1329   44.3252 C   0  0  0  0  0  0  0  0  0  0  0  0
    3.1588   -4.4221   43.4852 O   0  0  0  0  0  0  0  0  0  0  0  0
    4.5704   -5.2518   45.1995 C   0  0  0  0  0  0  0  0  0  0  0  0
    1.9853   -3.6792   43.3495 C   0  0  0  0  0  0  0  0  0  0  0  0
    0.9181   -4.3294   43.4638 C   0  0  0  0  0  0  0  0  0  0  0  0
    6.7403   -1.6226   45.5272 C   0  0  2  0  0  0  0  0  0  0  0  0
    0.9752   -1.7845   42.3366 C   0  0  0  0  0  0  0  0  0  0  0  0
    6.2516   -3.7287   46.2722 C   0  0  0  0  0  0  0  0  0  0  0  0
   -0.2404   -2.4179   42.2529 C   0  0  0  0  0  0  0  0  0  0  0  0
   -1.3835   -1.8904   41.6559 N   0  0  0  0  0  0  0  0  0  0  0  0
    3.8706   -6.4216   45.1394 O   0  0  0  0  0  0  0  0  0  0  0  0
    0.9456   -0.2789   41.7649 C   0  0  0  0  0  0  0  0  0  0  0  0
   -0.2678   -3.6969   42.7575 C   0  0  0  0  0  0  0  0  0  0  0  0
    6.3913   -0.7000   44.3807 N   0  0  0  0  0  0  0  0  0  0  0  0
    7.9391   -1.5867   46.0069 C   0  0  0  0  0  0  0  0  0  0  0  0
    8.7787   -0.4879   45.9761 O   0  0  0  0  0  0  0  0  0  0  0  0
    5.3853   -5.1216   46.3780 C   0  0  0  0  0  0  0  0  0  0  0  0
    8.4504   -2.7517   46.6262 N   0  0  0  0  0  0  0  0  0  0  0  0
    7.4807   -3.7374   47.0380 C   0  0  0  0  0  0  0  0  0  0  0  0
    9.7442   -2.7944   46.9091 C   0  0  0  0  0  0  0  0  0  0  0  0
   10.5425   -3.4426   45.9689 C   0  0  0  0  0  0  0  0  0  0  0  0
   10.3017   -2.2524   47.9671 C   0  0  0  0  0  0  0  0  0  0  0  0
    9.4843   -1.5208   48.9551 C   0  0  0  0  0  0  0  0  0  0  0  0
   11.9725   -3.4596   46.1303 C   0  0  0  0  0  0  0  0  0  0  0  0
   11.7296   -2.3286   48.1612 C   0  0  0  0  0  0  0  0  0  0  0  0
   12.2963   -1.7544   49.3978 O   0  0  0  0  0  0  0  0  0  0  0  0
   12.5489   -2.8777   47.2944 C   0  0  0  0  0  0  0  0  0  0  0  0
   13.0855   -0.8224   49.4537 C   0  0  0  0  0  0  0  0  0  0  0  0
  1  2  2  0
  1  3  1  0
  2  4  1  0
  3  5  1  0
  4  5  2  0
  5  6  1  0
  3  7  2  0
  4  8  1  0
  8  9  1  0
  8 10  2  0
 10 11  1  0
 10 12  1  0
  6 13  1  0
 11 13  1  0
 13 14  2  0
  9 15  1  0
  6 16  2  0
  9 17  2  0
 16 18  1  0
 18 19  1  0
 12 20  1  0
  7 21  1  0
 16 21  1  0
 14 22  1  0
 18 22  2  0
  2 23  1  0
 15 23  1  6
 15 24  1  0
 24 25  2  0
 12 26  2  0
 17 26  1  0
 24 27  1  0
 17 28  1  0
 27 28  1  0
 27 29  1  0
 29 30  2  0
 29 31  1  0
 31 32  1  0
 30 33  1  0
 31 34  2  0
 34 35  1  0
 33 36  2  0
 34 36  1  0
 35 37  1  0
M  END
$$$$
O14757_Pocket2Mol_idx-in-all-generaetd-363
     RDKit          3D

 31 36  0  0  0  0  0  0  0  0999 V2000
    5.3420    0.2589   42.8836 O   0  0  0  0  0  0  0  0  0  0  0  0
    5.1627   -0.7554   43.4753 C   0  0  0  0  0  0  0  0  0  0  0  0
    4.0509   -1.4657   43.4177 N   0  0  0  0  0  0  0  0  0  0  0  0
    5.9969   -1.2317   44.6840 C   0  0  0  0  0  0  0  0  0  0  0  0
    2.9618   -1.1021   42.5918 C   0  0  0  0  0  0  0  0  0  0  0  0
    7.3392   -0.8596   44.8412 C   0  0  0  0  0  0  0  0  0  0  0  0
    1.9754   -2.0820   42.2741 C   0  0  0  0  0  0  0  0  0  0  0  0
    5.5910   -2.4282   45.3439 C   0  0  0  0  0  0  0  0  0  0  0  0
    6.5874   -2.9636   46.1581 C   0  0  0  0  0  0  0  0  0  0  0  0
    4.2763   -3.0680   45.0493 N   0  0  0  0  0  0  0  0  0  0  0  0
    3.6188   -2.5886   44.2024 C   0  0  0  0  0  0  0  0  0  0  0  0
    8.1921   -1.4071   45.7505 C   0  0  0  0  0  0  0  0  0  0  0  0
    1.0154   -1.8839   41.2980 C   0  0  0  0  0  0  0  0  0  0  0  0
    2.5720   -3.3564   43.9063 C   0  0  0  0  0  0  0  0  0  0  0  0
    0.2502   -2.8976   41.0751 C   0  0  0  0  0  0  0  0  0  0  0  0
    0.2230   -3.9124   42.0516 C   0  0  0  0  0  0  0  0  0  0  0  0
    2.2879   -4.6260   44.7113 N   0  0  0  0  0  0  0  0  0  0  0  0
    1.7585   -3.1585   42.9749 N   0  0  0  0  0  0  0  0  0  0  0  0
    7.7776   -2.5440   46.4766 C   0  0  0  0  0  0  0  0  0  0  0  0
    0.8620   -4.0153   42.9214 C   0  0  0  0  0  0  0  0  0  0  0  0
    2.9942   -0.0014   41.9856 O   0  0  0  0  0  0  0  0  0  0  0  0
    8.6110   -3.0684   47.3244 O   0  0  0  0  0  0  0  0  0  0  0  0
    9.7976   -3.4246   46.8484 C   0  0  2  0  0  0  0  0  0  0  0  0
    1.0964   -4.9712   43.9641 C   0  0  0  0  0  0  0  0  0  0  0  0
   10.0722   -4.6814   46.7411 C   0  0  0  0  0  0  0  0  0  0  0  0
   10.8818   -2.6768   47.6438 C   0  0  2  0  0  0  0  0  0  0  0  0
   11.4386   -5.0078   46.3781 C   0  0  0  0  0  0  0  0  0  0  0  0
   10.6461   -1.2441   47.8324 O   0  0  0  0  0  0  0  0  0  0  0  0
   12.4454   -4.4319   47.1677 C   0  0  1  0  0  0  0  0  0  0  0  0
   13.7709   -4.8154   46.7157 O   0  0  0  0  0  0  0  0  0  0  0  0
   12.3103   -2.7667   46.8874 C   0  0  0  0  0  0  0  0  0  0  0  0
  1  2  2  0
  2  3  1  0
  2  4  1  0
  3  5  1  0
  4  6  2  0
  5  7  1  0
  4  8  1  0
  8  9  2  0
  8 10  1  0
  3 11  1  0
 10 11  2  0
  6 12  1  0
  7 13  2  0
 11 14  1  0
 13 15  1  0
 15 16  2  0
 14 17  2  0
  7 18  1  0
 14 18  1  0
  9 19  1  0
 12 19  2  0
 16 20  1  0
 18 20  1  0
  5 21  2  0
 19 22  1  0
 23 22  1  1
 17 24  1  0
 20 24  2  0
 23 25  1  0
 23 26  1  0
 25 27  1  0
 26 28  1  6
 27 29  1  0
 29 30  1  6
 26 31  1  0
 29 31  1  0
M  END
$$$$
O14757_Pocket2Mol_idx-in-all-generaetd-364
     RDKit          3D

 47 54  0  0  0  0  0  0  0  0999 V2000
    5.3420    0.2589   42.8836 O   0  0  0  0  0  0  0  0  0  0  0  0
    5.1627   -0.7554   43.4753 C   0  0  0  0  0  0  0  0  0  0  0  0
    4.0509   -1.4657   43.4177 N   0  0  0  0  0  0  0  0  0  0  0  0
    5.9969   -1.2317   44.6840 C   0  0  0  0  0  0  0  0  0  0  0  0
    2.9618   -1.1021   42.5918 C   0  0  1  0  0  0  0  0  0  0  0  0
    7.3392   -0.8596   44.8412 C   0  0  0  0  0  0  0  0  0  0  0  0
    1.9754   -2.0820   42.2741 C   0  0  0  0  0  0  0  0  0  0  0  0
    5.5910   -2.4282   45.3439 C   0  0  0  0  0  0  0  0  0  0  0  0
    6.5874   -2.9636   46.1581 C   0  0  0  0  0  0  0  0  0  0  0  0
    4.2763   -3.0680   45.0493 N   0  0  0  0  0  0  0  0  0  0  0  0
    3.6188   -2.5886   44.2024 C   0  0  0  0  0  0  0  0  0  0  0  0
    8.1921   -1.4071   45.7505 C   0  0  0  0  0  0  0  0  0  0  0  0
    1.0154   -1.8839   41.2980 C   0  0  0  0  0  0  0  0  0  0  0  0
    2.5720   -3.3564   43.9063 C   0  0  0  0  0  0  0  0  0  0  0  0
    0.2502   -2.8976   41.0751 C   0  0  0  0  0  0  0  0  0  0  0  0
    6.1761   -4.1775   47.0209 C   0  0  0  0  0  0  0  0  0  0  0  0
    1.7266   -3.1047   43.0115 C   0  0  2  0  0  0  0  0  0  0  0  0
    2.3696   -4.5367   44.7536 N   0  0  0  0  0  0  0  0  0  0  0  0
    1.2264   -5.2346   44.4693 C   0  0  0  0  0  0  0  0  0  0  0  0
    0.7187   -3.8955   42.5465 C   0  0  0  0  0  0  0  0  0  0  0  0
    9.4576   -0.8949   46.0327 N   0  0  0  0  0  0  0  0  0  0  0  0
    0.8625   -6.3901   45.2462 C   0  0  0  0  0  0  0  0  0  0  0  0
    7.6467   -2.5139   46.4892 C   0  0  0  0  0  0  0  0  0  0  0  0
   10.4908   -1.5336   45.8242 C   0  0  0  0  0  0  0  0  0  0  0  0
    0.3057   -4.9299   43.2909 C   0  0  0  0  0  0  0  0  0  0  0  0
   11.5916   -1.4291   46.7436 C   0  0  0  0  0  0  0  0  0  0  0  0
   10.5566   -2.3672   44.8649 O   0  0  0  0  0  0  0  0  0  0  0  0
    2.4730    0.2084   42.8389 O   0  0  0  0  0  0  0  0  0  0  0  0
   11.6027   -2.2081   47.7725 N   0  0  0  0  0  0  0  0  0  0  0  0
   12.6189   -0.5862   46.5415 C   0  0  0  0  0  0  0  0  0  0  0  0
   13.6413   -0.4484   47.4129 C   0  0  0  0  0  0  0  0  0  0  0  0
   10.4764   -3.1097   48.1134 C   0  0  0  0  0  0  0  0  0  0  0  0
    9.5762   -2.4717   49.0753 C   0  0  0  0  0  0  0  0  0  0  0  0
    9.7761   -1.2394   49.5167 C   0  0  0  0  0  0  0  0  0  0  0  0
    8.6397   -3.3252   49.7339 C   0  0  0  0  0  0  0  0  0  0  0  0
    8.9861   -0.7034   50.5819 C   0  0  0  0  0  0  0  0  0  0  0  0
   14.7137    0.5128   47.0925 C   0  0  0  0  0  0  0  0  0  0  0  0
    8.1815   -1.5423   51.2387 C   0  0  0  0  0  0  0  0  0  0  0  0
    8.4156   -4.7176   49.2102 O   0  0  0  0  0  0  0  0  0  0  0  0
   13.6915   -1.2597   48.4795 C   0  0  0  0  0  0  0  0  0  0  0  0
   14.7842   -1.1839   49.3622 C   0  0  0  0  0  0  0  0  0  0  0  0
   12.5774   -2.1710   48.6835 C   0  0  0  0  0  0  0  0  0  0  0  0
    7.9848   -2.9066   50.8049 C   0  0  0  0  0  0  0  0  0  0  0  0
   15.8048   -0.2210   49.1389 C   0  0  0  0  0  0  0  0  0  0  0  0
   16.9217   -0.0644   50.0099 O   0  0  0  0  0  0  0  0  0  0  0  0
   15.7311    0.6187   48.0063 C   0  0  0  0  0  0  0  0  0  0  0  0
    8.0506   -5.6013   49.9523 C   0  0  0  0  0  0  0  0  0  0  0  0
  1  2  2  0
  2  3  1  0
  2  4  1  0
  3  5  1  0
  4  6  2  0
  5  7  1  0
  4  8  1  0
  8  9  2  0
  8 10  1  0
  3 11  1  0
 10 11  2  0
  6 12  1  0
  7 13  2  0
 11 14  1  0
 13 15  1  0
  9 16  1  0
 17  7  1  6
 14 17  1  0
 14 18  2  0
 18 19  1  0
 15 20  2  0
 17 20  1  0
 12 21  1  0
 19 22  1  0
  9 23  1  0
 12 23  2  0
 21 24  1  0
 19 25  2  0
 20 25  1  0
 24 26  1  0
 24 27  2  0
  5 28  1  1
 26 29  1  0
 26 30  2  0
 30 31  1  0
 29 32  1  0
 32 33  1  0
 33 34  2  0
 33 35  1  0
 34 36  1  0
 31 37  2  0
 36 38  2  0
 35 39  1  0
 31 40  1  0
 40 41  2  0
 29 42  1  0
 40 42  1  0
 35 43  2  0
 38 43  1  0
 41 44  1  0
 44 45  1  0
 37 46  1  0
 44 46  2  0
 39 47  1  0
M  END
$$$$
O14757_Pocket2Mol_idx-in-all-generaetd-365
     RDKit          3D

 23 27  0  0  0  0  0  0  0  0999 V2000
    3.7044    0.1389   42.5158 N   0  0  0  0  0  0  0  0  0  0  0  0
    3.0206   -1.0018   42.4929 C   0  0  0  0  0  0  0  0  0  0  0  0
    3.4791   -2.0817   43.2077 C   0  0  0  0  0  0  0  0  0  0  0  0
    4.8540    0.3862   43.0582 N   0  0  0  0  0  0  0  0  0  0  0  0
    5.1377   -0.9552   43.7144 C   0  0  0  0  0  0  0  0  0  0  0  0
    1.5846   -1.0753   41.7644 C   0  0  0  0  0  0  0  0  0  0  0  0
    2.6127   -3.2469   43.2056 C   0  0  0  0  0  0  0  0  0  0  0  0
    4.6372   -2.0125   43.8200 C   0  0  0  0  0  0  0  0  0  0  0  0
    2.9973   -4.3132   44.0699 C   0  0  0  0  0  0  0  0  0  0  0  0
    5.2490   -3.1260   44.5377 C   0  0  0  0  0  0  0  0  0  0  0  0
    2.3220   -5.3356   44.3123 O   0  0  0  0  0  0  0  0  0  0  0  0
    1.3893   -3.2604   42.5359 C   0  0  0  0  0  0  0  0  0  0  0  0
    0.9530   -2.1738   41.8390 C   0  0  0  0  0  0  0  0  0  0  0  0
    6.3785   -3.0087   45.3464 C   0  0  0  0  0  0  0  0  0  0  0  0
    4.2669   -4.1697   44.8110 C   0  0  0  0  0  0  0  0  0  0  0  0
    6.8132   -3.9057   46.1504 C   0  0  0  0  0  0  0  0  0  0  0  0
    7.9207   -3.5940   46.8627 C   0  0  0  0  0  0  0  0  0  0  0  0
    7.1196   -1.7285   45.2735 C   0  0  0  0  0  0  0  0  0  0  0  0
    8.5265   -4.7254   47.7458 O   0  0  0  0  0  0  0  0  0  0  0  0
    8.6903   -2.4585   46.6659 C   0  0  0  0  0  0  0  0  0  0  0  0
    8.2121   -1.5342   45.8736 C   0  0  0  0  0  0  0  0  0  0  0  0
    8.6433   -4.5384   48.9934 C   0  0  0  0  0  0  0  0  0  0  0  0
    6.4354   -0.6729   44.3093 N   0  0  0  0  0  0  0  0  0  0  0  0
  1  2  2  0
  2  3  1  0
  1  4  1  0
  4  5  2  0
  2  6  1  0
  3  7  1  0
  3  8  2  0
  5  8  1  0
  7  9  1  0
  8 10  1  0
  9 11  2  0
  7 12  2  0
  6 13  2  0
 12 13  1  0
 10 14  1  0
  9 15  1  0
 10 15  2  0
 14 16  1  0
 16 17  2  0
 14 18  2  0
 17 19  1  0
 17 20  1  0
 18 21  1  0
 20 21  2  0
 19 22  1  0
  5 23  1  0
 18 23  1  0
M  END
$$$$
O14757_Pocket2Mol_idx-in-all-generaetd-366
     RDKit          3D

 36 43  0  0  0  0  0  0  0  0999 V2000
    4.8173    0.2791   42.6993 N   0  0  0  0  0  0  0  0  0  0  0  0
    5.3297   -0.7477   43.3688 C   0  0  0  0  0  0  0  0  0  0  0  0
    3.4732   -0.2235   42.4530 C   0  0  0  0  0  0  0  0  0  0  0  0
    4.4984   -1.7876   43.6214 C   0  0  0  0  0  0  0  0  0  0  0  0
    3.3438   -1.5190   42.9379 C   0  0  0  0  0  0  0  0  0  0  0  0
    2.1381   -2.3401   42.8254 C   0  0  0  0  0  0  0  0  0  0  0  0
    2.3894    0.3572   41.9843 N   0  0  0  0  0  0  0  0  0  0  0  0
    4.9180   -3.0430   44.3829 C   0  0  0  0  0  0  0  0  0  0  0  0
    5.9444   -2.9314   45.3934 C   0  0  0  0  0  0  0  0  0  0  0  0
    4.2808   -4.1329   44.3252 C   0  0  0  0  0  0  0  0  0  0  0  0
    3.1588   -4.4221   43.4852 O   0  0  0  0  0  0  0  0  0  0  0  0
    4.5704   -5.2518   45.1995 C   0  0  0  0  0  0  0  0  0  0  0  0
    1.9853   -3.6792   43.3495 C   0  0  0  0  0  0  0  0  0  0  0  0
    0.9181   -4.3294   43.4638 C   0  0  0  0  0  0  0  0  0  0  0  0
    6.7403   -1.6226   45.5272 C   0  0  2  0  0  0  0  0  0  0  0  0
    0.9752   -1.7845   42.3366 C   0  0  0  0  0  0  0  0  0  0  0  0
    6.2516   -3.7287   46.2722 C   0  0  0  0  0  0  0  0  0  0  0  0
   -0.2404   -2.4179   42.2529 C   0  0  0  0  0  0  0  0  0  0  0  0
   -1.3835   -1.8904   41.6559 N   0  0  0  0  0  0  0  0  0  0  0  0
    3.8706   -6.4216   45.1394 O   0  0  0  0  0  0  0  0  0  0  0  0
    0.9456   -0.2789   41.7649 C   0  0  0  0  0  0  0  0  0  0  0  0
   -0.2678   -3.6969   42.7575 C   0  0  0  0  0  0  0  0  0  0  0  0
    6.3913   -0.7000   44.3807 N   0  0  0  0  0  0  0  0  0  0  0  0
    7.9391   -1.5867   46.0069 C   0  0  0  0  0  0  0  0  0  0  0  0
    7.1969   -3.5621   47.3287 C   0  0  0  0  0  0  0  0  0  0  0  0
    5.4958   -5.0534   46.2483 C   0  0  0  0  0  0  0  0  0  0  0  0
    7.4872   -4.5338   48.2539 O   0  0  0  0  0  0  0  0  0  0  0  0
    8.1281   -2.5304   47.0986 C   0  0  1  0  0  0  0  0  0  0  0  0
    8.7872   -0.5908   45.9403 O   0  0  0  0  0  0  0  0  0  0  0  0
    9.4892   -2.5717   47.7347 C   0  0  0  0  0  0  0  0  0  0  0  0
   10.5268   -2.9441   46.9599 C   0  0  0  0  0  0  0  0  0  0  0  0
   11.4734   -2.0640   46.5154 C   0  0  0  0  0  0  0  0  0  0  0  0
   10.2758   -3.8900   45.9928 C   0  0  0  0  0  0  0  0  0  0  0  0
   11.7067   -0.7846   47.2638 C   0  0  0  0  0  0  0  0  0  0  0  0
   11.5945   -3.9238   45.1966 O   0  0  0  0  0  0  0  0  0  0  0  0
   12.1746   -2.7350   45.6069 N   0  0  0  0  0  0  0  0  0  0  0  0
  1  2  2  0
  1  3  1  0
  2  4  1  0
  3  5  1  0
  4  5  2  0
  5  6  1  0
  3  7  2  0
  4  8  1  0
  8  9  1  0
  8 10  2  0
 10 11  1  0
 10 12  1  0
  6 13  1  0
 11 13  1  0
 13 14  2  0
  9 15  1  0
  6 16  2  0
  9 17  2  0
 16 18  1  0
 18 19  1  0
 12 20  1  0
  7 21  1  0
 16 21  1  0
 14 22  1  0
 18 22  2  0
  2 23  1  0
 15 23  1  6
 15 24  1  0
 17 25  1  0
 12 26  2  0
 17 26  1  0
 25 27  2  0
 24 28  1  0
 25 28  1  0
 24 29  2  0
 28 30  1  6
 30 31  1  0
 31 32  1  0
 31 33  2  0
 32 34  1  0
 33 35  1  0
 32 36  2  0
 35 36  1  0
M  END
$$$$
O14757_Pocket2Mol_idx-in-all-generaetd-367
     RDKit          3D

 30 33  0  0  0  0  0  0  0  0999 V2000
    3.7044    0.1389   42.5158 N   0  0  0  0  0  0  0  0  0  0  0  0
    3.0206   -1.0018   42.4929 C   0  0  0  0  0  0  0  0  0  0  0  0
    3.4791   -2.0817   43.2077 C   0  0  0  0  0  0  0  0  0  0  0  0
    4.8540    0.3862   43.0582 N   0  0  0  0  0  0  0  0  0  0  0  0
    5.1377   -0.9552   43.7144 C   0  0  0  0  0  0  0  0  0  0  0  0
    1.5846   -1.0753   41.7644 C   0  0  0  0  0  0  0  0  0  0  0  0
    4.6026   -2.0358   43.8129 C   0  0  0  0  0  0  0  0  0  0  0  0
    5.1584   -3.1511   44.6069 C   0  0  0  0  0  0  0  0  0  0  0  0
    6.6094   -0.7911   44.3696 N   0  0  0  0  0  0  0  0  0  0  0  0
    4.4744   -4.3270   44.8472 C   0  0  0  0  0  0  0  0  0  0  0  0
    6.9275   -1.8713   45.2437 C   0  0  0  0  0  0  0  0  0  0  0  0
    8.2702   -1.7750   45.8768 C   0  0  0  0  0  0  0  0  0  0  0  0
    0.9365   -0.0867   41.7346 O   0  0  0  0  0  0  0  0  0  0  0  0
    6.2322   -3.0484   45.3118 C   0  0  0  0  0  0  0  0  0  0  0  0
    6.7747   -4.0433   46.1202 N   0  0  0  0  0  0  0  0  0  0  0  0
    1.2161   -2.2739   41.2518 N   0  0  0  0  0  0  0  0  0  0  0  0
    9.0373   -0.5649   45.9132 O   0  0  0  0  0  0  0  0  0  0  0  0
    3.8907   -5.0906   43.9511 O   0  0  0  0  0  0  0  0  0  0  0  0
    4.3454   -4.8388   46.1621 N   0  0  0  0  0  0  0  0  0  0  0  0
    3.4531   -5.8952   46.4159 C   0  0  0  0  0  0  0  0  0  0  0  0
    8.7091   -2.8031   46.6693 N   0  0  0  0  0  0  0  0  0  0  0  0
    5.4910   -4.7959   46.9467 C   0  0  0  0  0  0  0  0  0  0  0  0
    7.8496   -3.9145   46.8373 C   0  0  0  0  0  0  0  0  0  0  0  0
    8.5639   -5.1140   47.3215 O   0  0  0  0  0  0  0  0  0  0  0  0
    9.9254   -2.6675   47.4187 C   0  0  2  0  0  0  0  0  0  0  0  0
    9.8657   -1.8897   48.5483 C   0  0  0  0  0  0  0  0  0  0  0  0
   11.0142   -2.1407   46.5238 C   0  0  0  0  0  0  0  0  0  0  0  0
   11.8111   -3.1044   45.9064 C   0  0  0  0  0  0  0  0  0  0  0  0
   11.5021   -4.3883   45.9484 O   0  0  0  0  0  0  0  0  0  0  0  0
   13.0331   -2.8243   45.4755 O   0  0  0  0  0  0  0  0  0  0  0  0
  1  2  2  0
  2  3  1  0
  1  4  1  0
  4  5  2  0
  2  6  1  0
  3  7  2  0
  5  7  1  0
  7  8  1  0
  5  9  1  0
  8 10  1  0
  9 11  2  0
 11 12  1  0
  6 13  2  0
  8 14  2  0
 11 14  1  0
 14 15  1  0
  6 16  1  0
 12 17  2  0
 10 18  2  0
 10 19  1  0
 19 20  1  0
 12 21  1  0
 15 22  1  0
 19 22  1  0
 15 23  1  0
 21 23  1  0
 23 24  2  0
 21 25  1  0
 25 26  1  1
 25 27  1  0
 27 28  1  0
 28 29  2  0
 28 30  1  0
M  END
$$$$
O14757_Pocket2Mol_idx-in-all-generaetd-368
     RDKit          3D

 38 44  0  0  0  0  0  0  0  0999 V2000
    1.5482   -0.3111   41.9233 C   0  0  0  0  0  0  0  0  0  0  0  0
    2.7284    0.2018   42.1525 N   0  0  0  0  0  0  0  0  0  0  0  0
    3.7893   -0.3016   42.7005 C   0  0  0  0  0  0  0  0  0  0  0  0
    3.3781   -1.7350   43.0000 C   0  0  0  0  0  0  0  0  0  0  0  0
    2.0339   -1.9619   42.6217 C   0  0  0  0  0  0  0  0  0  0  0  0
    4.1166   -2.4997   43.8458 C   0  0  0  0  0  0  0  0  0  0  0  0
    1.1731   -3.0051   42.5773 C   0  0  0  0  0  0  0  0  0  0  0  0
    0.4701   -3.2344   41.4901 C   0  0  0  0  0  0  0  0  0  0  0  0
    5.3799   -1.7814   44.2691 C   0  0  0  0  0  0  0  0  0  0  0  0
    5.0159   -0.0180   43.1201 N   0  0  0  0  0  0  0  0  0  0  0  0
    5.7693   -0.6937   43.8418 C   0  0  0  0  0  0  0  0  0  0  0  0
    0.8078   -3.6166   43.6782 C   0  0  0  0  0  0  0  0  0  0  0  0
    0.0663   -4.7011   43.7415 N   0  0  0  0  0  0  0  0  0  0  0  0
    6.2223   -2.6843   45.1565 C   0  0  0  0  0  0  0  0  0  0  0  0
    6.9599   -0.2351   44.2608 N   0  0  0  0  0  0  0  0  0  0  0  0
    5.9065   -3.9037   45.7499 N   0  0  0  0  0  0  0  0  0  0  0  0
   -0.5459   -5.1185   42.5870 C   0  0  0  0  0  0  0  0  0  0  0  0
    5.7480   -4.0340   46.9810 C   0  0  0  0  0  0  0  0  0  0  0  0
    7.4448   -1.8511   45.4198 C   0  0  0  0  0  0  0  0  0  0  0  0
    7.7572   -0.7827   45.0128 C   0  0  0  0  0  0  0  0  0  0  0  0
    8.4076   -2.7217   46.4541 C   0  0  0  0  0  0  0  0  0  0  0  0
    9.3167   -2.0988   47.1049 N   0  0  0  0  0  0  0  0  0  0  0  0
   -0.4719   -4.3893   41.5406 C   0  0  0  0  0  0  0  0  0  0  0  0
    8.3667   -4.0284   46.5743 N   0  0  0  0  0  0  0  0  0  0  0  0
    9.5309   -4.3147   47.3094 C   0  0  0  0  0  0  0  0  0  0  0  0
    5.3113   -3.3789   47.8005 O   0  0  0  0  0  0  0  0  0  0  0  0
    9.9022   -5.6301   47.7684 C   0  0  0  0  0  0  0  0  0  0  0  0
    5.4470   -5.5868   47.2096 C   0  0  0  0  0  0  0  0  0  0  0  0
   11.2254   -5.8679   48.0402 C   0  0  0  0  0  0  0  0  0  0  0  0
    8.9736   -6.6532   47.8548 C   0  0  0  0  0  0  0  0  0  0  0  0
   10.0616   -3.0670   47.6360 C   0  0  0  0  0  0  0  0  0  0  0  0
    7.5566   -6.3564   47.5477 N   0  0  0  0  0  0  0  0  0  0  0  0
    6.4157   -6.1721   48.0913 C   0  0  0  0  0  0  0  0  0  0  0  0
    9.3646   -7.8782   48.1671 C   0  0  0  0  0  0  0  0  0  0  0  0
   12.3073   -4.8526   47.9155 O   0  0  0  0  0  0  0  0  0  0  0  0
   13.3755   -5.0618   47.1745 C   0  0  0  0  0  0  0  0  0  0  0  0
   10.6924   -8.1245   48.5503 C   0  0  0  0  0  0  0  0  0  0  0  0
   11.6611   -7.1382   48.4368 C   0  0  0  0  0  0  0  0  0  0  0  0
  1  2  1  0
  2  3  2  0
  3  4  1  0
  1  5  2  0
  4  5  1  0
  4  6  2  0
  5  7  1  0
  7  8  2  0
  6  9  1  0
  3 10  1  0
  9 11  2  0
 10 11  1  0
  7 12  1  0
 12 13  2  0
  9 14  1  0
 11 15  1  0
 14 16  1  0
 13 17  1  0
 16 18  1  0
 14 19  2  0
 15 20  2  0
 19 20  1  0
 19 21  1  0
 21 22  2  0
  8 23  1  0
 17 23  2  0
 21 24  1  0
 24 25  1  0
 18 26  2  0
 25 27  1  0
 18 28  1  0
 27 29  2  0
 27 30  1  0
 22 31  1  0
 25 31  2  0
 30 32  1  0
 28 33  1  0
 32 33  1  0
 30 34  2  0
 29 35  1  0
 35 36  1  0
 34 37  1  0
 29 38  1  0
 37 38  2  0
M  END
$$$$
O14757_Pocket2Mol_idx-in-all-generaetd-369
     RDKit          3D

 46 54  0  0  0  0  0  0  0  0999 V2000
    1.5482   -0.3111   41.9233 C   0  0  0  0  0  0  0  0  0  0  0  0
    2.7284    0.2018   42.1525 N   0  0  0  0  0  0  0  0  0  0  0  0
    3.7893   -0.3016   42.7005 C   0  0  0  0  0  0  0  0  0  0  0  0
    3.3781   -1.7350   43.0000 C   0  0  0  0  0  0  0  0  0  0  0  0
    2.0339   -1.9619   42.6217 C   0  0  0  0  0  0  0  0  0  0  0  0
    5.0090    0.1219   42.9340 N   0  0  0  0  0  0  0  0  0  0  0  0
    4.2895   -2.4979   43.6707 C   0  0  0  0  0  0  0  0  0  0  0  0
    5.8391   -0.6675   43.6343 C   0  0  0  0  0  0  0  0  0  0  0  0
    6.9849   -0.2377   44.0028 N   0  0  0  0  0  0  0  0  0  0  0  0
    4.0426   -3.8794   44.0832 C   0  0  0  0  0  0  0  0  0  0  0  0
    7.6796   -0.8734   44.9326 C   0  0  0  0  0  0  0  0  0  0  0  0
    1.1064   -2.9576   42.4211 C   0  0  0  0  0  0  0  0  0  0  0  0
    5.5298   -1.9496   44.0315 C   0  0  0  0  0  0  0  0  0  0  0  0
    3.8954   -4.1817   45.4718 C   0  0  0  0  0  0  0  0  0  0  0  0
    0.6765   -3.5480   43.4006 C   0  0  1  0  0  0  0  0  0  0  0  0
    0.5804   -3.2191   41.1635 C   0  0  0  0  0  0  0  0  0  0  0  0
    2.8083   -4.8227   45.9203 N   0  0  0  0  0  0  0  0  0  0  0  0
   -0.1574   -4.5754   42.9329 N   0  0  0  0  0  0  0  0  0  0  0  0
    6.5271   -2.5531   44.9677 C   0  0  0  0  0  0  0  0  0  0  0  0
   -0.2272   -4.3703   41.5137 C   0  0  0  0  0  0  0  0  0  0  0  0
    7.5095   -2.0029   45.3993 C   0  0  0  0  0  0  0  0  0  0  0  0
    8.2550   -2.6982   46.3988 C   0  0  0  0  0  0  0  0  0  0  0  0
    8.8975   -0.3029   45.3267 O   0  0  0  0  0  0  0  0  0  0  0  0
    4.8299   -4.4637   46.4212 C   0  0  0  0  0  0  0  0  0  0  0  0
    4.2707   -4.9248   47.6295 N   0  0  0  0  0  0  0  0  0  0  0  0
    3.2045   -5.2092   47.1521 C   0  0  0  0  0  0  0  0  0  0  0  0
    1.4482   -4.6186   45.4134 C   0  0  1  0  0  0  0  0  0  0  0  0
    1.2398   -3.5043   44.6236 O   0  0  0  0  0  0  0  0  0  0  0  0
    6.3317   -3.9297   46.0870 C   0  0  2  0  0  0  0  0  0  0  0  0
    9.5296   -2.5449   46.9776 C   0  0  0  0  0  0  0  0  0  0  0  0
    9.7921   -1.7530   47.9018 O   0  0  0  0  0  0  0  0  0  0  0  0
    7.3972   -3.8130   46.7939 C   0  0  0  0  0  0  0  0  0  0  0  0
    1.2392   -5.7793   44.5610 C   0  0  0  0  0  0  0  0  0  0  0  0
   10.4982   -3.2564   46.4837 N   0  0  0  0  0  0  0  0  0  0  0  0
   11.8686   -3.0564   46.9374 C   0  0  0  0  0  0  0  0  0  0  0  0
   10.3143   -4.3335   45.5931 C   0  0  0  0  0  0  0  0  0  0  0  0
   10.5171   -5.6681   46.1791 C   0  0  0  0  0  0  0  0  0  0  0  0
   12.8315   -2.7175   45.9073 C   0  0  0  0  0  0  0  0  0  0  0  0
   14.1197   -2.6036   46.2175 C   0  0  0  0  0  0  0  0  0  0  0  0
   12.2567   -3.0142   48.2372 C   0  0  0  0  0  0  0  0  0  0  0  0
   15.1302   -2.3251   45.1521 O   0  0  0  0  0  0  0  0  0  0  0  0
   14.9313   -1.2527   44.3337 C   0  0  0  0  0  0  0  0  0  0  0  0
   14.5668   -2.6624   47.5157 C   0  0  0  0  0  0  0  0  0  0  0  0
   15.8974   -2.4844   47.8984 O   0  0  0  0  0  0  0  0  0  0  0  0
   13.6055   -2.8523   48.6010 C   0  0  0  0  0  0  0  0  0  0  0  0
   16.3899   -3.1683   48.8334 C   0  0  0  0  0  0  0  0  0  0  0  0
  1  2  1  0
  2  3  2  0
  3  4  1  0
  1  5  2  0
  4  5  1  0
  3  6  1  0
  4  7  2  0
  6  8  1  0
  8  9  1  0
  7 10  1  0
  9 11  1  0
  5 12  1  0
  7 13  1  0
  8 13  2  0
 10 14  1  0
 12 15  1  0
 12 16  2  0
 14 17  1  0
 15 18  1  0
 13 19  1  0
 16 20  1  0
 18 20  2  0
 11 21  1  0
 19 21  2  0
 21 22  1  0
 11 23  2  0
 14 24  2  0
 24 25  1  0
 17 26  1  0
 25 26  2  0
 17 27  1  0
 15 28  1  6
 27 28  1  0
 19 29  1  0
 24 29  1  0
 22 30  1  0
 30 31  2  0
 22 32  2  0
 29 32  1  1
 27 33  1  6
 30 34  1  0
 34 35  1  0
 34 36  1  0
 36 37  1  0
 35 38  2  0
 38 39  1  0
 35 40  1  0
 39 41  1  0
 41 42  1  0
 39 43  2  0
 43 44  1  0
 40 45  2  0
 43 45  1  0
 44 46  1  0
M  END
$$$$
O14757_Pocket2Mol_idx-in-all-generaetd-370
     RDKit          3D

 35 40  0  0  0  0  0  0  0  0999 V2000
    1.5482   -0.3111   41.9233 C   0  0  0  0  0  0  0  0  0  0  0  0
    2.7284    0.2018   42.1525 N   0  0  0  0  0  0  0  0  0  0  0  0
    3.7893   -0.3016   42.7005 C   0  0  0  0  0  0  0  0  0  0  0  0
    3.3781   -1.7350   43.0000 C   0  0  0  0  0  0  0  0  0  0  0  0
    2.0339   -1.9619   42.6217 C   0  0  0  0  0  0  0  0  0  0  0  0
    4.1166   -2.4997   43.8458 C   0  0  0  0  0  0  0  0  0  0  0  0
    1.1731   -3.0051   42.5773 C   0  0  0  0  0  0  0  0  0  0  0  0
    0.4701   -3.2344   41.4901 C   0  0  0  0  0  0  0  0  0  0  0  0
    5.3799   -1.7814   44.2691 C   0  0  0  0  0  0  0  0  0  0  0  0
    5.0159   -0.0180   43.1201 N   0  0  0  0  0  0  0  0  0  0  0  0
    5.7693   -0.6937   43.8418 C   0  0  0  0  0  0  0  0  0  0  0  0
    0.8078   -3.6166   43.6782 C   0  0  0  0  0  0  0  0  0  0  0  0
    0.0663   -4.7011   43.7415 N   0  0  0  0  0  0  0  0  0  0  0  0
    6.2223   -2.6843   45.1565 C   0  0  0  0  0  0  0  0  0  0  0  0
    6.9599   -0.2351   44.2608 N   0  0  0  0  0  0  0  0  0  0  0  0
    5.9065   -3.9037   45.7499 N   0  0  0  0  0  0  0  0  0  0  0  0
   -0.5459   -5.1185   42.5870 C   0  0  0  0  0  0  0  0  0  0  0  0
    5.7480   -4.0340   46.9810 C   0  0  0  0  0  0  0  0  0  0  0  0
    7.4448   -1.8511   45.4198 C   0  0  0  0  0  0  0  0  0  0  0  0
    7.7572   -0.7827   45.0128 C   0  0  0  0  0  0  0  0  0  0  0  0
    8.4076   -2.7217   46.4541 C   0  0  0  0  0  0  0  0  0  0  0  0
    9.3167   -2.0988   47.1049 N   0  0  0  0  0  0  0  0  0  0  0  0
   -0.4719   -4.3893   41.5406 C   0  0  0  0  0  0  0  0  0  0  0  0
    8.3667   -4.0284   46.5743 N   0  0  0  0  0  0  0  0  0  0  0  0
   10.1532   -2.5726   47.9567 C   0  0  0  0  0  0  0  0  0  0  0  0
    7.1666   -4.7114   47.2915 C   0  0  0  0  0  0  0  0  0  0  0  0
   11.4560   -2.5376   47.5873 C   0  0  0  0  0  0  0  0  0  0  0  0
   11.8152   -3.5493   46.6694 C   0  0  0  0  0  0  0  0  0  0  0  0
   12.7174   -3.2253   45.6793 O   0  0  0  0  0  0  0  0  0  0  0  0
   11.1601   -4.5914   46.3617 O   0  0  0  0  0  0  0  0  0  0  0  0
    9.8346   -2.3571   49.3169 C   0  0  0  0  0  0  0  0  0  0  0  0
   12.5492   -2.5825   48.5441 C   0  0  0  0  0  0  0  0  0  0  0  0
    8.4486   -1.9711   49.7070 C   0  0  0  0  0  0  0  0  0  0  0  0
   10.9564   -2.0405   50.2321 C   0  0  0  0  0  0  0  0  0  0  0  0
   12.2580   -2.2752   49.8701 C   0  0  0  0  0  0  0  0  0  0  0  0
  1  2  1  0
  2  3  2  0
  3  4  1  0
  1  5  2  0
  4  5  1  0
  4  6  2  0
  5  7  1  0
  7  8  2  0
  6  9  1  0
  3 10  1  0
  9 11  2  0
 10 11  1  0
  7 12  1  0
 12 13  2  0
  9 14  1  0
 11 15  1  0
 14 16  1  0
 13 17  1  0
 16 18  1  0
 14 19  2  0
 15 20  2  0
 19 20  1  0
 19 21  1  0
 21 22  2  3
  8 23  1  0
 17 23  2  0
 21 24  1  0
 22 25  1  0
 18 26  1  0
 24 26  1  0
 25 27  2  0
 27 28  1  0
 28 29  2  0
 28 30  1  0
 25 31  1  0
 27 32  1  0
 31 33  1  0
 31 34  2  0
 32 35  2  0
 34 35  1  0
M  END
$$$$
O14757_Pocket2Mol_idx-in-all-generaetd-371
     RDKit          3D

 48 55  0  0  0  0  0  0  0  0999 V2000
    5.3420    0.2589   42.8836 O   0  0  0  0  0  0  0  0  0  0  0  0
    5.1627   -0.7554   43.4753 C   0  0  0  0  0  0  0  0  0  0  0  0
    4.0509   -1.4657   43.4177 N   0  0  0  0  0  0  0  0  0  0  0  0
    5.9969   -1.2317   44.6840 C   0  0  0  0  0  0  0  0  0  0  0  0
    2.9618   -1.1021   42.5918 C   0  0  1  0  0  0  0  0  0  0  0  0
    7.3392   -0.8596   44.8412 C   0  0  0  0  0  0  0  0  0  0  0  0
    1.9754   -2.0820   42.2741 C   0  0  0  0  0  0  0  0  0  0  0  0
    5.5910   -2.4282   45.3439 C   0  0  0  0  0  0  0  0  0  0  0  0
    6.5874   -2.9636   46.1581 C   0  0  0  0  0  0  0  0  0  0  0  0
    4.2763   -3.0680   45.0493 N   0  0  0  0  0  0  0  0  0  0  0  0
    3.6188   -2.5886   44.2024 C   0  0  0  0  0  0  0  0  0  0  0  0
    8.1921   -1.4071   45.7505 C   0  0  0  0  0  0  0  0  0  0  0  0
    1.0154   -1.8839   41.2980 C   0  0  0  0  0  0  0  0  0  0  0  0
    2.5720   -3.3564   43.9063 C   0  0  0  0  0  0  0  0  0  0  0  0
    0.2502   -2.8976   41.0751 C   0  0  0  0  0  0  0  0  0  0  0  0
    6.1761   -4.1775   47.0209 C   0  0  0  0  0  0  0  0  0  0  0  0
    1.7266   -3.1047   43.0115 C   0  0  2  0  0  0  0  0  0  0  0  0
    2.3696   -4.5367   44.7536 N   0  0  0  0  0  0  0  0  0  0  0  0
    1.2264   -5.2346   44.4693 C   0  0  0  0  0  0  0  0  0  0  0  0
    0.7187   -3.8955   42.5465 C   0  0  0  0  0  0  0  0  0  0  0  0
    9.4576   -0.8949   46.0327 N   0  0  0  0  0  0  0  0  0  0  0  0
    0.8625   -6.3901   45.2462 C   0  0  0  0  0  0  0  0  0  0  0  0
    7.6467   -2.5139   46.4892 C   0  0  0  0  0  0  0  0  0  0  0  0
   10.4908   -1.5336   45.8242 C   0  0  0  0  0  0  0  0  0  0  0  0
    0.3057   -4.9299   43.2909 C   0  0  0  0  0  0  0  0  0  0  0  0
   11.5916   -1.4291   46.7436 C   0  0  0  0  0  0  0  0  0  0  0  0
   10.5566   -2.3672   44.8649 O   0  0  0  0  0  0  0  0  0  0  0  0
   12.8421   -1.9355   46.2823 C   0  0  0  0  0  0  0  0  0  0  0  0
   13.4833   -2.8582   46.9841 C   0  0  0  0  0  0  0  0  0  0  0  0
   11.4002   -1.1447   48.0540 C   0  0  0  0  0  0  0  0  0  0  0  0
   10.2867   -0.4569   48.4999 O   0  0  0  0  0  0  0  0  0  0  0  0
   12.3327   -1.4798   48.9564 C   0  0  1  0  0  0  0  0  0  0  0  0
   14.7901   -3.3162   46.6439 C   0  0  0  0  0  0  0  0  0  0  0  0
   12.1651   -1.3050   50.3239 O   0  0  0  0  0  0  0  0  0  0  0  0
   15.6765   -2.5740   46.0979 C   0  0  0  0  0  0  0  0  0  0  0  0
    2.4608    0.2106   42.8512 C   0  0  0  0  0  0  0  0  0  0  0  0
   15.5213   -1.2590   45.7606 C   0  0  0  0  0  0  0  0  0  0  0  0
   14.5349   -0.8899   44.8574 C   0  0  0  0  0  0  0  0  0  0  0  0
   12.9775   -3.3460   48.2127 C   0  0  0  0  0  0  0  0  0  0  0  0
   14.7129   -0.1943   43.8652 C   0  0  0  0  0  0  0  0  0  0  0  0
   13.1163   -1.3789   45.0490 O   0  0  0  0  0  0  0  0  0  0  0  0
   12.7443   -2.7596   49.2688 C   0  0  0  0  0  0  0  0  0  0  0  0
   16.7753   -0.6612   45.4305 C   0  0  0  0  0  0  0  0  0  0  0  0
   17.8830   -0.8892   46.3079 O   0  0  0  0  0  0  0  0  0  0  0  0
   16.8585    0.3637   44.5258 C   0  0  0  0  0  0  0  0  0  0  0  0
   13.4197    0.2696   43.0140 F   0  0  0  0  0  0  0  0  0  0  0  0
   18.0399    1.1101   44.3835 O   0  0  0  0  0  0  0  0  0  0  0  0
   15.7685    0.7126   43.7174 C   0  0  0  0  0  0  0  0  0  0  0  0
  1  2  2  0
  2  3  1  0
  2  4  1  0
  3  5  1  0
  4  6  2  0
  5  7  1  0
  4  8  1  0
  8  9  2  0
  8 10  1  0
  3 11  1  0
 10 11  2  0
  6 12  1  0
  7 13  2  0
 11 14  1  0
 13 15  1  0
  9 16  1  0
 17  7  1  6
 14 17  1  0
 14 18  2  0
 18 19  1  0
 15 20  2  0
 17 20  1  0
 12 21  1  0
 19 22  1  0
  9 23  1  0
 12 23  2  0
 21 24  1  0
 19 25  2  0
 20 25  1  0
 24 26  1  0
 24 27  2  0
 26 28  1  0
 28 29  2  0
 26 30  2  0
 30 31  1  0
 30 32  1  0
 29 33  1  0
 32 34  1  1
 33 35  2  0
  5 36  1  1
 35 37  1  0
 37 38  2  0
 29 39  1  0
 38 40  1  0
 28 41  1  0
 38 41  1  0
 32 42  1  0
 39 42  1  0
 37 43  1  0
 43 44  1  0
 43 45  2  0
 40 46  1  0
 45 47  1  0
 40 48  2  0
 45 48  1  0
M  END
$$$$
O14757_Pocket2Mol_idx-in-all-generaetd-372
     RDKit          3D

 44 53  0  0  0  0  0  0  0  0999 V2000
    1.5482   -0.3111   41.9233 C   0  0  0  0  0  0  0  0  0  0  0  0
    2.7284    0.2018   42.1525 N   0  0  0  0  0  0  0  0  0  0  0  0
    3.7893   -0.3016   42.7005 C   0  0  0  0  0  0  0  0  0  0  0  0
    3.3781   -1.7350   43.0000 C   0  0  0  0  0  0  0  0  0  0  0  0
    2.0339   -1.9619   42.6217 C   0  0  0  0  0  0  0  0  0  0  0  0
    5.0090    0.1219   42.9340 N   0  0  0  0  0  0  0  0  0  0  0  0
    4.2895   -2.4979   43.6707 C   0  0  0  0  0  0  0  0  0  0  0  0
    5.8391   -0.6675   43.6343 C   0  0  0  0  0  0  0  0  0  0  0  0
    6.9849   -0.2377   44.0028 N   0  0  0  0  0  0  0  0  0  0  0  0
    4.0426   -3.8794   44.0832 C   0  0  0  0  0  0  0  0  0  0  0  0
    7.6796   -0.8734   44.9326 C   0  0  0  0  0  0  0  0  0  0  0  0
    1.1064   -2.9576   42.4211 C   0  0  0  0  0  0  0  0  0  0  0  0
    5.5298   -1.9496   44.0315 C   0  0  0  0  0  0  0  0  0  0  0  0
    3.8954   -4.1817   45.4718 C   0  0  0  0  0  0  0  0  0  0  0  0
    0.6765   -3.5480   43.4006 C   0  0  1  0  0  0  0  0  0  0  0  0
    0.5804   -3.2191   41.1635 C   0  0  0  0  0  0  0  0  0  0  0  0
    2.8083   -4.8227   45.9203 N   0  0  0  0  0  0  0  0  0  0  0  0
   -0.1574   -4.5754   42.9329 N   0  0  0  0  0  0  0  0  0  0  0  0
    6.5271   -2.5531   44.9677 C   0  0  0  0  0  0  0  0  0  0  0  0
   -0.2272   -4.3703   41.5137 C   0  0  0  0  0  0  0  0  0  0  0  0
    7.5095   -2.0029   45.3993 C   0  0  0  0  0  0  0  0  0  0  0  0
    8.2550   -2.6982   46.3988 C   0  0  1  0  0  0  0  0  0  0  0  0
    8.8975   -0.3029   45.3267 O   0  0  0  0  0  0  0  0  0  0  0  0
    4.8299   -4.4637   46.4212 C   0  0  0  0  0  0  0  0  0  0  0  0
    4.2707   -4.9248   47.6295 N   0  0  0  0  0  0  0  0  0  0  0  0
    3.2045   -5.2092   47.1521 C   0  0  0  0  0  0  0  0  0  0  0  0
    1.4482   -4.6186   45.4134 C   0  0  0  0  0  0  0  0  0  0  0  0
    1.3256   -3.7660   44.6394 N   0  0  0  0  0  0  0  0  0  0  0  0
    9.2816   -2.1418   47.1273 N   0  0  0  0  0  0  0  0  0  0  0  0
   10.0629   -3.1324   47.8508 C   0  0  0  0  0  0  0  0  0  0  0  0
    6.3491   -3.8960   46.0844 C   0  0  2  0  0  0  0  0  0  0  0  0
    7.4349   -3.5889   46.9054 C   0  0  0  0  0  0  0  0  0  0  0  0
   10.3145   -2.7271   49.0818 O   0  0  0  0  0  0  0  0  0  0  0  0
   11.0221   -3.8171   47.1052 C   0  0  0  0  0  0  0  0  0  0  0  0
    0.8710   -5.7412   45.2074 O   0  0  0  0  0  0  0  0  0  0  0  0
   12.1654   -3.3890   46.7468 C   0  0  0  0  0  0  0  0  0  0  0  0
   10.8862   -5.2442   47.2797 C   0  0  0  0  0  0  0  0  0  0  0  0
   11.6445   -5.8923   46.6301 C   0  0  0  0  0  0  0  0  0  0  0  0
   11.5586   -7.4203   46.6373 O   0  0  0  0  0  0  0  0  0  0  0  0
   12.9082   -5.4386   46.1277 C   0  0  0  0  0  0  0  0  0  0  0  0
   13.8179   -6.2873   45.5731 O   0  0  0  0  0  0  0  0  0  0  0  0
   13.0990   -4.0740   46.1797 C   0  0  0  0  0  0  0  0  0  0  0  0
   13.4521   -7.5658   45.4159 C   0  0  0  0  0  0  0  0  0  0  0  0
   12.7229   -8.0499   46.3983 C   0  0  0  0  0  0  0  0  0  0  0  0
  1  2  1  0
  2  3  2  0
  3  4  1  0
  1  5  2  0
  4  5  1  0
  3  6  1  0
  4  7  2  0
  6  8  1  0
  8  9  1  0
  7 10  1  0
  9 11  1  0
  5 12  1  0
  7 13  1  0
  8 13  2  0
 10 14  1  0
 12 15  1  0
 12 16  2  0
 14 17  1  0
 15 18  1  0
 13 19  1  0
 16 20  1  0
 18 20  2  0
 11 21  1  0
 19 21  2  0
 21 22  1  0
 11 23  2  0
 14 24  2  0
 24 25  1  0
 17 26  1  0
 25 26  2  0
 17 27  1  0
 15 28  1  6
 27 28  1  0
 22 29  1  1
 29 30  1  0
 19 31  1  0
 24 31  1  0
 22 32  1  0
 31 32  1  1
 30 33  2  0
 30 34  1  0
 27 35  2  0
 34 36  2  0
 34 37  1  0
 37 38  2  0
 38 39  1  0
 38 40  1  0
 40 41  1  0
 36 42  1  0
 40 42  2  0
 41 43  1  0
 39 44  1  0
 43 44  1  0
M  END
$$$$
O14757_Pocket2Mol_idx-in-all-generaetd-373
     RDKit          3D

 36 41  0  0  0  0  0  0  0  0999 V2000
    1.5482   -0.3111   41.9233 C   0  0  0  0  0  0  0  0  0  0  0  0
    2.7284    0.2018   42.1525 N   0  0  0  0  0  0  0  0  0  0  0  0
    3.7893   -0.3016   42.7005 C   0  0  0  0  0  0  0  0  0  0  0  0
    3.3781   -1.7350   43.0000 C   0  0  0  0  0  0  0  0  0  0  0  0
    2.0339   -1.9619   42.6217 C   0  0  0  0  0  0  0  0  0  0  0  0
    4.1166   -2.4997   43.8458 C   0  0  0  0  0  0  0  0  0  0  0  0
    1.1731   -3.0051   42.5773 C   0  0  0  0  0  0  0  0  0  0  0  0
    0.4701   -3.2344   41.4901 C   0  0  0  0  0  0  0  0  0  0  0  0
    5.3799   -1.7814   44.2691 C   0  0  0  0  0  0  0  0  0  0  0  0
    5.0159   -0.0180   43.1201 N   0  0  0  0  0  0  0  0  0  0  0  0
    5.7693   -0.6937   43.8418 C   0  0  0  0  0  0  0  0  0  0  0  0
    0.8078   -3.6166   43.6782 C   0  0  0  0  0  0  0  0  0  0  0  0
    0.0663   -4.7011   43.7415 N   0  0  0  0  0  0  0  0  0  0  0  0
    6.2223   -2.6843   45.1565 C   0  0  0  0  0  0  0  0  0  0  0  0
    6.9599   -0.2351   44.2608 N   0  0  0  0  0  0  0  0  0  0  0  0
    5.9065   -3.9037   45.7499 N   0  0  0  0  0  0  0  0  0  0  0  0
   -0.5459   -5.1185   42.5870 C   0  0  0  0  0  0  0  0  0  0  0  0
    5.7480   -4.0340   46.9810 C   0  0  0  0  0  0  0  0  0  0  0  0
    7.4448   -1.8511   45.4198 C   0  0  0  0  0  0  0  0  0  0  0  0
    7.7572   -0.7827   45.0128 C   0  0  0  0  0  0  0  0  0  0  0  0
    8.4076   -2.7217   46.4541 C   0  0  0  0  0  0  0  0  0  0  0  0
    9.3167   -2.0988   47.1049 N   0  0  0  0  0  0  0  0  0  0  0  0
   -0.4719   -4.3893   41.5406 C   0  0  0  0  0  0  0  0  0  0  0  0
    5.0887   -3.4849   47.7878 O   0  0  0  0  0  0  0  0  0  0  0  0
    6.6862   -5.0913   47.4809 C   0  0  0  0  0  0  0  0  0  0  0  0
    8.0012   -4.4642   47.9733 C   0  0  0  0  0  0  0  0  0  0  0  0
    8.3252   -3.8858   46.6511 O   0  0  0  0  0  0  0  0  0  0  0  0
   10.2305   -2.8903   47.7858 C   0  0  0  0  0  0  0  0  0  0  0  0
   11.2078   -3.4374   47.2479 C   0  0  0  0  0  0  0  0  0  0  0  0
   10.4851   -2.2816   49.1740 C   0  0  0  0  0  0  0  0  0  0  0  0
   12.3547   -3.8704   47.9429 C   0  0  0  0  0  0  0  0  0  0  0  0
   13.3825   -4.7045   47.2506 C   0  0  0  0  0  0  0  0  0  0  0  0
   12.6021   -3.4909   49.2422 C   0  0  0  0  0  0  0  0  0  0  0  0
   13.0452   -5.6418   46.5838 O   0  0  0  0  0  0  0  0  0  0  0  0
   14.5223   -4.1636   47.1867 O   0  0  0  0  0  0  0  0  0  0  0  0
   11.6642   -2.6891   49.8380 C   0  0  0  0  0  0  0  0  0  0  0  0
  1  2  1  0
  2  3  2  0
  3  4  1  0
  1  5  2  0
  4  5  1  0
  4  6  2  0
  5  7  1  0
  7  8  2  0
  6  9  1  0
  3 10  1  0
  9 11  2  0
 10 11  1  0
  7 12  1  0
 12 13  2  0
  9 14  1  0
 11 15  1  0
 14 16  1  0
 13 17  1  0
 16 18  1  0
 14 19  2  0
 15 20  2  0
 19 20  1  0
 19 21  1  0
 21 22  2  3
  8 23  1  0
 17 23  2  0
 18 24  2  0
 18 25  1  0
 25 26  1  0
 21 27  1  0
 26 27  1  0
 22 28  1  0
 28 29  2  0
 28 30  1  0
 29 31  1  0
 31 32  1  0
 31 33  2  0
 32 34  2  0
 32 35  1  0
 30 36  2  0
 33 36  1  0
M  END
$$$$
O14757_Pocket2Mol_idx-in-all-generaetd-374
     RDKit          3D

 35 41  0  0  0  0  0  0  0  0999 V2000
    4.8037   -0.1366   42.7100 N   0  0  0  0  0  0  0  0  0  0  0  0
    3.6577   -0.7759   42.7186 C   0  0  0  0  0  0  0  0  0  0  0  0
    3.6660   -1.8665   43.4760 C   0  0  0  0  0  0  0  0  0  0  0  0
    2.7271   -2.8718   43.6599 C   0  0  0  0  0  0  0  0  0  0  0  0
    2.4846   -0.2994   42.1254 N   0  0  0  0  0  0  0  0  0  0  0  0
    5.0524   -1.7697   43.9367 C   0  0  0  0  0  0  0  0  0  0  0  0
    1.4917   -2.9000   43.0914 C   0  0  0  0  0  0  0  0  0  0  0  0
    3.1274   -3.9503   44.5163 C   0  0  0  0  0  0  0  0  0  0  0  0
    1.0744   -1.9066   42.1491 C   0  0  2  0  0  0  0  0  0  0  0  0
    5.6624   -0.7003   43.4895 C   0  0  0  0  0  0  0  0  0  0  0  0
    5.5753   -2.5784   45.0324 C   0  0  0  0  0  0  0  0  0  0  0  0
    0.4030   -3.6297   43.4883 N   0  0  0  0  0  0  0  0  0  0  0  0
    1.5052   -0.8077   41.7519 C   0  0  0  0  0  0  0  0  0  0  0  0
   -0.5645   -3.4039   42.5585 N   0  0  0  0  0  0  0  0  0  0  0  0
    2.5059   -5.1012   44.7935 C   0  0  0  0  0  0  0  0  0  0  0  0
    4.4581   -3.8218   45.2947 C   0  0  0  0  0  0  0  0  0  0  0  0
   -0.3089   -2.3979   41.8128 C   0  0  0  0  0  0  0  0  0  0  0  0
    6.6435   -2.6577   45.6991 C   0  0  0  0  0  0  0  0  0  0  0  0
    7.0869   -3.7008   46.4717 C   0  0  0  0  0  0  0  0  0  0  0  0
    7.5912   -1.5296   45.5455 C   0  0  0  0  0  0  0  0  0  0  0  0
    8.7765   -1.4352   46.2248 C   0  0  0  0  0  0  0  0  0  0  0  0
    6.3069   -4.7944   46.6836 O   0  0  0  0  0  0  0  0  0  0  0  0
    4.8984   -4.5252   46.1302 C   0  0  0  0  0  0  0  0  0  0  0  0
    4.2122   -5.9932   46.2216 C   0  0  0  0  0  0  0  0  0  0  0  0
    3.0046   -6.0549   45.6421 C   0  0  0  0  0  0  0  0  0  0  0  0
    9.1783   -2.6075   47.0889 C   0  0  0  0  0  0  0  0  0  0  0  0
    8.3687   -3.7625   47.2781 C   0  0  0  0  0  0  0  0  0  0  0  0
   10.6110   -2.5273   47.8646 C   0  0  1  0  0  0  0  0  0  0  0  0
   11.6197   -2.4013   47.0402 N   0  0  0  0  0  0  0  0  0  0  0  0
   10.4964   -1.4258   48.7800 C   0  0  0  0  0  0  0  0  0  0  0  0
   11.6372   -1.6171   49.7492 O   0  0  0  0  0  0  0  0  0  0  0  0
   11.9631   -3.3989   46.1282 C   0  0  0  0  0  0  0  0  0  0  0  0
   11.3203   -4.4591   45.9597 O   0  0  0  0  0  0  0  0  0  0  0  0
   13.2835   -3.2404   45.4720 O   0  0  0  0  0  0  0  0  0  0  0  0
   13.7397   -1.9763   45.6449 C   0  0  0  0  0  0  0  0  0  0  0  0
  1  2  2  0
  2  3  1  0
  3  4  2  0
  2  5  1  0
  3  6  1  0
  4  7  1  0
  4  8  1  0
  7  9  1  0
  1 10  1  0
  6 10  1  0
  6 11  2  0
  7 12  2  0
  5 13  2  0
  9 13  1  1
 12 14  1  0
  8 15  2  0
  8 16  1  0
 11 16  1  0
  9 17  1  0
 14 17  2  0
 11 18  1  0
 18 19  2  0
 18 20  1  0
 20 21  2  0
 19 22  1  0
 16 23  2  0
 22 23  1  0
 23 24  1  0
 15 25  1  0
 24 25  2  0
 21 26  1  0
 19 27  1  0
 26 27  2  0
 26 28  1  0
 28 29  1  0
 28 30  1  1
 30 31  1  0
 29 32  1  0
 32 33  2  0
 32 34  1  0
 34 35  1  0
M  END
$$$$
O14757_Pocket2Mol_idx-in-all-generaetd-375
     RDKit          3D

 32 37  0  0  0  0  0  0  0  0999 V2000
    1.5482   -0.3111   41.9233 C   0  0  0  0  0  0  0  0  0  0  0  0
    2.7284    0.2018   42.1525 N   0  0  0  0  0  0  0  0  0  0  0  0
    3.7893   -0.3016   42.7005 C   0  0  0  0  0  0  0  0  0  0  0  0
    3.3781   -1.7350   43.0000 C   0  0  0  0  0  0  0  0  0  0  0  0
    2.0339   -1.9619   42.6217 C   0  0  0  0  0  0  0  0  0  0  0  0
    5.0090    0.1219   42.9340 N   0  0  0  0  0  0  0  0  0  0  0  0
    4.2895   -2.4979   43.6707 C   0  0  0  0  0  0  0  0  0  0  0  0
    5.8391   -0.6675   43.6343 C   0  0  0  0  0  0  0  0  0  0  0  0
    6.9849   -0.2377   44.0028 N   0  0  0  0  0  0  0  0  0  0  0  0
    4.0426   -3.8794   44.0832 C   0  0  0  0  0  0  0  0  0  0  0  0
    7.6796   -0.8734   44.9326 C   0  0  0  0  0  0  0  0  0  0  0  0
    1.1064   -2.9576   42.4211 C   0  0  0  0  0  0  0  0  0  0  0  0
    5.5298   -1.9496   44.0315 C   0  0  0  0  0  0  0  0  0  0  0  0
    3.8954   -4.1817   45.4718 C   0  0  0  0  0  0  0  0  0  0  0  0
    0.6765   -3.5480   43.4006 C   0  0  0  0  0  0  0  0  0  0  0  0
    0.5804   -3.2191   41.1635 C   0  0  0  0  0  0  0  0  0  0  0  0
    2.8083   -4.8227   45.9203 N   0  0  0  0  0  0  0  0  0  0  0  0
   -0.1574   -4.5754   42.9329 N   0  0  0  0  0  0  0  0  0  0  0  0
    6.5271   -2.5531   44.9677 C   0  0  0  0  0  0  0  0  0  0  0  0
   -0.2272   -4.3703   41.5137 C   0  0  0  0  0  0  0  0  0  0  0  0
    7.5095   -2.0029   45.3993 C   0  0  0  0  0  0  0  0  0  0  0  0
    8.2550   -2.6982   46.3988 C   0  0  0  0  0  0  0  0  0  0  0  0
    8.8975   -0.3029   45.3267 O   0  0  0  0  0  0  0  0  0  0  0  0
    8.2329   -4.0299   46.5900 C   0  0  0  0  0  0  0  0  0  0  0  0
    4.4216   -3.3558   46.3643 O   0  0  0  0  0  0  0  0  0  0  0  0
    9.1940   -1.9730   47.2364 C   0  0  0  0  0  0  0  0  0  0  0  0
    1.9550   -4.4083   46.8474 C   0  0  0  0  0  0  0  0  0  0  0  0
    8.9294   -4.7161   47.5720 C   0  0  0  0  0  0  0  0  0  0  0  0
    0.4763   -4.4303   46.2124 C   0  0  0  0  0  0  0  0  0  0  0  0
    0.7357   -3.4822   44.7725 C   0  0  0  0  0  0  0  0  0  0  0  0
    9.7588   -3.9986   48.4435 C   0  0  0  0  0  0  0  0  0  0  0  0
    9.8869   -2.5088   48.2683 C   0  0  0  0  0  0  0  0  0  0  0  0
  1  2  1  0
  2  3  2  0
  3  4  1  0
  1  5  2  0
  4  5  1  0
  3  6  1  0
  4  7  2  0
  6  8  1  0
  8  9  1  0
  7 10  1  0
  9 11  1  0
  5 12  1  0
  7 13  1  0
  8 13  2  0
 10 14  1  0
 12 15  1  0
 12 16  2  0
 14 17  1  0
 15 18  1  0
 13 19  1  0
 16 20  1  0
 18 20  2  0
 11 21  1  0
 19 21  2  0
 21 22  1  0
 11 23  2  0
 22 24  2  0
 14 25  2  0
 22 26  1  0
 17 27  1  0
 24 28  1  0
 27 29  1  0
 15 30  2  3
 29 30  1  0
 28 31  2  0
 26 32  2  0
 31 32  1  0
M  END
$$$$
O14757_Pocket2Mol_idx-in-all-generaetd-376
     RDKit          3D

 42 49  0  0  0  0  0  0  0  0999 V2000
    1.5482   -0.3111   41.9233 C   0  0  0  0  0  0  0  0  0  0  0  0
    2.7284    0.2018   42.1525 N   0  0  0  0  0  0  0  0  0  0  0  0
    3.7893   -0.3016   42.7005 C   0  0  0  0  0  0  0  0  0  0  0  0
    3.3781   -1.7350   43.0000 C   0  0  0  0  0  0  0  0  0  0  0  0
    2.0339   -1.9619   42.6217 C   0  0  0  0  0  0  0  0  0  0  0  0
    4.1166   -2.4997   43.8458 C   0  0  0  0  0  0  0  0  0  0  0  0
    1.1731   -3.0051   42.5773 C   0  0  0  0  0  0  0  0  0  0  0  0
    0.4701   -3.2344   41.4901 C   0  0  0  0  0  0  0  0  0  0  0  0
    5.3799   -1.7814   44.2691 C   0  0  0  0  0  0  0  0  0  0  0  0
    5.0159   -0.0180   43.1201 N   0  0  0  0  0  0  0  0  0  0  0  0
    5.7693   -0.6937   43.8418 C   0  0  0  0  0  0  0  0  0  0  0  0
    0.8078   -3.6166   43.6782 C   0  0  0  0  0  0  0  0  0  0  0  0
    0.0663   -4.7011   43.7415 N   0  0  0  0  0  0  0  0  0  0  0  0
    6.2223   -2.6843   45.1565 C   0  0  0  0  0  0  0  0  0  0  0  0
    6.9599   -0.2351   44.2608 N   0  0  0  0  0  0  0  0  0  0  0  0
    5.9065   -3.9037   45.7499 N   0  0  0  0  0  0  0  0  0  0  0  0
   -0.5459   -5.1185   42.5870 C   0  0  0  0  0  0  0  0  0  0  0  0
    5.7480   -4.0340   46.9810 C   0  0  0  0  0  0  0  0  0  0  0  0
    7.4448   -1.8511   45.4198 C   0  0  0  0  0  0  0  0  0  0  0  0
    7.7572   -0.7827   45.0128 C   0  0  0  0  0  0  0  0  0  0  0  0
    8.4076   -2.7217   46.4541 C   0  0  0  0  0  0  0  0  0  0  0  0
    9.3167   -2.0988   47.1049 N   0  0  0  0  0  0  0  0  0  0  0  0
   -0.4719   -4.3893   41.5406 C   0  0  0  0  0  0  0  0  0  0  0  0
    8.3667   -4.0284   46.5743 N   0  0  0  0  0  0  0  0  0  0  0  0
    9.5309   -4.3147   47.3094 C   0  0  0  0  0  0  0  0  0  0  0  0
    5.3113   -3.3789   47.8005 O   0  0  0  0  0  0  0  0  0  0  0  0
    9.9022   -5.6301   47.7684 C   0  0  0  0  0  0  0  0  0  0  0  0
    5.4470   -5.5868   47.2096 C   0  0  0  0  0  0  0  0  0  0  0  0
   11.2254   -5.8679   48.0402 C   0  0  0  0  0  0  0  0  0  0  0  0
    8.9736   -6.6532   47.8548 C   0  0  0  0  0  0  0  0  0  0  0  0
   10.0616   -3.0670   47.6360 C   0  0  0  0  0  0  0  0  0  0  0  0
    7.5566   -6.3564   47.5477 N   0  0  0  0  0  0  0  0  0  0  0  0
    6.4157   -6.1721   48.0913 C   0  0  0  0  0  0  0  0  0  0  0  0
   12.3275   -4.8510   47.9324 C   0  0  0  0  0  0  0  0  0  0  0  0
    9.4585   -7.9662   48.0726 C   0  0  0  0  0  0  0  0  0  0  0  0
   11.5288   -2.7910   48.1740 C   0  0  0  0  0  0  0  0  0  0  0  0
   10.7288   -8.1991   48.4378 C   0  0  0  0  0  0  0  0  0  0  0  0
   11.2242   -9.5767   48.7434 O   0  0  0  0  0  0  0  0  0  0  0  0
   11.7737   -7.1968   48.3667 C   0  0  0  0  0  0  0  0  0  0  0  0
   13.5877   -5.4397   47.8442 O   0  0  0  0  0  0  0  0  0  0  0  0
   11.5490   -1.3265   48.3700 O   0  0  0  0  0  0  0  0  0  0  0  0
   12.3677   -3.6109   48.4436 N   0  0  0  0  0  0  0  0  0  0  0  0
  1  2  1  0
  2  3  2  0
  3  4  1  0
  1  5  2  0
  4  5  1  0
  4  6  2  0
  5  7  1  0
  7  8  2  0
  6  9  1  0
  3 10  1  0
  9 11  2  0
 10 11  1  0
  7 12  1  0
 12 13  2  0
  9 14  1  0
 11 15  1  0
 14 16  1  0
 13 17  1  0
 16 18  1  0
 14 19  2  0
 15 20  2  0
 19 20  1  0
 19 21  1  0
 21 22  2  0
  8 23  1  0
 17 23  2  0
 21 24  1  0
 24 25  1  0
 18 26  2  0
 25 27  1  0
 18 28  1  0
 27 29  2  0
 27 30  1  0
 22 31  1  0
 25 31  2  0
 30 32  1  0
 28 33  1  0
 32 33  1  0
 29 34  1  0
 30 35  2  0
 31 36  1  0
 35 37  1  0
 37 38  1  0
 29 39  1  0
 37 39  2  0
 34 40  1  0
 36 41  2  0
 34 42  2  0
 36 42  1  0
M  END
$$$$
O14757_Pocket2Mol_idx-in-all-generaetd-377
     RDKit          3D

 46 52  0  0  0  0  0  0  0  0999 V2000
    5.3420    0.2589   42.8836 O   0  0  0  0  0  0  0  0  0  0  0  0
    5.1627   -0.7554   43.4753 C   0  0  0  0  0  0  0  0  0  0  0  0
    4.0509   -1.4657   43.4177 N   0  0  0  0  0  0  0  0  0  0  0  0
    5.9969   -1.2317   44.6840 C   0  0  0  0  0  0  0  0  0  0  0  0
    2.9618   -1.1021   42.5918 C   0  0  1  0  0  0  0  0  0  0  0  0
    7.3392   -0.8596   44.8412 C   0  0  0  0  0  0  0  0  0  0  0  0
    1.9754   -2.0820   42.2741 C   0  0  0  0  0  0  0  0  0  0  0  0
    5.5910   -2.4282   45.3439 C   0  0  0  0  0  0  0  0  0  0  0  0
    6.5874   -2.9636   46.1581 C   0  0  0  0  0  0  0  0  0  0  0  0
    4.2763   -3.0680   45.0493 N   0  0  0  0  0  0  0  0  0  0  0  0
    3.6188   -2.5886   44.2024 C   0  0  0  0  0  0  0  0  0  0  0  0
    8.1921   -1.4071   45.7505 C   0  0  0  0  0  0  0  0  0  0  0  0
    1.0154   -1.8839   41.2980 C   0  0  0  0  0  0  0  0  0  0  0  0
    2.5720   -3.3564   43.9063 C   0  0  0  0  0  0  0  0  0  0  0  0
    0.2502   -2.8976   41.0751 C   0  0  0  0  0  0  0  0  0  0  0  0
    6.1761   -4.1775   47.0209 C   0  0  0  0  0  0  0  0  0  0  0  0
    1.7266   -3.1047   43.0115 C   0  0  2  0  0  0  0  0  0  0  0  0
    2.3696   -4.5367   44.7536 N   0  0  0  0  0  0  0  0  0  0  0  0
    1.2264   -5.2346   44.4693 C   0  0  0  0  0  0  0  0  0  0  0  0
    0.7187   -3.8955   42.5465 C   0  0  0  0  0  0  0  0  0  0  0  0
    9.4576   -0.8949   46.0327 N   0  0  0  0  0  0  0  0  0  0  0  0
    0.8625   -6.3901   45.2462 C   0  0  0  0  0  0  0  0  0  0  0  0
    7.6467   -2.5139   46.4892 C   0  0  0  0  0  0  0  0  0  0  0  0
   10.4908   -1.5336   45.8242 C   0  0  0  0  0  0  0  0  0  0  0  0
    0.3057   -4.9299   43.2909 C   0  0  0  0  0  0  0  0  0  0  0  0
   11.5916   -1.4291   46.7436 C   0  0  0  0  0  0  0  0  0  0  0  0
   10.5566   -2.3672   44.8649 O   0  0  0  0  0  0  0  0  0  0  0  0
   12.8421   -1.9355   46.2823 C   0  0  0  0  0  0  0  0  0  0  0  0
   13.4833   -2.8582   46.9841 C   0  0  0  0  0  0  0  0  0  0  0  0
   11.4002   -1.1447   48.0540 C   0  0  0  0  0  0  0  0  0  0  0  0
   10.2867   -0.4569   48.4999 O   0  0  0  0  0  0  0  0  0  0  0  0
   12.3327   -1.4798   48.9564 C   0  0  0  0  0  0  0  0  0  0  0  0
   14.7901   -3.3162   46.6439 C   0  0  0  0  0  0  0  0  0  0  0  0
   12.1651   -1.3050   50.3239 O   0  0  0  0  0  0  0  0  0  0  0  0
   15.6765   -2.5740   46.0979 C   0  0  0  0  0  0  0  0  0  0  0  0
   13.4417   -2.4710   48.5369 C   0  0  0  0  0  0  0  0  0  0  0  0
   15.5553   -1.2853   45.8338 C   0  0  0  0  0  0  0  0  0  0  0  0
   15.4119   -0.8806   44.5116 C   0  0  0  0  0  0  0  0  0  0  0  0
    2.4631    0.2112   42.8539 C   0  0  0  0  0  0  0  0  0  0  0  0
   14.8794    0.3049   44.1896 C   0  0  0  0  0  0  0  0  0  0  0  0
   14.4631    0.5434   42.6927 C   0  0  0  0  0  0  0  0  0  0  0  0
   14.3201    1.2140   45.0775 C   0  0  0  0  0  0  0  0  0  0  0  0
   14.7075    0.9621   46.4450 C   0  0  0  0  0  0  0  0  0  0  0  0
   14.2502    1.8621   47.4978 O   0  0  0  0  0  0  0  0  0  0  0  0
   15.2906   -0.2792   46.7888 C   0  0  0  0  0  0  0  0  0  0  0  0
   13.0442    2.2821   47.4771 C   0  0  0  0  0  0  0  0  0  0  0  0
  1  2  2  0
  2  3  1  0
  2  4  1  0
  3  5  1  0
  4  6  2  0
  5  7  1  0
  4  8  1  0
  8  9  2  0
  8 10  1  0
  3 11  1  0
 10 11  2  0
  6 12  1  0
  7 13  2  0
 11 14  1  0
 13 15  1  0
  9 16  1  0
 17  7  1  6
 14 17  1  0
 14 18  2  0
 18 19  1  0
 15 20  2  0
 17 20  1  0
 12 21  1  0
 19 22  1  0
  9 23  1  0
 12 23  2  0
 21 24  1  0
 19 25  2  0
 20 25  1  0
 24 26  1  0
 24 27  2  0
 26 28  2  0
 28 29  1  0
 26 30  1  0
 30 31  1  0
 30 32  2  0
 29 33  1  0
 32 34  1  0
 33 35  2  3
 29 36  2  0
 32 36  1  0
 35 37  1  0
 37 38  2  0
  5 39  1  1
 38 40  1  0
 40 41  1  0
 40 42  2  0
 42 43  1  0
 43 44  1  0
 37 45  1  0
 43 45  2  0
 44 46  1  0
M  END
$$$$
O14757_Pocket2Mol_idx-in-all-generaetd-378
     RDKit          3D

 22 26  0  0  0  0  0  0  0  0999 V2000
    4.5156    0.0550   42.9895 N   0  0  0  0  0  0  0  0  0  0  0  0
    5.0618   -0.8645   43.5295 C   0  0  0  0  0  0  0  0  0  0  0  0
    4.4350   -2.0604   43.7783 C   0  0  0  0  0  0  0  0  0  0  0  0
    3.1949   -1.8657   43.0982 C   0  0  0  0  0  0  0  0  0  0  0  0
    4.9542   -3.1463   44.5335 C   0  0  0  0  0  0  0  0  0  0  0  0
    6.4558   -0.5585   44.1886 N   0  0  0  0  0  0  0  0  0  0  0  0
    4.2721   -4.3244   44.6685 C   0  0  0  0  0  0  0  0  0  0  0  0
    2.1703   -2.7509   42.8781 C   0  0  0  0  0  0  0  0  0  0  0  0
    5.9828   -2.9133   45.5213 C   0  0  0  0  0  0  0  0  0  0  0  0
    6.9086   -1.5074   45.1325 C   0  0  0  0  0  0  0  0  0  0  0  0
    3.2765   -0.4576   42.4761 C   0  0  0  0  0  0  0  0  0  0  0  0
    6.4419   -3.9195   46.2207 C   0  0  0  0  0  0  0  0  0  0  0  0
    2.2978    0.1055   41.9789 N   0  0  0  0  0  0  0  0  0  0  0  0
    4.6348   -5.2697   45.5724 C   0  0  0  0  0  0  0  0  0  0  0  0
    7.9237   -1.3626   46.0251 C   0  0  0  0  0  0  0  0  0  0  0  0
    1.1461   -0.6630   41.7112 C   0  0  0  0  0  0  0  0  0  0  0  0
    1.0232   -2.0141   42.1688 C   0  0  0  0  0  0  0  0  0  0  0  0
    8.6268   -0.3975   45.9645 O   0  0  0  0  0  0  0  0  0  0  0  0
    5.7312   -5.0412   46.3931 C   0  0  0  0  0  0  0  0  0  0  0  0
    8.3426   -2.4677   46.8682 N   0  0  0  0  0  0  0  0  0  0  0  0
    7.6510   -3.5507   47.0559 C   0  0  0  0  0  0  0  0  0  0  0  0
    0.1626   -2.7050   41.8129 O   0  0  0  0  0  0  0  0  0  0  0  0
  1  2  2  0
  2  3  1  0
  3  4  2  0
  3  5  1  0
  2  6  1  0
  5  7  2  0
  4  8  1  0
  5  9  1  0
  6 10  2  0
  9 10  1  0
  1 11  1  0
  4 11  1  0
  9 12  2  0
 11 13  2  0
  7 14  1  0
 10 15  1  0
 13 16  1  0
  8 17  1  0
 16 17  1  0
 15 18  2  0
 12 19  1  0
 14 19  2  0
 15 20  1  0
 12 21  1  0
 20 21  2  0
 17 22  2  0
M  END
$$$$
O14757_Pocket2Mol_idx-in-all-generaetd-379
     RDKit          3D

 40 47  0  0  0  0  0  0  0  0999 V2000
    1.5482   -0.3111   41.9233 C   0  0  0  0  0  0  0  0  0  0  0  0
    2.7284    0.2018   42.1525 N   0  0  0  0  0  0  0  0  0  0  0  0
    3.7893   -0.3016   42.7005 C   0  0  0  0  0  0  0  0  0  0  0  0
    3.3781   -1.7350   43.0000 C   0  0  0  0  0  0  0  0  0  0  0  0
    2.0339   -1.9619   42.6217 C   0  0  0  0  0  0  0  0  0  0  0  0
    4.1166   -2.4997   43.8458 C   0  0  0  0  0  0  0  0  0  0  0  0
    1.1731   -3.0051   42.5773 C   0  0  0  0  0  0  0  0  0  0  0  0
    0.4701   -3.2344   41.4901 C   0  0  0  0  0  0  0  0  0  0  0  0
    5.3799   -1.7814   44.2691 C   0  0  0  0  0  0  0  0  0  0  0  0
    5.0159   -0.0180   43.1201 N   0  0  0  0  0  0  0  0  0  0  0  0
    5.7693   -0.6937   43.8418 C   0  0  0  0  0  0  0  0  0  0  0  0
    0.8078   -3.6166   43.6782 C   0  0  0  0  0  0  0  0  0  0  0  0
    0.0663   -4.7011   43.7415 N   0  0  0  0  0  0  0  0  0  0  0  0
    6.2223   -2.6843   45.1565 C   0  0  0  0  0  0  0  0  0  0  0  0
    6.9599   -0.2351   44.2608 N   0  0  0  0  0  0  0  0  0  0  0  0
    5.9065   -3.9037   45.7499 N   0  0  0  0  0  0  0  0  0  0  0  0
   -0.5459   -5.1185   42.5870 C   0  0  0  0  0  0  0  0  0  0  0  0
    5.7480   -4.0340   46.9810 C   0  0  0  0  0  0  0  0  0  0  0  0
    7.4448   -1.8511   45.4198 C   0  0  0  0  0  0  0  0  0  0  0  0
    7.7572   -0.7827   45.0128 C   0  0  0  0  0  0  0  0  0  0  0  0
    8.4076   -2.7217   46.4541 C   0  0  0  0  0  0  0  0  0  0  0  0
    9.3167   -2.0988   47.1049 N   0  0  0  0  0  0  0  0  0  0  0  0
   -0.4719   -4.3893   41.5406 C   0  0  0  0  0  0  0  0  0  0  0  0
    8.3667   -4.0284   46.5743 N   0  0  0  0  0  0  0  0  0  0  0  0
    9.5309   -4.3147   47.3094 C   0  0  0  0  0  0  0  0  0  0  0  0
    5.3113   -3.3789   47.8005 O   0  0  0  0  0  0  0  0  0  0  0  0
    9.9022   -5.6301   47.7684 C   0  0  0  0  0  0  0  0  0  0  0  0
    5.4470   -5.5868   47.2096 C   0  0  0  0  0  0  0  0  0  0  0  0
   11.2254   -5.8679   48.0402 C   0  0  0  0  0  0  0  0  0  0  0  0
    8.9736   -6.6532   47.8548 C   0  0  0  0  0  0  0  0  0  0  0  0
   10.0616   -3.0670   47.6360 C   0  0  0  0  0  0  0  0  0  0  0  0
    7.5566   -6.3564   47.5477 N   0  0  0  0  0  0  0  0  0  0  0  0
    6.4157   -6.1721   48.0913 C   0  0  0  0  0  0  0  0  0  0  0  0
   12.3275   -4.8510   47.9324 C   0  0  0  0  0  0  0  0  0  0  0  0
    9.4585   -7.9662   48.0726 C   0  0  0  0  0  0  0  0  0  0  0  0
   11.5288   -2.7910   48.1740 C   0  0  0  0  0  0  0  0  0  0  0  0
   10.7288   -8.1991   48.4378 C   0  0  0  0  0  0  0  0  0  0  0  0
   11.2242   -9.5767   48.7434 O   0  0  0  0  0  0  0  0  0  0  0  0
   11.7737   -7.1968   48.3667 C   0  0  0  0  0  0  0  0  0  0  0  0
   12.2771   -3.6520   48.3534 N   0  0  0  0  0  0  0  0  0  0  0  0
  1  2  1  0
  2  3  2  0
  3  4  1  0
  1  5  2  0
  4  5  1  0
  4  6  2  0
  5  7  1  0
  7  8  2  0
  6  9  1  0
  3 10  1  0
  9 11  2  0
 10 11  1  0
  7 12  1  0
 12 13  2  0
  9 14  1  0
 11 15  1  0
 14 16  1  0
 13 17  1  0
 16 18  1  0
 14 19  2  0
 15 20  2  0
 19 20  1  0
 19 21  1  0
 21 22  2  0
  8 23  1  0
 17 23  2  0
 21 24  1  0
 24 25  1  0
 18 26  2  0
 25 27  1  0
 18 28  1  0
 27 29  2  0
 27 30  1  0
 22 31  1  0
 25 31  2  0
 30 32  1  0
 28 33  1  0
 32 33  1  0
 29 34  1  0
 30 35  2  0
 31 36  1  0
 35 37  1  0
 37 38  1  0
 29 39  1  0
 37 39  2  0
 34 40  1  0
 36 40  2  0
M  END
$$$$
O14757_Pocket2Mol_idx-in-all-generaetd-380
     RDKit          3D

 37 43  0  0  0  0  0  0  0  0999 V2000
    1.5482   -0.3111   41.9233 C   0  0  0  0  0  0  0  0  0  0  0  0
    2.7284    0.2018   42.1525 N   0  0  0  0  0  0  0  0  0  0  0  0
    3.7893   -0.3016   42.7005 C   0  0  0  0  0  0  0  0  0  0  0  0
    3.3781   -1.7350   43.0000 C   0  0  0  0  0  0  0  0  0  0  0  0
    2.0339   -1.9619   42.6217 C   0  0  0  0  0  0  0  0  0  0  0  0
    4.1166   -2.4997   43.8458 C   0  0  0  0  0  0  0  0  0  0  0  0
    1.1731   -3.0051   42.5773 C   0  0  0  0  0  0  0  0  0  0  0  0
    0.4701   -3.2344   41.4901 C   0  0  0  0  0  0  0  0  0  0  0  0
    5.3799   -1.7814   44.2691 C   0  0  0  0  0  0  0  0  0  0  0  0
    5.0159   -0.0180   43.1201 N   0  0  0  0  0  0  0  0  0  0  0  0
    5.7693   -0.6937   43.8418 C   0  0  0  0  0  0  0  0  0  0  0  0
    0.8078   -3.6166   43.6782 C   0  0  0  0  0  0  0  0  0  0  0  0
    0.0663   -4.7011   43.7415 N   0  0  0  0  0  0  0  0  0  0  0  0
    6.2223   -2.6843   45.1565 C   0  0  0  0  0  0  0  0  0  0  0  0
    6.9599   -0.2351   44.2608 N   0  0  0  0  0  0  0  0  0  0  0  0
    5.9065   -3.9037   45.7499 N   0  0  0  0  0  0  0  0  0  0  0  0
   -0.5459   -5.1185   42.5870 C   0  0  0  0  0  0  0  0  0  0  0  0
    5.7480   -4.0340   46.9810 C   0  0  0  0  0  0  0  0  0  0  0  0
    7.4448   -1.8511   45.4198 C   0  0  0  0  0  0  0  0  0  0  0  0
    7.7572   -0.7827   45.0128 C   0  0  0  0  0  0  0  0  0  0  0  0
    8.4076   -2.7217   46.4541 C   0  0  0  0  0  0  0  0  0  0  0  0
    9.3167   -2.0988   47.1049 N   0  0  0  0  0  0  0  0  0  0  0  0
   -0.4719   -4.3893   41.5406 C   0  0  0  0  0  0  0  0  0  0  0  0
    8.3667   -4.0284   46.5743 N   0  0  0  0  0  0  0  0  0  0  0  0
    9.5309   -4.3147   47.3094 C   0  0  0  0  0  0  0  0  0  0  0  0
    5.3113   -3.3789   47.8005 O   0  0  0  0  0  0  0  0  0  0  0  0
    9.9022   -5.6301   47.7684 C   0  0  0  0  0  0  0  0  0  0  0  0
    5.4470   -5.5868   47.2096 C   0  0  0  0  0  0  0  0  0  0  0  0
   11.2254   -5.8679   48.0402 C   0  0  0  0  0  0  0  0  0  0  0  0
    8.9736   -6.6532   47.8548 C   0  0  0  0  0  0  0  0  0  0  0  0
   10.0616   -3.0670   47.6360 C   0  0  0  0  0  0  0  0  0  0  0  0
    7.5566   -6.3564   47.5477 N   0  0  0  0  0  0  0  0  0  0  0  0
    6.6446   -6.7176   48.4005 C   0  0  0  0  0  0  0  0  0  0  0  0
   11.6653   -7.1422   48.3512 C   0  0  0  0  0  0  0  0  0  0  0  0
    9.3831   -7.8679   48.1519 C   0  0  0  0  0  0  0  0  0  0  0  0
    5.3188   -6.0082   48.4094 C   0  0  0  0  0  0  0  0  0  0  0  0
   10.7205   -8.1325   48.4993 C   0  0  0  0  0  0  0  0  0  0  0  0
  1  2  1  0
  2  3  2  0
  3  4  1  0
  1  5  2  0
  4  5  1  0
  4  6  2  0
  5  7  1  0
  7  8  2  0
  6  9  1  0
  3 10  1  0
  9 11  2  0
 10 11  1  0
  7 12  1  0
 12 13  2  0
  9 14  1  0
 11 15  1  0
 14 16  1  0
 13 17  1  0
 16 18  1  0
 14 19  2  0
 15 20  2  0
 19 20  1  0
 19 21  1  0
 21 22  2  0
  8 23  1  0
 17 23  2  0
 21 24  1  0
 24 25  1  0
 18 26  2  0
 25 27  1  0
 18 28  1  0
 27 29  2  0
 27 30  1  0
 22 31  1  0
 25 31  2  0
 30 32  1  0
 32 33  1  0
 29 34  1  0
 30 35  2  0
 28 36  1  0
 33 36  1  0
 34 37  2  0
 35 37  1  0
M  END
$$$$
O14757_Pocket2Mol_idx-in-all-generaetd-381
     RDKit          3D

 40 48  0  0  0  0  0  0  0  0999 V2000
    4.8037   -0.1366   42.7100 N   0  0  0  0  0  0  0  0  0  0  0  0
    3.6577   -0.7759   42.7186 C   0  0  0  0  0  0  0  0  0  0  0  0
    3.6660   -1.8665   43.4760 C   0  0  0  0  0  0  0  0  0  0  0  0
    2.7271   -2.8718   43.6599 C   0  0  0  0  0  0  0  0  0  0  0  0
    2.4846   -0.2994   42.1254 N   0  0  0  0  0  0  0  0  0  0  0  0
    5.0524   -1.7697   43.9367 C   0  0  0  0  0  0  0  0  0  0  0  0
    1.4917   -2.9000   43.0914 C   0  0  0  0  0  0  0  0  0  0  0  0
    3.1274   -3.9503   44.5163 C   0  0  0  0  0  0  0  0  0  0  0  0
    1.0744   -1.9066   42.1491 C   0  0  2  0  0  0  0  0  0  0  0  0
    5.6624   -0.7003   43.4895 C   0  0  0  0  0  0  0  0  0  0  0  0
    5.5753   -2.5784   45.0324 C   0  0  0  0  0  0  0  0  0  0  0  0
    0.4030   -3.6297   43.4883 N   0  0  0  0  0  0  0  0  0  0  0  0
    1.5052   -0.8077   41.7519 C   0  0  0  0  0  0  0  0  0  0  0  0
   -0.5645   -3.4039   42.5585 N   0  0  0  0  0  0  0  0  0  0  0  0
    2.5059   -5.1012   44.7935 C   0  0  0  0  0  0  0  0  0  0  0  0
    4.4581   -3.8218   45.2947 C   0  0  0  0  0  0  0  0  0  0  0  0
   -0.3089   -2.3979   41.8128 C   0  0  0  0  0  0  0  0  0  0  0  0
    6.6435   -2.6577   45.6991 C   0  0  0  0  0  0  0  0  0  0  0  0
    7.0869   -3.7008   46.4717 C   0  0  0  0  0  0  0  0  0  0  0  0
    7.5912   -1.5296   45.5455 C   0  0  0  0  0  0  0  0  0  0  0  0
    8.7765   -1.4352   46.2248 C   0  0  0  0  0  0  0  0  0  0  0  0
    6.3069   -4.7944   46.6836 O   0  0  0  0  0  0  0  0  0  0  0  0
    4.8984   -4.5252   46.1302 C   0  0  0  0  0  0  0  0  0  0  0  0
    4.2122   -5.9932   46.2216 C   0  0  0  0  0  0  0  0  0  0  0  0
    3.0046   -6.0549   45.6421 C   0  0  0  0  0  0  0  0  0  0  0  0
    8.2374   -3.8078   47.1146 C   0  0  0  0  0  0  0  0  0  0  0  0
    9.1909   -2.6332   47.0292 C   0  0  0  0  0  0  0  0  0  0  0  0
   10.4575   -2.6198   47.6824 O   0  0  0  0  0  0  0  0  0  0  0  0
   11.4873   -2.2059   46.9341 C   0  0  0  0  0  0  0  0  0  0  0  0
   12.2817   -1.4398   47.4308 O   0  0  0  0  0  0  0  0  0  0  0  0
   13.2946   -1.0299   46.6543 C   0  0  0  0  0  0  0  0  0  0  0  0
   13.0925   -1.0831   45.3218 C   0  0  0  0  0  0  0  0  0  0  0  0
   11.8014   -2.7848   45.6647 C   0  0  0  0  0  0  0  0  0  0  0  0
   12.3675   -2.0988   44.8604 C   0  0  0  0  0  0  0  0  0  0  0  0
   14.1163    0.0513   47.2686 C   0  0  0  0  0  0  0  0  0  0  0  0
   12.5458   -2.3809   43.5739 O   0  0  0  0  0  0  0  0  0  0  0  0
   14.8920    0.6342   46.4012 C   0  0  0  0  0  0  0  0  0  0  0  0
   15.8341    1.6381   46.9968 O   0  0  0  0  0  0  0  0  0  0  0  0
   14.1915   -0.4010   44.5165 C   0  0  0  0  0  0  0  0  0  0  0  0
   14.9440    0.4419   44.9437 C   0  0  0  0  0  0  0  0  0  0  0  0
  1  2  2  0
  2  3  1  0
  3  4  2  0
  2  5  1  0
  3  6  1  0
  4  7  1  0
  4  8  1  0
  7  9  1  0
  1 10  1  0
  6 10  1  0
  6 11  2  0
  7 12  2  0
  5 13  2  0
  9 13  1  1
 12 14  1  0
  8 15  2  0
  8 16  1  0
 11 16  1  0
  9 17  1  0
 14 17  2  0
 11 18  1  0
 18 19  2  0
 18 20  1  0
 20 21  2  0
 19 22  1  0
 16 23  2  0
 22 23  1  0
 23 24  1  0
 15 25  1  0
 24 25  2  0
 19 26  1  0
 21 27  1  0
 26 27  2  0
 27 28  1  0
 28 29  1  0
 29 30  1  0
 30 31  1  0
 31 32  2  0
 29 33  2  0
 32 34  1  0
 33 34  1  0
 31 35  1  0
 34 36  2  0
 35 37  2  0
 37 38  1  0
 32 39  1  0
 37 40  1  0
 39 40  2  0
M  END
$$$$
O14757_Pocket2Mol_idx-in-all-generaetd-382
     RDKit          3D

 41 48  0  0  0  0  0  0  0  0999 V2000
    4.8173    0.2791   42.6993 N   0  0  0  0  0  0  0  0  0  0  0  0
    5.3297   -0.7477   43.3688 C   0  0  0  0  0  0  0  0  0  0  0  0
    3.4732   -0.2235   42.4530 C   0  0  0  0  0  0  0  0  0  0  0  0
    4.4984   -1.7876   43.6214 C   0  0  0  0  0  0  0  0  0  0  0  0
    3.3438   -1.5190   42.9379 C   0  0  0  0  0  0  0  0  0  0  0  0
    2.1381   -2.3401   42.8254 C   0  0  0  0  0  0  0  0  0  0  0  0
    2.3894    0.3572   41.9843 N   0  0  0  0  0  0  0  0  0  0  0  0
    4.9180   -3.0430   44.3829 C   0  0  0  0  0  0  0  0  0  0  0  0
    5.9444   -2.9314   45.3934 C   0  0  0  0  0  0  0  0  0  0  0  0
    4.2808   -4.1329   44.3252 C   0  0  0  0  0  0  0  0  0  0  0  0
    3.1588   -4.4221   43.4852 O   0  0  0  0  0  0  0  0  0  0  0  0
    4.5704   -5.2518   45.1995 C   0  0  0  0  0  0  0  0  0  0  0  0
    1.9853   -3.6792   43.3495 C   0  0  0  0  0  0  0  0  0  0  0  0
    0.9181   -4.3294   43.4638 C   0  0  0  0  0  0  0  0  0  0  0  0
    6.7403   -1.6226   45.5272 C   0  0  2  0  0  0  0  0  0  0  0  0
    0.9752   -1.7845   42.3366 C   0  0  0  0  0  0  0  0  0  0  0  0
    6.2516   -3.7287   46.2722 C   0  0  0  0  0  0  0  0  0  0  0  0
   -0.2404   -2.4179   42.2529 C   0  0  0  0  0  0  0  0  0  0  0  0
   -1.3835   -1.8904   41.6559 N   0  0  0  0  0  0  0  0  0  0  0  0
    3.8706   -6.4216   45.1394 O   0  0  0  0  0  0  0  0  0  0  0  0
    0.9456   -0.2789   41.7649 C   0  0  0  0  0  0  0  0  0  0  0  0
   -0.2678   -3.6969   42.7575 C   0  0  0  0  0  0  0  0  0  0  0  0
    6.3913   -0.7000   44.3807 N   0  0  0  0  0  0  0  0  0  0  0  0
    7.9391   -1.5867   46.0069 C   0  0  0  0  0  0  0  0  0  0  0  0
    8.7787   -0.4879   45.9761 O   0  0  0  0  0  0  0  0  0  0  0  0
    5.3853   -5.1216   46.3780 C   0  0  0  0  0  0  0  0  0  0  0  0
    8.4504   -2.7517   46.6262 N   0  0  0  0  0  0  0  0  0  0  0  0
    7.4807   -3.7374   47.0380 C   0  0  0  0  0  0  0  0  0  0  0  0
    9.7261   -2.6138   47.3732 C   0  0  0  0  0  0  0  0  0  0  0  0
    9.9606   -3.7577   48.0581 C   0  0  0  0  0  0  0  0  0  0  0  0
   11.0999   -4.4648   47.7368 O   0  0  0  0  0  0  0  0  0  0  0  0
   10.9199   -5.0316   46.4526 C   0  0  0  0  0  0  0  0  0  0  0  0
   10.2272   -6.0822   46.3751 C   0  0  0  0  0  0  0  0  0  0  0  0
   11.3454   -4.3181   45.2884 C   0  0  0  0  0  0  0  0  0  0  0  0
    9.6833   -6.6841   47.5703 O   0  0  0  0  0  0  0  0  0  0  0  0
   10.2626   -7.0665   45.3234 C   0  0  0  0  0  0  0  0  0  0  0  0
    9.1410   -7.9540   47.6979 C   0  0  0  0  0  0  0  0  0  0  0  0
   11.9885   -3.0879   45.2862 O   0  0  0  0  0  0  0  0  0  0  0  0
   10.9697   -6.4435   44.2446 C   0  0  0  0  0  0  0  0  0  0  0  0
   10.9541   -7.2637   43.0643 F   0  0  0  0  0  0  0  0  0  0  0  0
   11.4476   -5.2095   44.1871 C   0  0  0  0  0  0  0  0  0  0  0  0
  1  2  2  0
  1  3  1  0
  2  4  1  0
  3  5  1  0
  4  5  2  0
  5  6  1  0
  3  7  2  0
  4  8  1  0
  8  9  1  0
  8 10  2  0
 10 11  1  0
 10 12  1  0
  6 13  1  0
 11 13  1  0
 13 14  2  0
  9 15  1  0
  6 16  2  0
  9 17  2  0
 16 18  1  0
 18 19  1  0
 12 20  1  0
  7 21  1  0
 16 21  1  0
 14 22  1  0
 18 22  2  0
  2 23  1  0
 15 23  1  6
 15 24  1  0
 24 25  2  0
 12 26  2  0
 17 26  1  0
 24 27  1  0
 17 28  1  0
 27 28  1  0
 27 29  1  0
 29 30  1  0
 30 31  1  0
 31 32  1  0
 32 33  2  0
 32 34  1  0
 33 35  1  0
 33 36  1  0
 35 37  1  0
 34 38  1  0
 36 39  2  0
 39 40  1  0
 34 41  2  0
 39 41  1  0
M  END
$$$$
O14757_Pocket2Mol_idx-in-all-generaetd-383
     RDKit          3D

 35 39  0  0  0  0  0  0  0  0999 V2000
    5.5575   -0.4055   43.2321 N   0  0  0  0  0  0  0  0  0  0  0  0
    4.5233    0.0727   42.5988 N   0  0  0  0  0  0  0  0  0  0  0  0
    5.1726   -1.5114   43.9314 C   0  0  0  0  0  0  0  0  0  0  0  0
    5.9080   -2.2268   44.9217 C   0  0  0  0  0  0  0  0  0  0  0  0
    5.3635   -3.3861   45.5121 C   0  0  0  0  0  0  0  0  0  0  0  0
    7.1791   -1.7734   45.4544 C   0  0  0  0  0  0  0  0  0  0  0  0
    3.4069   -0.5377   42.5980 C   0  0  0  0  0  0  0  0  0  0  0  0
    2.1839   -0.4257   41.9942 C   0  0  0  0  0  0  0  0  0  0  0  0
    3.7449   -1.7453   43.5024 C   0  0  0  0  0  0  0  0  0  0  0  0
    7.8525   -0.6503   45.0420 O   0  0  0  0  0  0  0  0  0  0  0  0
    7.8789   -2.5576   46.3941 C   0  0  0  0  0  0  0  0  0  0  0  0
    2.8045   -2.7414   43.6928 C   0  0  0  0  0  0  0  0  0  0  0  0
    9.2115   -2.0969   46.8642 C   0  0  0  0  0  0  0  0  0  0  0  0
    4.0793   -3.8977   45.1232 C   0  0  0  0  0  0  0  0  0  0  0  0
    9.4064   -1.6424   47.9232 O   0  0  0  0  0  0  0  0  0  0  0  0
    3.1160   -3.7348   44.5196 N   0  0  0  0  0  0  0  0  0  0  0  0
   10.2271   -2.0181   45.9902 O   0  0  0  0  0  0  0  0  0  0  0  0
    1.5846   -2.6820   43.0143 C   0  0  0  0  0  0  0  0  0  0  0  0
   11.4761   -2.1798   46.4472 C   0  0  0  0  0  0  0  0  0  0  0  0
    1.2997   -1.5506   42.1525 C   0  0  0  0  0  0  0  0  0  0  0  0
    0.5555   -3.6734   43.1531 C   0  0  0  0  0  0  0  0  0  0  0  0
   -0.1252   -4.0680   42.0341 O   0  0  0  0  0  0  0  0  0  0  0  0
    0.3090   -4.1637   44.1784 O   0  0  0  0  0  0  0  0  0  0  0  0
    5.8996   -4.0688   46.5513 C   0  0  0  0  0  0  0  0  0  0  0  0
    7.2191   -3.6737   47.0406 C   0  0  0  0  0  0  0  0  0  0  0  0
   12.4471   -1.3624   45.7994 C   0  0  0  0  0  0  0  0  0  0  0  0
   11.7898   -3.1534   47.3130 C   0  0  0  0  0  0  0  0  0  0  0  0
   13.7713   -1.5370   46.1538 C   0  0  0  0  0  0  0  0  0  0  0  0
   14.7796   -0.7058   45.5605 C   0  0  0  0  0  0  0  0  0  0  0  0
   13.2180   -3.3202   47.5456 C   0  0  0  0  0  0  0  0  0  0  0  0
   14.1075   -2.5669   47.0595 C   0  0  0  0  0  0  0  0  0  0  0  0
   14.8008   -0.6850   44.2252 C   0  0  0  0  0  0  0  0  0  0  0  0
   15.2847    0.4208   43.5339 C   0  0  0  0  0  0  0  0  0  0  0  0
   14.5201    0.8784   42.4537 C   0  0  0  0  0  0  0  0  0  0  0  0
   14.8180    2.2869   42.0291 C   0  0  0  0  0  0  0  0  0  0  0  0
  1  2  2  0
  1  3  1  0
  3  4  1  0
  4  5  2  0
  4  6  1  0
  2  7  1  0
  7  8  2  0
  3  9  2  0
  7  9  1  0
  6 10  1  0
  6 11  2  0
  9 12  1  0
 11 13  1  0
  5 14  1  0
 13 15  2  0
 12 16  1  0
 14 16  2  0
 13 17  1  0
 12 18  1  0
 17 19  1  0
  8 20  1  0
 18 20  2  0
 18 21  1  0
 21 22  1  0
 21 23  2  0
  5 24  1  0
 11 25  1  0
 24 25  2  0
 19 26  2  0
 19 27  1  0
 26 28  1  0
 28 29  1  0
 27 30  2  0
 28 31  2  0
 30 31  1  0
 29 32  1  0
 32 33  1  0
 33 34  2  3
 34 35  1  0
M  END
$$$$
O14757_Pocket2Mol_idx-in-all-generaetd-384
     RDKit          3D

 27 32  0  0  0  0  0  0  0  0999 V2000
    5.3420    0.2589   42.8836 N   0  0  0  0  0  0  0  0  0  0  0  0
    5.6740   -0.8311   43.5645 C   0  0  0  0  0  0  0  0  0  0  0  0
    4.8288   -1.8236   43.8416 C   0  0  0  0  0  0  0  0  0  0  0  0
    3.6296   -1.5812   43.1756 C   0  0  0  0  0  0  0  0  0  0  0  0
    5.0882   -3.0359   44.6381 C   0  0  0  0  0  0  0  0  0  0  0  0
    6.1485   -2.9700   45.5258 C   0  0  0  0  0  0  0  0  0  0  0  0
    4.2991   -4.0949   44.5899 C   0  0  0  0  0  0  0  0  0  0  0  0
    2.3915   -2.2145   43.0037 C   0  0  0  0  0  0  0  0  0  0  0  0
    3.1185   -4.3300   43.8771 C   0  0  0  0  0  0  0  0  0  0  0  0
    2.6120   -5.5925   44.1861 O   0  0  0  0  0  0  0  0  0  0  0  0
    3.9103   -0.2359   42.6290 C   0  0  0  0  0  0  0  0  0  0  0  0
    2.2344   -3.4540   43.3650 N   0  0  0  0  0  0  0  0  0  0  0  0
    0.8119   -3.8495   43.1300 C   0  0  0  0  0  0  0  0  0  0  0  0
    1.5466   -1.4135   42.2460 C   0  0  0  0  0  0  0  0  0  0  0  0
    0.1571   -1.9641   41.9807 C   0  0  0  0  0  0  0  0  0  0  0  0
    2.1405    0.0322   41.9578 C   0  0  0  0  0  0  0  0  0  0  0  0
    7.1626   -1.9813   45.6899 C   0  0  0  0  0  0  0  0  0  0  0  0
   -0.5832   -1.3301   41.2297 O   0  0  0  0  0  0  0  0  0  0  0  0
    3.1019    0.4438   42.0540 N   0  0  0  0  0  0  0  0  0  0  0  0
   -0.0165   -3.2085   42.3835 C   0  0  0  0  0  0  0  0  0  0  0  0
    8.3005   -1.9981   46.4703 C   0  0  0  0  0  0  0  0  0  0  0  0
    9.1040   -0.9381   46.5506 C   0  0  0  0  0  0  0  0  0  0  0  0
    9.9193   -0.9929   47.6355 C   0  0  0  0  0  0  0  0  0  0  0  0
    8.3740   -3.2078   47.2771 C   0  0  0  0  0  0  0  0  0  0  0  0
   10.2067   -2.1654   48.3783 C   0  0  0  0  0  0  0  0  0  0  0  0
    9.4683   -3.2076   48.2873 C   0  0  0  0  0  0  0  0  0  0  0  0
    6.8494   -0.9415   44.5553 N   0  0  0  0  0  0  0  0  0  0  0  0
  1  2  2  0
  2  3  1  0
  3  4  2  0
  3  5  1  0
  5  6  1  0
  5  7  2  0
  4  8  1  0
  7  9  1  0
  9 10  2  0
  1 11  1  0
  4 11  1  0
  8 12  1  0
  9 12  1  0
 12 13  1  0
  8 14  2  0
 14 15  1  0
 14 16  1  0
  6 17  2  0
 15 18  2  0
 11 19  2  0
 16 19  1  0
 13 20  2  0
 15 20  1  0
 17 21  1  0
 21 22  2  0
 22 23  1  0
 21 24  1  0
 23 25  2  0
 24 26  2  0
 25 26  1  0
  2 27  1  0
 17 27  1  0
M  END
$$$$
O14757_Pocket2Mol_idx-in-all-generaetd-385
     RDKit          3D

 32 38  0  0  0  0  0  0  0  0999 V2000
    4.8037   -0.1366   42.7100 N   0  0  0  0  0  0  0  0  0  0  0  0
    3.6577   -0.7759   42.7186 C   0  0  0  0  0  0  0  0  0  0  0  0
    3.6660   -1.8665   43.4760 C   0  0  0  0  0  0  0  0  0  0  0  0
    2.7271   -2.8718   43.6599 C   0  0  0  0  0  0  0  0  0  0  0  0
    2.4846   -0.2994   42.1254 N   0  0  0  0  0  0  0  0  0  0  0  0
    5.0524   -1.7697   43.9367 C   0  0  0  0  0  0  0  0  0  0  0  0
    1.4917   -2.9000   43.0914 C   0  0  0  0  0  0  0  0  0  0  0  0
    3.1274   -3.9503   44.5163 C   0  0  0  0  0  0  0  0  0  0  0  0
    1.0744   -1.9066   42.1491 C   0  0  2  0  0  0  0  0  0  0  0  0
    5.6624   -0.7003   43.4895 C   0  0  0  0  0  0  0  0  0  0  0  0
    5.5753   -2.5784   45.0324 C   0  0  0  0  0  0  0  0  0  0  0  0
    0.4030   -3.6297   43.4883 N   0  0  0  0  0  0  0  0  0  0  0  0
    1.5052   -0.8077   41.7519 C   0  0  0  0  0  0  0  0  0  0  0  0
   -0.5645   -3.4039   42.5585 N   0  0  0  0  0  0  0  0  0  0  0  0
    2.5059   -5.1012   44.7935 C   0  0  0  0  0  0  0  0  0  0  0  0
    4.4581   -3.8218   45.2947 C   0  0  0  0  0  0  0  0  0  0  0  0
   -0.3089   -2.3979   41.8128 C   0  0  0  0  0  0  0  0  0  0  0  0
    6.6435   -2.6577   45.6991 C   0  0  0  0  0  0  0  0  0  0  0  0
    7.0869   -3.7008   46.4717 C   0  0  0  0  0  0  0  0  0  0  0  0
    7.5912   -1.5296   45.5455 C   0  0  0  0  0  0  0  0  0  0  0  0
    8.7765   -1.4352   46.2248 C   0  0  0  0  0  0  0  0  0  0  0  0
    6.3069   -4.7944   46.6836 O   0  0  0  0  0  0  0  0  0  0  0  0
    4.8984   -4.5252   46.1302 C   0  0  0  0  0  0  0  0  0  0  0  0
    4.2122   -5.9932   46.2216 C   0  0  0  0  0  0  0  0  0  0  0  0
    8.3395   -3.6608   47.2172 C   0  0  0  0  0  0  0  0  0  0  0  0
    4.6690   -6.8778   47.1549 O   0  0  0  0  0  0  0  0  0  0  0  0
    9.1822   -2.5745   47.1243 C   0  0  0  0  0  0  0  0  0  0  0  0
    2.9603   -6.0414   45.6688 C   0  0  0  0  0  0  0  0  0  0  0  0
   10.4349   -2.3996   47.8362 C   0  0  0  0  0  0  0  0  0  0  0  0
   10.5770   -1.5405   48.6790 O   0  0  0  0  0  0  0  0  0  0  0  0
   11.4736   -2.9717   47.2121 O   0  0  0  0  0  0  0  0  0  0  0  0
   12.1802   -2.3751   46.5176 C   0  0  0  0  0  0  0  0  0  0  0  0
  1  2  2  0
  2  3  1  0
  3  4  2  0
  2  5  1  0
  3  6  1  0
  4  7  1  0
  4  8  1  0
  7  9  1  0
  1 10  1  0
  6 10  1  0
  6 11  2  0
  7 12  2  0
  5 13  2  0
  9 13  1  1
 12 14  1  0
  8 15  2  0
  8 16  1  0
 11 16  1  0
  9 17  1  0
 14 17  2  0
 11 18  1  0
 18 19  2  0
 18 20  1  0
 20 21  2  0
 19 22  1  0
 16 23  2  0
 22 23  1  0
 23 24  1  0
 19 25  1  0
 24 26  1  0
 21 27  1  0
 25 27  2  0
 15 28  1  0
 24 28  2  0
 27 29  1  0
 29 30  2  0
 29 31  1  0
 31 32  1  0
M  END
$$$$
O14757_Pocket2Mol_idx-in-all-generaetd-386
     RDKit          3D

 45 51  0  0  0  0  0  0  0  0999 V2000
    5.3420    0.2589   42.8836 O   0  0  0  0  0  0  0  0  0  0  0  0
    5.1627   -0.7554   43.4753 C   0  0  0  0  0  0  0  0  0  0  0  0
    4.0509   -1.4657   43.4177 N   0  0  0  0  0  0  0  0  0  0  0  0
    5.9969   -1.2317   44.6840 C   0  0  0  0  0  0  0  0  0  0  0  0
    2.9618   -1.1021   42.5918 C   0  0  1  0  0  0  0  0  0  0  0  0
    7.3392   -0.8596   44.8412 C   0  0  0  0  0  0  0  0  0  0  0  0
    1.9754   -2.0820   42.2741 C   0  0  0  0  0  0  0  0  0  0  0  0
    5.5910   -2.4282   45.3439 C   0  0  0  0  0  0  0  0  0  0  0  0
    6.5874   -2.9636   46.1581 C   0  0  0  0  0  0  0  0  0  0  0  0
    4.2763   -3.0680   45.0493 N   0  0  0  0  0  0  0  0  0  0  0  0
    3.6188   -2.5886   44.2024 C   0  0  0  0  0  0  0  0  0  0  0  0
    8.1921   -1.4071   45.7505 C   0  0  0  0  0  0  0  0  0  0  0  0
    1.0154   -1.8839   41.2980 C   0  0  0  0  0  0  0  0  0  0  0  0
    2.5720   -3.3564   43.9063 C   0  0  0  0  0  0  0  0  0  0  0  0
    0.2502   -2.8976   41.0751 C   0  0  0  0  0  0  0  0  0  0  0  0
    6.1761   -4.1775   47.0209 C   0  0  0  0  0  0  0  0  0  0  0  0
    1.7266   -3.1047   43.0115 C   0  0  2  0  0  0  0  0  0  0  0  0
    2.3696   -4.5367   44.7536 N   0  0  0  0  0  0  0  0  0  0  0  0
    1.2264   -5.2346   44.4693 C   0  0  0  0  0  0  0  0  0  0  0  0
    0.7187   -3.8955   42.5465 C   0  0  0  0  0  0  0  0  0  0  0  0
    9.4576   -0.8949   46.0327 N   0  0  0  0  0  0  0  0  0  0  0  0
    0.8625   -6.3901   45.2462 C   0  0  0  0  0  0  0  0  0  0  0  0
    7.6467   -2.5139   46.4892 C   0  0  0  0  0  0  0  0  0  0  0  0
   10.4908   -1.5336   45.8242 C   0  0  0  0  0  0  0  0  0  0  0  0
    0.3057   -4.9299   43.2909 C   0  0  0  0  0  0  0  0  0  0  0  0
   11.5916   -1.4291   46.7436 C   0  0  0  0  0  0  0  0  0  0  0  0
   10.5566   -2.3672   44.8649 O   0  0  0  0  0  0  0  0  0  0  0  0
   12.8421   -1.9355   46.2823 C   0  0  0  0  0  0  0  0  0  0  0  0
   13.4833   -2.8582   46.9841 C   0  0  0  0  0  0  0  0  0  0  0  0
   11.4002   -1.1447   48.0540 C   0  0  0  0  0  0  0  0  0  0  0  0
   10.2867   -0.4569   48.4999 O   0  0  0  0  0  0  0  0  0  0  0  0
   12.3327   -1.4798   48.9564 C   0  0  0  0  0  0  0  0  0  0  0  0
   14.7901   -3.3162   46.6439 C   0  0  0  0  0  0  0  0  0  0  0  0
   12.1651   -1.3050   50.3239 O   0  0  0  0  0  0  0  0  0  0  0  0
   15.6765   -2.5740   46.0979 C   0  0  0  0  0  0  0  0  0  0  0  0
   13.4417   -2.4710   48.5369 C   0  0  0  0  0  0  0  0  0  0  0  0
   15.5553   -1.2853   45.8338 C   0  0  0  0  0  0  0  0  0  0  0  0
   15.4119   -0.8806   44.5116 C   0  0  0  0  0  0  0  0  0  0  0  0
   15.4231    0.5245   44.1215 C   0  0  0  0  0  0  0  0  0  0  0  0
    2.4635    0.2112   42.8525 C   0  0  0  0  0  0  0  0  0  0  0  0
   15.1051    1.3384   44.9492 C   0  0  0  0  0  0  0  0  0  0  0  0
   14.8723    2.7962   44.5534 C   0  0  0  0  0  0  0  0  0  0  0  0
   16.1745   -0.1562   46.4809 C   0  0  0  0  0  0  0  0  0  0  0  0
   15.7724    1.0097   46.1885 C   0  0  0  0  0  0  0  0  0  0  0  0
   13.5051    2.8556   44.2293 O   0  0  0  0  0  0  0  0  0  0  0  0
  1  2  2  0
  2  3  1  0
  2  4  1  0
  3  5  1  0
  4  6  2  0
  5  7  1  0
  4  8  1  0
  8  9  2  0
  8 10  1  0
  3 11  1  0
 10 11  2  0
  6 12  1  0
  7 13  2  0
 11 14  1  0
 13 15  1  0
  9 16  1  0
 17  7  1  6
 14 17  1  0
 14 18  2  0
 18 19  1  0
 15 20  2  0
 17 20  1  0
 12 21  1  0
 19 22  1  0
  9 23  1  0
 12 23  2  0
 21 24  1  0
 19 25  2  0
 20 25  1  0
 24 26  1  0
 24 27  2  0
 26 28  2  0
 28 29  1  0
 26 30  1  0
 30 31  1  0
 30 32  2  0
 29 33  1  0
 32 34  1  0
 33 35  2  3
 29 36  2  0
 32 36  1  0
 35 37  1  0
 37 38  2  0
 38 39  1  0
  5 40  1  1
 39 41  2  0
 41 42  1  0
 37 43  1  0
 41 44  1  0
 43 44  2  0
 42 45  1  0
M  END
$$$$
O14757_Pocket2Mol_idx-in-all-generaetd-387
     RDKit          3D

 27 31  0  0  0  0  0  0  0  0999 V2000
    2.2608    0.0351   42.1039 C   0  0  0  0  0  0  0  0  0  0  0  0
    2.7906   -1.0673   42.3987 N   0  0  0  0  0  0  0  0  0  0  0  0
    3.1210    0.9973   42.3040 N   0  0  0  0  0  0  0  0  0  0  0  0
    4.0827   -0.7954   42.9700 C   0  0  0  0  0  0  0  0  0  0  0  0
    4.9955   -1.7234   43.5259 N   0  0  0  0  0  0  0  0  0  0  0  0
    4.5382   -2.7016   44.3398 C   0  0  0  0  0  0  0  0  0  0  0  0
    5.3738   -2.9294   45.5228 C   0  0  2  0  0  0  0  0  0  0  0  0
    6.6133   -2.1566   45.5018 C   0  0  0  0  0  0  0  0  0  0  0  0
    4.2841    0.3926   42.8877 N   0  0  0  0  0  0  0  0  0  0  0  0
    5.4441   -4.2364   45.9837 C   0  0  0  0  0  0  0  0  0  0  0  0
    1.9678   -2.2711   42.4114 C   0  0  0  0  0  0  0  0  0  0  0  0
    7.1399   -1.4316   44.7431 O   0  0  0  0  0  0  0  0  0  0  0  0
    7.4936   -2.5586   46.5441 N   0  0  0  0  0  0  0  0  0  0  0  0
    5.8242   -4.4706   47.3868 C   0  0  0  0  0  0  0  0  0  0  0  0
    1.0261   -2.3754   41.4347 C   0  0  0  0  0  0  0  0  0  0  0  0
    0.1189   -3.5468   41.4614 C   0  0  0  0  0  0  0  0  0  0  0  0
    2.2389   -3.3785   43.2951 C   0  0  0  0  0  0  0  0  0  0  0  0
    7.2878   -3.8453   47.4168 C   0  0  0  0  0  0  0  0  0  0  0  0
    8.7924   -2.0007   46.7564 C   0  0  0  0  0  0  0  0  0  0  0  0
    1.3661   -4.4521   43.3426 C   0  0  0  0  0  0  0  0  0  0  0  0
    9.8033   -2.6228   46.5614 C   0  0  0  0  0  0  0  0  0  0  0  0
   10.9913   -2.0373   46.1248 C   0  0  0  0  0  0  0  0  0  0  0  0
    3.3424   -3.3266   44.1958 N   0  0  0  0  0  0  0  0  0  0  0  0
    0.4108   -4.5111   42.5299 C   0  0  0  0  0  0  0  0  0  0  0  0
   11.1026   -0.7020   46.0306 C   0  0  0  0  0  0  0  0  0  0  0  0
    8.8585   -0.5415   46.3300 C   0  0  0  0  0  0  0  0  0  0  0  0
   10.0151   -0.0217   46.0976 C   0  0  0  0  0  0  0  0  0  0  0  0
  1  2  1  0
  1  3  2  0
  2  4  1  0
  4  5  1  0
  5  6  1  0
  7  6  1  6
  7  8  1  0
  3  9  1  0
  4  9  2  0
  7 10  1  0
  2 11  1  0
  8 12  2  0
  8 13  1  0
 10 14  1  0
 11 15  2  0
 15 16  1  0
 11 17  1  0
 13 18  1  0
 14 18  1  0
 13 19  1  0
 17 20  2  0
 19 21  2  0
 21 22  1  0
  6 23  2  0
 17 23  1  0
 16 24  2  0
 20 24  1  0
 22 25  2  0
 19 26  1  0
 25 27  1  0
 26 27  2  0
M  END
$$$$
O14757_Pocket2Mol_idx-in-all-generaetd-388
     RDKit          3D

 49 56  0  0  0  0  0  0  0  0999 V2000
    5.3420    0.2589   42.8836 O   0  0  0  0  0  0  0  0  0  0  0  0
    5.1627   -0.7554   43.4753 C   0  0  0  0  0  0  0  0  0  0  0  0
    4.0509   -1.4657   43.4177 N   0  0  0  0  0  0  0  0  0  0  0  0
    5.9969   -1.2317   44.6840 C   0  0  0  0  0  0  0  0  0  0  0  0
    2.9618   -1.1021   42.5918 C   0  0  1  0  0  0  0  0  0  0  0  0
    7.3392   -0.8596   44.8412 C   0  0  0  0  0  0  0  0  0  0  0  0
    1.9754   -2.0820   42.2741 C   0  0  0  0  0  0  0  0  0  0  0  0
    5.5910   -2.4282   45.3439 C   0  0  0  0  0  0  0  0  0  0  0  0
    6.5874   -2.9636   46.1581 C   0  0  0  0  0  0  0  0  0  0  0  0
    4.2763   -3.0680   45.0493 N   0  0  0  0  0  0  0  0  0  0  0  0
    3.6188   -2.5886   44.2024 C   0  0  0  0  0  0  0  0  0  0  0  0
    8.1921   -1.4071   45.7505 C   0  0  0  0  0  0  0  0  0  0  0  0
    1.0154   -1.8839   41.2980 C   0  0  0  0  0  0  0  0  0  0  0  0
    2.5720   -3.3564   43.9063 C   0  0  0  0  0  0  0  0  0  0  0  0
    0.2502   -2.8976   41.0751 C   0  0  0  0  0  0  0  0  0  0  0  0
    6.1761   -4.1775   47.0209 C   0  0  0  0  0  0  0  0  0  0  0  0
    1.7266   -3.1047   43.0115 C   0  0  2  0  0  0  0  0  0  0  0  0
    2.3696   -4.5367   44.7536 N   0  0  0  0  0  0  0  0  0  0  0  0
    1.2264   -5.2346   44.4693 C   0  0  0  0  0  0  0  0  0  0  0  0
    0.7187   -3.8955   42.5465 C   0  0  0  0  0  0  0  0  0  0  0  0
    9.4576   -0.8949   46.0327 N   0  0  0  0  0  0  0  0  0  0  0  0
    0.8625   -6.3901   45.2462 C   0  0  0  0  0  0  0  0  0  0  0  0
    7.6467   -2.5139   46.4892 C   0  0  0  0  0  0  0  0  0  0  0  0
   10.4908   -1.5336   45.8242 C   0  0  0  0  0  0  0  0  0  0  0  0
    0.3057   -4.9299   43.2909 C   0  0  0  0  0  0  0  0  0  0  0  0
   11.5916   -1.4291   46.7436 C   0  0  0  0  0  0  0  0  0  0  0  0
   10.5566   -2.3672   44.8649 O   0  0  0  0  0  0  0  0  0  0  0  0
   12.8421   -1.9355   46.2823 C   0  0  0  0  0  0  0  0  0  0  0  0
   13.4833   -2.8582   46.9841 C   0  0  0  0  0  0  0  0  0  0  0  0
   11.4002   -1.1447   48.0540 C   0  0  0  0  0  0  0  0  0  0  0  0
   10.2867   -0.4569   48.4999 O   0  0  0  0  0  0  0  0  0  0  0  0
   12.3327   -1.4798   48.9564 C   0  0  1  0  0  0  0  0  0  0  0  0
   14.7901   -3.3162   46.6439 C   0  0  0  0  0  0  0  0  0  0  0  0
   12.1651   -1.3050   50.3239 O   0  0  0  0  0  0  0  0  0  0  0  0
   15.6765   -2.5740   46.0979 C   0  0  0  0  0  0  0  0  0  0  0  0
    2.4608    0.2106   42.8512 C   0  0  0  0  0  0  0  0  0  0  0  0
   15.5213   -1.2590   45.7606 C   0  0  0  0  0  0  0  0  0  0  0  0
   14.5349   -0.8899   44.8574 C   0  0  0  0  0  0  0  0  0  0  0  0
   12.9775   -3.3460   48.2127 C   0  0  0  0  0  0  0  0  0  0  0  0
   14.7129   -0.1943   43.8652 C   0  0  0  0  0  0  0  0  0  0  0  0
   13.1163   -1.3789   45.0490 O   0  0  0  0  0  0  0  0  0  0  0  0
   12.7443   -2.7596   49.2688 C   0  0  2  0  0  0  0  0  0  0  0  0
   15.8145    0.5028   43.5830 C   0  0  0  0  0  0  0  0  0  0  0  0
   15.9344    1.4629   42.4540 O   0  0  0  0  0  0  0  0  0  0  0  0
   16.8047    0.2791   44.2836 C   0  0  0  0  0  0  0  0  0  0  0  0
   18.1264    0.9445   44.0834 O   0  0  0  0  0  0  0  0  0  0  0  0
   16.9282   -0.6611   45.4188 C   0  0  0  0  0  0  0  0  0  0  0  0
   15.4950    1.2445   41.3229 C   0  0  0  0  0  0  0  0  0  0  0  0
   11.9464   -3.3435   50.1738 O   0  0  0  0  0  0  0  0  0  0  0  0
  1  2  2  0
  2  3  1  0
  2  4  1  0
  3  5  1  0
  4  6  2  0
  5  7  1  0
  4  8  1  0
  8  9  2  0
  8 10  1  0
  3 11  1  0
 10 11  2  0
  6 12  1  0
  7 13  2  0
 11 14  1  0
 13 15  1  0
  9 16  1  0
 17  7  1  6
 14 17  1  0
 14 18  2  0
 18 19  1  0
 15 20  2  0
 17 20  1  0
 12 21  1  0
 19 22  1  0
  9 23  1  0
 12 23  2  0
 21 24  1  0
 19 25  2  0
 20 25  1  0
 24 26  1  0
 24 27  2  0
 26 28  1  0
 28 29  2  0
 26 30  2  0
 30 31  1  0
 30 32  1  0
 29 33  1  0
 32 34  1  1
 33 35  2  0
  5 36  1  1
 35 37  1  0
 37 38  2  0
 29 39  1  0
 38 40  1  0
 28 41  1  0
 38 41  1  0
 32 42  1  0
 39 42  1  0
 40 43  2  0
 43 44  1  0
 43 45  1  0
 45 46  1  0
 37 47  1  0
 45 47  2  0
 44 48  1  0
 42 49  1  6
M  END
$$$$
O14757_Pocket2Mol_idx-in-all-generaetd-389
     RDKit          3D

 43 51  0  0  0  0  0  0  0  0999 V2000
    1.5482   -0.3111   41.9233 C   0  0  0  0  0  0  0  0  0  0  0  0
    2.7284    0.2018   42.1525 N   0  0  0  0  0  0  0  0  0  0  0  0
    3.7893   -0.3016   42.7005 C   0  0  0  0  0  0  0  0  0  0  0  0
    3.3781   -1.7350   43.0000 C   0  0  0  0  0  0  0  0  0  0  0  0
    2.0339   -1.9619   42.6217 C   0  0  0  0  0  0  0  0  0  0  0  0
    5.0090    0.1219   42.9340 N   0  0  0  0  0  0  0  0  0  0  0  0
    4.2895   -2.4979   43.6707 C   0  0  0  0  0  0  0  0  0  0  0  0
    5.8391   -0.6675   43.6343 C   0  0  0  0  0  0  0  0  0  0  0  0
    6.9849   -0.2377   44.0028 N   0  0  0  0  0  0  0  0  0  0  0  0
    4.0426   -3.8794   44.0832 C   0  0  0  0  0  0  0  0  0  0  0  0
    7.6796   -0.8734   44.9326 C   0  0  0  0  0  0  0  0  0  0  0  0
    1.1064   -2.9576   42.4211 C   0  0  0  0  0  0  0  0  0  0  0  0
    5.5298   -1.9496   44.0315 C   0  0  0  0  0  0  0  0  0  0  0  0
    3.8954   -4.1817   45.4718 C   0  0  0  0  0  0  0  0  0  0  0  0
    0.6765   -3.5480   43.4006 C   0  0  1  0  0  0  0  0  0  0  0  0
    0.5804   -3.2191   41.1635 C   0  0  0  0  0  0  0  0  0  0  0  0
    2.8083   -4.8227   45.9203 N   0  0  0  0  0  0  0  0  0  0  0  0
   -0.1574   -4.5754   42.9329 N   0  0  0  0  0  0  0  0  0  0  0  0
    6.5271   -2.5531   44.9677 C   0  0  0  0  0  0  0  0  0  0  0  0
   -0.2272   -4.3703   41.5137 C   0  0  0  0  0  0  0  0  0  0  0  0
    7.5095   -2.0029   45.3993 C   0  0  0  0  0  0  0  0  0  0  0  0
    8.2550   -2.6982   46.3988 C   0  0  0  0  0  0  0  0  0  0  0  0
    8.8975   -0.3029   45.3267 O   0  0  0  0  0  0  0  0  0  0  0  0
    4.8299   -4.4637   46.4212 C   0  0  0  0  0  0  0  0  0  0  0  0
    4.2707   -4.9248   47.6295 N   0  0  0  0  0  0  0  0  0  0  0  0
    3.2045   -5.2092   47.1521 C   0  0  0  0  0  0  0  0  0  0  0  0
    1.4482   -4.6186   45.4134 C   0  0  1  0  0  0  0  0  0  0  0  0
    1.2398   -3.5043   44.6236 O   0  0  0  0  0  0  0  0  0  0  0  0
    6.3317   -3.9297   46.0870 C   0  0  2  0  0  0  0  0  0  0  0  0
    9.5296   -2.5449   46.9776 C   0  0  0  0  0  0  0  0  0  0  0  0
    9.7921   -1.7530   47.9018 O   0  0  0  0  0  0  0  0  0  0  0  0
    7.3972   -3.8130   46.7939 C   0  0  0  0  0  0  0  0  0  0  0  0
    1.2392   -5.7793   44.5610 C   0  0  0  0  0  0  0  0  0  0  0  0
   10.4934   -3.0755   46.3117 O   0  0  0  0  0  0  0  0  0  0  0  0
   10.9462   -4.1456   46.8830 C   0  0  0  0  0  0  0  0  0  0  0  0
   12.2796   -4.1987   47.0522 C   0  0  0  0  0  0  0  0  0  0  0  0
   12.9062   -5.3205   47.0633 C   0  0  0  0  0  0  0  0  0  0  0  0
   14.4025   -5.4237   47.2465 C   0  0  0  0  0  0  0  0  0  0  0  0
   12.2393   -6.5318   46.8839 C   0  0  0  0  0  0  0  0  0  0  0  0
   10.2182   -5.3404   46.5355 C   0  0  0  0  0  0  0  0  0  0  0  0
   10.9033   -6.5045   46.6780 C   0  0  0  0  0  0  0  0  0  0  0  0
   15.1322   -4.9230   46.2763 O   0  0  0  0  0  0  0  0  0  0  0  0
   14.9332   -6.1187   48.0965 O   0  0  0  0  0  0  0  0  0  0  0  0
  1  2  1  0
  2  3  2  0
  3  4  1  0
  1  5  2  0
  4  5  1  0
  3  6  1  0
  4  7  2  0
  6  8  1  0
  8  9  1  0
  7 10  1  0
  9 11  1  0
  5 12  1  0
  7 13  1  0
  8 13  2  0
 10 14  1  0
 12 15  1  0
 12 16  2  0
 14 17  1  0
 15 18  1  0
 13 19  1  0
 16 20  1  0
 18 20  2  0
 11 21  1  0
 19 21  2  0
 21 22  1  0
 11 23  2  0
 14 24  2  0
 24 25  1  0
 17 26  1  0
 25 26  2  0
 17 27  1  0
 15 28  1  6
 27 28  1  0
 19 29  1  0
 24 29  1  0
 22 30  1  0
 30 31  2  0
 22 32  2  0
 29 32  1  1
 27 33  1  6
 30 34  1  0
 34 35  1  0
 35 36  2  0
 36 37  1  0
 37 38  1  0
 37 39  2  0
 35 40  1  0
 39 41  1  0
 40 41  2  0
 38 42  2  0
 38 43  1  0
M  END
$$$$
O14757_Pocket2Mol_idx-in-all-generaetd-390
     RDKit          3D

 38 43  0  0  0  0  0  0  0  0999 V2000
    1.5482   -0.3111   41.9233 C   0  0  0  0  0  0  0  0  0  0  0  0
    2.7284    0.2018   42.1525 N   0  0  0  0  0  0  0  0  0  0  0  0
    3.7893   -0.3016   42.7005 C   0  0  0  0  0  0  0  0  0  0  0  0
    3.3781   -1.7350   43.0000 C   0  0  0  0  0  0  0  0  0  0  0  0
    2.0339   -1.9619   42.6217 C   0  0  0  0  0  0  0  0  0  0  0  0
    4.1166   -2.4997   43.8458 C   0  0  0  0  0  0  0  0  0  0  0  0
    1.1731   -3.0051   42.5773 C   0  0  0  0  0  0  0  0  0  0  0  0
    0.4701   -3.2344   41.4901 C   0  0  0  0  0  0  0  0  0  0  0  0
    5.3799   -1.7814   44.2691 C   0  0  0  0  0  0  0  0  0  0  0  0
    5.0159   -0.0180   43.1201 N   0  0  0  0  0  0  0  0  0  0  0  0
    5.7693   -0.6937   43.8418 C   0  0  0  0  0  0  0  0  0  0  0  0
    0.8078   -3.6166   43.6782 C   0  0  0  0  0  0  0  0  0  0  0  0
    0.0663   -4.7011   43.7415 N   0  0  0  0  0  0  0  0  0  0  0  0
    6.2223   -2.6843   45.1565 C   0  0  0  0  0  0  0  0  0  0  0  0
    6.9599   -0.2351   44.2608 N   0  0  0  0  0  0  0  0  0  0  0  0
    5.9065   -3.9037   45.7499 N   0  0  0  0  0  0  0  0  0  0  0  0
   -0.5459   -5.1185   42.5870 C   0  0  0  0  0  0  0  0  0  0  0  0
    5.7480   -4.0340   46.9810 C   0  0  0  0  0  0  0  0  0  0  0  0
    7.4448   -1.8511   45.4198 C   0  0  0  0  0  0  0  0  0  0  0  0
    7.7572   -0.7827   45.0128 C   0  0  0  0  0  0  0  0  0  0  0  0
    8.4076   -2.7217   46.4541 C   0  0  0  0  0  0  0  0  0  0  0  0
    9.3167   -2.0988   47.1049 N   0  0  0  0  0  0  0  0  0  0  0  0
   -0.4719   -4.3893   41.5406 C   0  0  0  0  0  0  0  0  0  0  0  0
    8.3667   -4.0284   46.5743 N   0  0  0  0  0  0  0  0  0  0  0  0
    9.5309   -4.3147   47.3094 C   0  0  0  0  0  0  0  0  0  0  0  0
    5.3113   -3.3789   47.8005 O   0  0  0  0  0  0  0  0  0  0  0  0
    9.9022   -5.6301   47.7684 C   0  0  0  0  0  0  0  0  0  0  0  0
    5.4470   -5.5868   47.2096 C   0  0  0  0  0  0  0  0  0  0  0  0
   11.2254   -5.8679   48.0402 C   0  0  0  0  0  0  0  0  0  0  0  0
    8.9736   -6.6532   47.8548 C   0  0  0  0  0  0  0  0  0  0  0  0
   10.0616   -3.0670   47.6360 C   0  0  0  0  0  0  0  0  0  0  0  0
    9.2755   -7.8884   48.2076 C   0  0  0  0  0  0  0  0  0  0  0  0
   12.3151   -4.8393   47.9221 O   0  0  0  0  0  0  0  0  0  0  0  0
    8.2519   -8.9331   48.3446 C   0  0  0  0  0  0  0  0  0  0  0  0
   10.5780   -8.0935   48.4113 C   0  0  0  0  0  0  0  0  0  0  0  0
   11.7297   -7.1780   48.3936 C   0  0  0  0  0  0  0  0  0  0  0  0
    7.3940   -8.7956   49.0801 O   0  0  0  0  0  0  0  0  0  0  0  0
    8.4483   -9.9253   47.4707 O   0  0  0  0  0  0  0  0  0  0  0  0
  1  2  1  0
  2  3  2  0
  3  4  1  0
  1  5  2  0
  4  5  1  0
  4  6  2  0
  5  7  1  0
  7  8  2  0
  6  9  1  0
  3 10  1  0
  9 11  2  0
 10 11  1  0
  7 12  1  0
 12 13  2  0
  9 14  1  0
 11 15  1  0
 14 16  1  0
 13 17  1  0
 16 18  1  0
 14 19  2  0
 15 20  2  0
 19 20  1  0
 19 21  1  0
 21 22  2  0
  8 23  1  0
 17 23  2  0
 21 24  1  0
 24 25  1  0
 18 26  2  0
 25 27  1  0
 18 28  1  0
 27 29  2  0
 27 30  1  0
 22 31  1  0
 25 31  2  0
 30 32  2  0
 29 33  1  0
 32 34  1  0
 32 35  1  0
 29 36  1  0
 35 36  2  0
 34 37  2  0
 34 38  1  0
M  END
$$$$
O14757_Pocket2Mol_idx-in-all-generaetd-391
     RDKit          3D

 37 42  0  0  0  0  0  0  0  0999 V2000
    1.5482   -0.3111   41.9233 C   0  0  0  0  0  0  0  0  0  0  0  0
    2.7284    0.2018   42.1525 N   0  0  0  0  0  0  0  0  0  0  0  0
    3.7893   -0.3016   42.7005 C   0  0  0  0  0  0  0  0  0  0  0  0
    3.3781   -1.7350   43.0000 C   0  0  0  0  0  0  0  0  0  0  0  0
    2.0339   -1.9619   42.6217 C   0  0  0  0  0  0  0  0  0  0  0  0
    4.1166   -2.4997   43.8458 C   0  0  0  0  0  0  0  0  0  0  0  0
    1.1731   -3.0051   42.5773 C   0  0  0  0  0  0  0  0  0  0  0  0
    0.4701   -3.2344   41.4901 C   0  0  0  0  0  0  0  0  0  0  0  0
    5.3799   -1.7814   44.2691 C   0  0  0  0  0  0  0  0  0  0  0  0
    5.0159   -0.0180   43.1201 N   0  0  0  0  0  0  0  0  0  0  0  0
    5.7693   -0.6937   43.8418 C   0  0  0  0  0  0  0  0  0  0  0  0
    0.8078   -3.6166   43.6782 C   0  0  0  0  0  0  0  0  0  0  0  0
    0.0663   -4.7011   43.7415 N   0  0  0  0  0  0  0  0  0  0  0  0
    6.2223   -2.6843   45.1565 C   0  0  0  0  0  0  0  0  0  0  0  0
    6.9599   -0.2351   44.2608 N   0  0  0  0  0  0  0  0  0  0  0  0
    5.9065   -3.9037   45.7499 N   0  0  0  0  0  0  0  0  0  0  0  0
   -0.5459   -5.1185   42.5870 C   0  0  0  0  0  0  0  0  0  0  0  0
    5.7480   -4.0340   46.9810 C   0  0  0  0  0  0  0  0  0  0  0  0
    7.4448   -1.8511   45.4198 C   0  0  0  0  0  0  0  0  0  0  0  0
    7.7572   -0.7827   45.0128 C   0  0  0  0  0  0  0  0  0  0  0  0
    8.4076   -2.7217   46.4541 C   0  0  0  0  0  0  0  0  0  0  0  0
    9.3167   -2.0988   47.1049 N   0  0  0  0  0  0  0  0  0  0  0  0
   -0.4719   -4.3893   41.5406 C   0  0  0  0  0  0  0  0  0  0  0  0
    8.3667   -4.0284   46.5743 N   0  0  0  0  0  0  0  0  0  0  0  0
   10.1532   -2.5726   47.9567 C   0  0  0  0  0  0  0  0  0  0  0  0
   11.0726   -1.7892   48.6998 C   0  0  0  0  0  0  0  0  0  0  0  0
   10.4886   -0.9372   49.4584 C   0  0  0  0  0  0  0  0  0  0  0  0
    8.9772   -4.5617   47.6013 C   0  0  0  0  0  0  0  0  0  0  0  0
    9.9765   -3.9922   48.2636 C   0  0  0  0  0  0  0  0  0  0  0  0
   11.3393   -0.1462   50.3539 C   0  0  0  0  0  0  0  0  0  0  0  0
   12.4892   -1.8956   48.4941 C   0  0  0  0  0  0  0  0  0  0  0  0
   12.8930   -0.3809   50.0834 C   0  0  0  0  0  0  0  0  0  0  0  0
   12.9994   -2.9244   47.4139 C   0  0  0  0  0  0  0  0  0  0  0  0
   13.0152   -2.4653   46.1562 C   0  0  0  0  0  0  0  0  0  0  0  0
   13.2937   -1.2125   49.2482 C   0  0  0  0  0  0  0  0  0  0  0  0
   14.0497   -1.9642   45.5688 O   0  0  0  0  0  0  0  0  0  0  0  0
   11.9248   -2.4081   45.4091 O   0  0  0  0  0  0  0  0  0  0  0  0
  1  2  1  0
  2  3  2  0
  3  4  1  0
  1  5  2  0
  4  5  1  0
  4  6  2  0
  5  7  1  0
  7  8  2  0
  6  9  1  0
  3 10  1  0
  9 11  2  0
 10 11  1  0
  7 12  1  0
 12 13  2  0
  9 14  1  0
 11 15  1  0
 14 16  1  0
 13 17  1  0
 16 18  1  0
 14 19  2  0
 15 20  2  0
 19 20  1  0
 19 21  1  0
 21 22  2  0
  8 23  1  0
 17 23  2  0
 21 24  1  0
 22 25  1  0
 25 26  1  0
 26 27  2  0
 24 28  2  0
 25 29  2  0
 28 29  1  0
 27 30  1  0
 26 31  1  0
 30 32  2  0
 31 33  1  0
 33 34  1  0
 31 35  2  0
 32 35  1  0
 34 36  1  0
 34 37  2  0
M  END
$$$$
O14757_Pocket2Mol_idx-in-all-generaetd-392
     RDKit          3D

 28 33  0  0  0  0  0  0  0  0999 V2000
    4.8173    0.2791   42.6993 N   0  0  0  0  0  0  0  0  0  0  0  0
    5.3297   -0.7477   43.3688 C   0  0  0  0  0  0  0  0  0  0  0  0
    3.4732   -0.2235   42.4530 C   0  0  0  0  0  0  0  0  0  0  0  0
    4.4984   -1.7876   43.6214 C   0  0  0  0  0  0  0  0  0  0  0  0
    3.3438   -1.5190   42.9379 C   0  0  0  0  0  0  0  0  0  0  0  0
    2.1381   -2.3401   42.8254 C   0  0  0  0  0  0  0  0  0  0  0  0
    2.3894    0.3572   41.9843 N   0  0  0  0  0  0  0  0  0  0  0  0
    4.9180   -3.0430   44.3829 C   0  0  0  0  0  0  0  0  0  0  0  0
    5.9444   -2.9314   45.3934 C   0  0  0  0  0  0  0  0  0  0  0  0
    4.2808   -4.1329   44.3252 C   0  0  0  0  0  0  0  0  0  0  0  0
    3.1588   -4.4221   43.4852 O   0  0  0  0  0  0  0  0  0  0  0  0
    4.5704   -5.2518   45.1995 C   0  0  0  0  0  0  0  0  0  0  0  0
    1.9853   -3.6792   43.3495 C   0  0  0  0  0  0  0  0  0  0  0  0
    0.9181   -4.3294   43.4638 C   0  0  0  0  0  0  0  0  0  0  0  0
    6.1667   -3.9106   46.0813 C   0  0  0  0  0  0  0  0  0  0  0  0
    0.9627   -1.7613   42.3940 C   0  0  0  0  0  0  0  0  0  0  0  0
    3.8296   -6.4325   45.0544 F   0  0  0  0  0  0  0  0  0  0  0  0
   -0.2646   -3.7780   42.9121 C   0  0  0  0  0  0  0  0  0  0  0  0
    5.4599   -5.1112   46.0385 C   0  0  0  0  0  0  0  0  0  0  0  0
    7.3541   -3.7011   47.1652 C   0  0  0  0  0  0  0  0  0  0  0  0
    8.4146   -3.0196   46.7433 C   0  0  0  0  0  0  0  0  0  0  0  0
   -0.1899   -2.5032   42.3318 C   0  0  0  0  0  0  0  0  0  0  0  0
    1.1541   -0.3970   41.8264 C   0  0  0  0  0  0  0  0  0  0  0  0
    9.3823   -3.3931   46.2612 C   0  0  0  0  0  0  0  0  0  0  0  0
    8.4060   -1.5015   46.7824 C   0  0  0  0  0  0  0  0  0  0  0  0
    9.6782   -4.8066   46.1177 C   0  0  0  0  0  0  0  0  0  0  0  0
    9.5921   -1.1143   46.2163 C   0  0  0  0  0  0  0  0  0  0  0  0
   10.4308   -2.4120   45.9553 O   0  0  0  0  0  0  0  0  0  0  0  0
  1  2  2  0
  1  3  1  0
  2  4  1  0
  3  5  1  0
  4  5  2  0
  5  6  1  0
  3  7  2  0
  4  8  1  0
  8  9  1  0
  8 10  2  0
 10 11  1  0
 10 12  1  0
  6 13  1  0
 11 13  1  0
 13 14  2  0
  9 15  2  0
  6 16  2  0
 12 17  1  0
 14 18  1  0
 12 19  2  0
 15 19  1  0
 15 20  1  0
 20 21  1  0
 16 22  1  0
 18 22  2  0
  7 23  1  0
 16 23  1  0
 21 24  2  0
 21 25  1  0
 24 26  1  0
 25 27  2  0
 24 28  1  0
 27 28  1  0
M  END
$$$$
O14757_Pocket2Mol_idx-in-all-generaetd-393
     RDKit          3D

 48 56  0  0  0  0  0  0  0  0999 V2000
    5.3420    0.2589   42.8836 O   0  0  0  0  0  0  0  0  0  0  0  0
    5.1627   -0.7554   43.4753 C   0  0  0  0  0  0  0  0  0  0  0  0
    4.0509   -1.4657   43.4177 N   0  0  0  0  0  0  0  0  0  0  0  0
    5.9969   -1.2317   44.6840 C   0  0  0  0  0  0  0  0  0  0  0  0
    2.9618   -1.1021   42.5918 C   0  0  1  0  0  0  0  0  0  0  0  0
    7.3392   -0.8596   44.8412 C   0  0  0  0  0  0  0  0  0  0  0  0
    1.9754   -2.0820   42.2741 C   0  0  0  0  0  0  0  0  0  0  0  0
    5.5910   -2.4282   45.3439 C   0  0  0  0  0  0  0  0  0  0  0  0
    6.5874   -2.9636   46.1581 C   0  0  0  0  0  0  0  0  0  0  0  0
    4.2763   -3.0680   45.0493 N   0  0  0  0  0  0  0  0  0  0  0  0
    3.6188   -2.5886   44.2024 C   0  0  0  0  0  0  0  0  0  0  0  0
    8.1921   -1.4071   45.7505 C   0  0  0  0  0  0  0  0  0  0  0  0
    1.0154   -1.8839   41.2980 C   0  0  0  0  0  0  0  0  0  0  0  0
    2.5720   -3.3564   43.9063 C   0  0  0  0  0  0  0  0  0  0  0  0
    0.2502   -2.8976   41.0751 C   0  0  0  0  0  0  0  0  0  0  0  0
    6.1761   -4.1775   47.0209 C   0  0  0  0  0  0  0  0  0  0  0  0
    1.7266   -3.1047   43.0115 C   0  0  2  0  0  0  0  0  0  0  0  0
    2.3696   -4.5367   44.7536 N   0  0  0  0  0  0  0  0  0  0  0  0
    1.2264   -5.2346   44.4693 C   0  0  0  0  0  0  0  0  0  0  0  0
    0.7187   -3.8955   42.5465 C   0  0  0  0  0  0  0  0  0  0  0  0
    9.4576   -0.8949   46.0327 N   0  0  0  0  0  0  0  0  0  0  0  0
    0.8625   -6.3901   45.2462 C   0  0  0  0  0  0  0  0  0  0  0  0
    7.6467   -2.5139   46.4892 C   0  0  0  0  0  0  0  0  0  0  0  0
   10.4908   -1.5336   45.8242 C   0  0  0  0  0  0  0  0  0  0  0  0
    0.3057   -4.9299   43.2909 C   0  0  0  0  0  0  0  0  0  0  0  0
   11.5916   -1.4291   46.7436 C   0  0  0  0  0  0  0  0  0  0  0  0
   10.5566   -2.3672   44.8649 O   0  0  0  0  0  0  0  0  0  0  0  0
    2.4730    0.2084   42.8389 O   0  0  0  0  0  0  0  0  0  0  0  0
   11.6027   -2.2081   47.7725 N   0  0  0  0  0  0  0  0  0  0  0  0
   12.6189   -0.5862   46.5415 C   0  0  0  0  0  0  0  0  0  0  0  0
   13.6413   -0.4484   47.4129 C   0  0  0  0  0  0  0  0  0  0  0  0
   10.4764   -3.1097   48.1134 C   0  0  0  0  0  0  0  0  0  0  0  0
    9.5762   -2.4717   49.0753 C   0  0  0  0  0  0  0  0  0  0  0  0
    9.7761   -1.2394   49.5167 C   0  0  0  0  0  0  0  0  0  0  0  0
    8.6397   -3.3252   49.7339 C   0  0  0  0  0  0  0  0  0  0  0  0
    8.9861   -0.7034   50.5819 C   0  0  0  0  0  0  0  0  0  0  0  0
   14.7137    0.5128   47.0925 C   0  0  0  0  0  0  0  0  0  0  0  0
    8.1815   -1.5423   51.2387 C   0  0  0  0  0  0  0  0  0  0  0  0
    8.4156   -4.7176   49.2102 O   0  0  0  0  0  0  0  0  0  0  0  0
   13.6915   -1.2597   48.4795 C   0  0  0  0  0  0  0  0  0  0  0  0
   14.7842   -1.1839   49.3622 C   0  0  0  0  0  0  0  0  0  0  0  0
   15.7412    0.6156   47.9897 C   0  0  0  0  0  0  0  0  0  0  0  0
    7.9465   -2.8417   50.8178 C   0  0  0  0  0  0  0  0  0  0  0  0
   12.6985   -2.2783   48.7736 C   0  0  0  0  0  0  0  0  0  0  0  0
   16.8142    1.5491   47.7884 O   0  0  0  0  0  0  0  0  0  0  0  0
    7.1939   -5.2382   49.3926 C   0  0  0  0  0  0  0  0  0  0  0  0
   15.8000   -0.2159   49.1203 C   0  0  0  0  0  0  0  0  0  0  0  0
    6.2821   -4.3612   48.3218 C   0  0  0  0  0  0  0  0  0  0  0  0
  1  2  2  0
  2  3  1  0
  2  4  1  0
  3  5  1  0
  4  6  2  0
  5  7  1  0
  4  8  1  0
  8  9  2  0
  8 10  1  0
  3 11  1  0
 10 11  2  0
  6 12  1  0
  7 13  2  0
 11 14  1  0
 13 15  1  0
  9 16  1  0
 17  7  1  6
 14 17  1  0
 14 18  2  0
 18 19  1  0
 15 20  2  0
 17 20  1  0
 12 21  1  0
 19 22  1  0
  9 23  1  0
 12 23  2  0
 21 24  1  0
 19 25  2  0
 20 25  1  0
 24 26  1  0
 24 27  2  0
  5 28  1  1
 26 29  1  0
 26 30  2  0
 30 31  1  0
 29 32  1  0
 32 33  1  0
 33 34  1  0
 33 35  2  0
 34 36  2  0
 31 37  2  0
 36 38  1  0
 35 39  1  0
 31 40  1  0
 40 41  2  0
 37 42  1  0
 35 43  1  0
 38 43  2  0
 29 44  1  0
 40 44  1  0
 42 45  1  0
 39 46  1  0
 41 47  1  0
 42 47  2  0
 16 48  2  3
 46 48  1  0
M  END
$$$$
O14757_Pocket2Mol_idx-in-all-generaetd-394
     RDKit          3D

 32 37  0  0  0  0  0  0  0  0999 V2000
    5.3420    0.2589   42.8836 O   0  0  0  0  0  0  0  0  0  0  0  0
    5.1627   -0.7554   43.4753 C   0  0  0  0  0  0  0  0  0  0  0  0
    4.0509   -1.4657   43.4177 N   0  0  0  0  0  0  0  0  0  0  0  0
    5.9969   -1.2317   44.6840 C   0  0  0  0  0  0  0  0  0  0  0  0
    2.9618   -1.1021   42.5918 C   0  0  0  0  0  0  0  0  0  0  0  0
    7.3392   -0.8596   44.8412 C   0  0  0  0  0  0  0  0  0  0  0  0
    1.9754   -2.0820   42.2741 C   0  0  0  0  0  0  0  0  0  0  0  0
    5.5910   -2.4282   45.3439 C   0  0  0  0  0  0  0  0  0  0  0  0
    6.5874   -2.9636   46.1581 C   0  0  0  0  0  0  0  0  0  0  0  0
    4.2763   -3.0680   45.0493 N   0  0  0  0  0  0  0  0  0  0  0  0
    3.6188   -2.5886   44.2024 C   0  0  0  0  0  0  0  0  0  0  0  0
    8.1921   -1.4071   45.7505 C   0  0  0  0  0  0  0  0  0  0  0  0
    1.0154   -1.8839   41.2980 C   0  0  0  0  0  0  0  0  0  0  0  0
    2.5720   -3.3564   43.9063 C   0  0  0  0  0  0  0  0  0  0  0  0
    0.2502   -2.8976   41.0751 C   0  0  0  0  0  0  0  0  0  0  0  0
    0.2230   -3.9124   42.0516 C   0  0  0  0  0  0  0  0  0  0  0  0
    2.2879   -4.6260   44.7113 N   0  0  0  0  0  0  0  0  0  0  0  0
    1.7585   -3.1585   42.9749 N   0  0  0  0  0  0  0  0  0  0  0  0
    7.7776   -2.5440   46.4766 C   0  0  0  0  0  0  0  0  0  0  0  0
    0.8620   -4.0153   42.9214 C   0  0  0  0  0  0  0  0  0  0  0  0
    2.9942   -0.0014   41.9856 O   0  0  0  0  0  0  0  0  0  0  0  0
    8.6110   -3.0684   47.3244 O   0  0  0  0  0  0  0  0  0  0  0  0
    9.7976   -3.4246   46.8484 C   0  0  1  0  0  0  0  0  0  0  0  0
   10.8224   -2.4283   47.1956 C   0  0  0  0  0  0  0  0  0  0  0  0
    0.9965   -5.0741   43.9477 C   0  0  0  0  0  0  0  0  0  0  0  0
   10.2995   -4.6400   47.3839 C   0  0  0  0  0  0  0  0  0  0  0  0
   12.1422   -2.5515   46.4710 C   0  0  1  0  0  0  0  0  0  0  0  0
   11.5967   -5.1065   46.7160 C   0  0  0  0  0  0  0  0  0  0  0  0
   13.1045   -1.5154   46.5236 C   0  0  0  0  0  0  0  0  0  0  0  0
   12.7231   -3.9238   46.9071 C   0  0  0  0  0  0  0  0  0  0  0  0
   13.0979   -0.8939   47.4897 O   0  0  0  0  0  0  0  0  0  0  0  0
   13.3730   -0.8854   45.3130 O   0  0  0  0  0  0  0  0  0  0  0  0
  1  2  2  0
  2  3  1  0
  2  4  1  0
  3  5  1  0
  4  6  2  0
  5  7  1  0
  4  8  1  0
  8  9  2  0
  8 10  1  0
  3 11  1  0
 10 11  2  0
  6 12  1  0
  7 13  2  0
 11 14  1  0
 13 15  1  0
 15 16  2  0
 14 17  2  0
  7 18  1  0
 14 18  1  0
  9 19  1  0
 12 19  2  0
 16 20  1  0
 18 20  1  0
  5 21  2  0
 19 22  1  0
 23 22  1  1
 23 24  1  0
 17 25  1  0
 20 25  2  0
 23 26  1  0
 24 27  1  0
 26 28  1  0
 27 29  1  1
 27 30  1  0
 28 30  1  0
 29 31  1  0
 29 32  2  0
M  END
$$$$
O14757_Pocket2Mol_idx-in-all-generaetd-395
     RDKit          3D

 48 57  0  0  0  0  0  0  0  0999 V2000
    1.5482   -0.3111   41.9233 C   0  0  0  0  0  0  0  0  0  0  0  0
    2.7284    0.2018   42.1525 N   0  0  0  0  0  0  0  0  0  0  0  0
    3.7893   -0.3016   42.7005 C   0  0  0  0  0  0  0  0  0  0  0  0
    3.3781   -1.7350   43.0000 C   0  0  0  0  0  0  0  0  0  0  0  0
    2.0339   -1.9619   42.6217 C   0  0  0  0  0  0  0  0  0  0  0  0
    5.0090    0.1219   42.9340 N   0  0  0  0  0  0  0  0  0  0  0  0
    4.2895   -2.4979   43.6707 C   0  0  0  0  0  0  0  0  0  0  0  0
    5.8391   -0.6675   43.6343 C   0  0  0  0  0  0  0  0  0  0  0  0
    6.9849   -0.2377   44.0028 N   0  0  0  0  0  0  0  0  0  0  0  0
    4.0426   -3.8794   44.0832 C   0  0  0  0  0  0  0  0  0  0  0  0
    7.6796   -0.8734   44.9326 C   0  0  0  0  0  0  0  0  0  0  0  0
    1.1064   -2.9576   42.4211 C   0  0  0  0  0  0  0  0  0  0  0  0
    5.5298   -1.9496   44.0315 C   0  0  0  0  0  0  0  0  0  0  0  0
    3.8954   -4.1817   45.4718 C   0  0  0  0  0  0  0  0  0  0  0  0
    0.6765   -3.5480   43.4006 C   0  0  1  0  0  0  0  0  0  0  0  0
    0.5804   -3.2191   41.1635 C   0  0  0  0  0  0  0  0  0  0  0  0
    2.8083   -4.8227   45.9203 N   0  0  0  0  0  0  0  0  0  0  0  0
   -0.1574   -4.5754   42.9329 N   0  0  0  0  0  0  0  0  0  0  0  0
    6.5271   -2.5531   44.9677 C   0  0  0  0  0  0  0  0  0  0  0  0
   -0.2272   -4.3703   41.5137 C   0  0  0  0  0  0  0  0  0  0  0  0
    7.5095   -2.0029   45.3993 C   0  0  0  0  0  0  0  0  0  0  0  0
    8.2550   -2.6982   46.3988 C   0  0  0  0  0  0  0  0  0  0  0  0
    8.8975   -0.3029   45.3267 O   0  0  0  0  0  0  0  0  0  0  0  0
    4.8299   -4.4637   46.4212 C   0  0  0  0  0  0  0  0  0  0  0  0
    4.2707   -4.9248   47.6295 N   0  0  0  0  0  0  0  0  0  0  0  0
    3.2045   -5.2092   47.1521 C   0  0  0  0  0  0  0  0  0  0  0  0
    1.4482   -4.6186   45.4134 C   0  0  2  0  0  0  0  0  0  0  0  0
    1.2398   -3.5043   44.6236 O   0  0  0  0  0  0  0  0  0  0  0  0
    6.3317   -3.9297   46.0870 C   0  0  2  0  0  0  0  0  0  0  0  0
    9.5296   -2.5449   46.9776 C   0  0  0  0  0  0  0  0  0  0  0  0
    9.7921   -1.7530   47.9018 O   0  0  0  0  0  0  0  0  0  0  0  0
    7.3972   -3.8130   46.7939 C   0  0  0  0  0  0  0  0  0  0  0  0
   10.4154   -3.4217   46.6883 O   0  0  0  0  0  0  0  0  0  0  0  0
    0.5555   -4.7535   46.5674 C   0  0  0  0  0  0  0  0  0  0  0  0
   11.6497   -3.0596   47.0439 C   0  0  0  0  0  0  0  0  0  0  0  0
   12.3878   -4.1125   47.6990 C   0  0  1  0  0  0  0  0  0  0  0  0
   11.8800   -5.2760   47.5659 O   0  0  0  0  0  0  0  0  0  0  0  0
   12.1402   -1.9273   46.5416 C   0  0  0  0  0  0  0  0  0  0  0  0
   13.7566   -3.9428   47.4635 C   0  0  0  0  0  0  0  0  0  0  0  0
   11.3924   -5.9178   48.7514 C   0  0  0  0  0  0  0  0  0  0  0  0
   14.4126   -2.7430   47.0678 C   0  0  0  0  0  0  0  0  0  0  0  0
   13.4817   -1.7494   46.5455 C   0  0  0  0  0  0  0  0  0  0  0  0
   15.7358   -2.5357   47.0594 C   0  0  0  0  0  0  0  0  0  0  0  0
   14.1460   -0.8459   45.7964 C   0  0  0  0  0  0  0  0  0  0  0  0
   16.5904   -3.5170   47.6347 O   0  0  0  0  0  0  0  0  0  0  0  0
   15.4448   -0.4963   45.8519 C   0  0  0  0  0  0  0  0  0  0  0  0
   16.2991   -1.4218   46.4255 C   0  0  0  0  0  0  0  0  0  0  0  0
   16.0103    0.5659   45.2593 O   0  0  0  0  0  0  0  0  0  0  0  0
  1  2  1  0
  2  3  2  0
  3  4  1  0
  1  5  2  0
  4  5  1  0
  3  6  1  0
  4  7  2  0
  6  8  1  0
  8  9  1  0
  7 10  1  0
  9 11  1  0
  5 12  1  0
  7 13  1  0
  8 13  2  0
 10 14  1  0
 12 15  1  0
 12 16  2  0
 14 17  1  0
 15 18  1  0
 13 19  1  0
 16 20  1  0
 18 20  2  0
 11 21  1  0
 19 21  2  0
 21 22  1  0
 11 23  2  0
 14 24  2  0
 24 25  1  0
 17 26  1  0
 25 26  2  0
 17 27  1  0
 15 28  1  6
 27 28  1  0
 19 29  1  0
 24 29  1  0
 22 30  1  0
 30 31  2  0
 22 32  2  0
 29 32  1  1
 30 33  1  0
 27 34  1  1
 33 35  1  0
 35 36  1  0
 36 37  1  6
 35 38  2  0
 36 39  1  0
 37 40  1  0
 39 41  2  0
 38 42  1  0
 41 42  1  0
 41 43  1  0
 42 44  2  0
 43 45  1  0
 44 46  1  0
 43 47  2  0
 46 47  1  0
 46 48  2  0
M  END
$$$$
O14757_Pocket2Mol_idx-in-all-generaetd-396
     RDKit          3D

 34 39  0  0  0  0  0  0  0  0999 V2000
    5.3420    0.2589   42.8836 O   0  0  0  0  0  0  0  0  0  0  0  0
    5.1627   -0.7554   43.4753 C   0  0  0  0  0  0  0  0  0  0  0  0
    4.0509   -1.4657   43.4177 N   0  0  0  0  0  0  0  0  0  0  0  0
    5.9969   -1.2317   44.6840 C   0  0  0  0  0  0  0  0  0  0  0  0
    2.9618   -1.1021   42.5918 C   0  0  0  0  0  0  0  0  0  0  0  0
    7.3392   -0.8596   44.8412 C   0  0  0  0  0  0  0  0  0  0  0  0
    1.9754   -2.0820   42.2741 C   0  0  0  0  0  0  0  0  0  0  0  0
    5.5910   -2.4282   45.3439 C   0  0  0  0  0  0  0  0  0  0  0  0
    6.5874   -2.9636   46.1581 C   0  0  0  0  0  0  0  0  0  0  0  0
    4.2763   -3.0680   45.0493 N   0  0  0  0  0  0  0  0  0  0  0  0
    3.6188   -2.5886   44.2024 C   0  0  0  0  0  0  0  0  0  0  0  0
    8.1921   -1.4071   45.7505 C   0  0  0  0  0  0  0  0  0  0  0  0
    1.0154   -1.8839   41.2980 C   0  0  0  0  0  0  0  0  0  0  0  0
    2.5720   -3.3564   43.9063 C   0  0  0  0  0  0  0  0  0  0  0  0
    0.2502   -2.8976   41.0751 C   0  0  0  0  0  0  0  0  0  0  0  0
    6.1761   -4.1775   47.0209 C   0  0  0  0  0  0  0  0  0  0  0  0
    1.7266   -3.1047   43.0115 C   0  0  2  0  0  0  0  0  0  0  0  0
    2.3696   -4.5367   44.7536 N   0  0  0  0  0  0  0  0  0  0  0  0
    1.2264   -5.2346   44.4693 C   0  0  0  0  0  0  0  0  0  0  0  0
    0.7187   -3.8955   42.5465 C   0  0  0  0  0  0  0  0  0  0  0  0
    9.4576   -0.8949   46.0327 N   0  0  0  0  0  0  0  0  0  0  0  0
    0.8625   -6.3901   45.2462 C   0  0  0  0  0  0  0  0  0  0  0  0
    7.6467   -2.5139   46.4892 C   0  0  0  0  0  0  0  0  0  0  0  0
   10.4908   -1.5336   45.8242 C   0  0  0  0  0  0  0  0  0  0  0  0
    0.3057   -4.9299   43.2909 C   0  0  0  0  0  0  0  0  0  0  0  0
   11.5916   -1.4291   46.7436 C   0  0  0  0  0  0  0  0  0  0  0  0
   10.5566   -2.3672   44.8649 O   0  0  0  0  0  0  0  0  0  0  0  0
   12.8421   -1.9355   46.2823 C   0  0  0  0  0  0  0  0  0  0  0  0
   13.4833   -2.8582   46.9841 C   0  0  0  0  0  0  0  0  0  0  0  0
   13.2717   -2.8931   48.3731 C   0  0  0  0  0  0  0  0  0  0  0  0
    3.0200    0.0729   42.0596 O   0  0  0  0  0  0  0  0  0  0  0  0
   14.1189   -3.7584   49.1887 O   0  0  0  0  0  0  0  0  0  0  0  0
   11.3127   -1.8835   48.0872 C   0  0  0  0  0  0  0  0  0  0  0  0
   12.1045   -2.5969   48.9627 C   0  0  0  0  0  0  0  0  0  0  0  0
  1  2  2  0
  2  3  1  0
  2  4  1  0
  3  5  1  0
  4  6  2  0
  5  7  1  0
  4  8  1  0
  8  9  2  0
  8 10  1  0
  3 11  1  0
 10 11  2  0
  6 12  1  0
  7 13  2  0
 11 14  1  0
 13 15  1  0
  9 16  1  0
 17  7  1  6
 14 17  1  0
 14 18  2  0
 18 19  1  0
 15 20  2  0
 17 20  1  0
 12 21  1  0
 19 22  1  0
  9 23  1  0
 12 23  2  0
 21 24  1  0
 19 25  2  0
 20 25  1  0
 24 26  1  0
 24 27  2  0
 26 28  2  0
 28 29  1  0
 29 30  2  0
  5 31  2  0
 30 32  1  0
 26 33  1  0
 30 34  1  0
 33 34  2  0
M  END
$$$$
O14757_Pocket2Mol_idx-in-all-generaetd-397
     RDKit          3D

 38 45  0  0  0  0  0  0  0  0999 V2000
    4.8173    0.2791   42.6993 N   0  0  0  0  0  0  0  0  0  0  0  0
    5.3297   -0.7477   43.3688 C   0  0  0  0  0  0  0  0  0  0  0  0
    3.4732   -0.2235   42.4530 C   0  0  0  0  0  0  0  0  0  0  0  0
    4.4984   -1.7876   43.6214 C   0  0  0  0  0  0  0  0  0  0  0  0
    3.3438   -1.5190   42.9379 C   0  0  0  0  0  0  0  0  0  0  0  0
    2.1381   -2.3401   42.8254 C   0  0  0  0  0  0  0  0  0  0  0  0
    2.3894    0.3572   41.9843 N   0  0  0  0  0  0  0  0  0  0  0  0
    4.9180   -3.0430   44.3829 C   0  0  0  0  0  0  0  0  0  0  0  0
    5.9444   -2.9314   45.3934 C   0  0  0  0  0  0  0  0  0  0  0  0
    4.2808   -4.1329   44.3252 C   0  0  0  0  0  0  0  0  0  0  0  0
    3.1588   -4.4221   43.4852 O   0  0  0  0  0  0  0  0  0  0  0  0
    4.5704   -5.2518   45.1995 C   0  0  0  0  0  0  0  0  0  0  0  0
    1.9853   -3.6792   43.3495 C   0  0  0  0  0  0  0  0  0  0  0  0
    0.9181   -4.3294   43.4638 C   0  0  0  0  0  0  0  0  0  0  0  0
    6.7403   -1.6226   45.5272 C   0  0  0  0  0  0  0  0  0  0  0  0
    0.9752   -1.7845   42.3366 C   0  0  0  0  0  0  0  0  0  0  0  0
    5.5543   -5.1294   46.1078 C   0  0  0  0  0  0  0  0  0  0  0  0
    7.9772   -1.5901   46.1526 C   0  0  0  0  0  0  0  0  0  0  0  0
    8.6171   -2.7180   46.2255 N   0  0  0  0  0  0  0  0  0  0  0  0
    6.5160   -0.7262   44.3482 C   0  0  0  0  0  0  0  0  0  0  0  0
    5.8670   -6.1665   47.0241 O   0  0  0  0  0  0  0  0  0  0  0  0
   -0.2437   -2.4672   42.2827 C   0  0  0  0  0  0  0  0  0  0  0  0
   -0.2692   -3.7414   42.8178 C   0  0  0  0  0  0  0  0  0  0  0  0
    6.3047   -3.9815   46.2287 C   0  0  0  0  0  0  0  0  0  0  0  0
    8.0291   -3.5777   47.1715 C   0  0  0  0  0  0  0  0  0  0  0  0
    7.2074   -4.2766   47.0234 C   0  0  0  0  0  0  0  0  0  0  0  0
    1.1879   -0.4281   41.8692 C   0  0  0  0  0  0  0  0  0  0  0  0
   10.1009   -2.3306   46.5895 C   0  0  0  0  0  0  0  0  0  0  0  0
   10.5049   -1.2887   46.4663 O   0  0  0  0  0  0  0  0  0  0  0  0
   10.9104   -3.4150   47.1173 C   0  0  0  0  0  0  0  0  0  0  0  0
   11.1982   -4.4016   46.2515 C   0  0  0  0  0  0  0  0  0  0  0  0
   11.7101   -3.1924   48.2324 C   0  0  0  0  0  0  0  0  0  0  0  0
   12.1214   -5.3318   46.8301 C   0  0  0  0  0  0  0  0  0  0  0  0
   12.5595   -4.1090   48.7147 C   0  0  0  0  0  0  0  0  0  0  0  0
   13.3053   -3.9603   49.9599 O   0  0  0  0  0  0  0  0  0  0  0  0
   14.2384   -4.6646   50.1912 C   0  0  0  0  0  0  0  0  0  0  0  0
   12.3771   -6.5562   45.9298 C   0  0  0  0  0  0  0  0  0  0  0  0
   12.8874   -5.2601   48.0080 C   0  0  0  0  0  0  0  0  0  0  0  0
  1  2  2  0
  1  3  1  0
  2  4  1  0
  3  5  1  0
  4  5  2  0
  5  6  1  0
  3  7  2  0
  4  8  1  0
  8  9  2  0
  8 10  1  0
 10 11  1  0
 10 12  2  0
  6 13  2  0
 11 13  1  0
 13 14  1  0
  9 15  1  0
  6 16  1  0
 12 17  1  0
 15 18  1  0
 18 19  1  0
  2 20  1  0
 15 20  2  0
 17 21  1  0
 16 22  2  0
 14 23  2  0
 22 23  1  0
  9 24  1  0
 17 24  2  0
 19 25  1  0
 24 26  1  0
 25 26  2  0
  7 27  1  0
 16 27  1  0
 19 28  1  0
 28 29  2  0
 28 30  1  0
 30 31  2  0
 30 32  1  0
 31 33  1  0
 32 34  2  0
 34 35  1  0
 35 36  1  0
 33 37  1  0
 33 38  2  0
 34 38  1  0
M  END
$$$$
O14757_Pocket2Mol_idx-in-all-generaetd-398
     RDKit          3D

 50 58  0  0  0  0  0  0  0  0999 V2000
    5.3420    0.2589   42.8836 O   0  0  0  0  0  0  0  0  0  0  0  0
    5.1627   -0.7554   43.4753 C   0  0  0  0  0  0  0  0  0  0  0  0
    4.0509   -1.4657   43.4177 N   0  0  0  0  0  0  0  0  0  0  0  0
    5.9969   -1.2317   44.6840 C   0  0  0  0  0  0  0  0  0  0  0  0
    2.9618   -1.1021   42.5918 C   0  0  1  0  0  0  0  0  0  0  0  0
    7.3392   -0.8596   44.8412 C   0  0  0  0  0  0  0  0  0  0  0  0
    1.9754   -2.0820   42.2741 C   0  0  0  0  0  0  0  0  0  0  0  0
    5.5910   -2.4282   45.3439 C   0  0  0  0  0  0  0  0  0  0  0  0
    6.5874   -2.9636   46.1581 C   0  0  0  0  0  0  0  0  0  0  0  0
    4.2763   -3.0680   45.0493 N   0  0  0  0  0  0  0  0  0  0  0  0
    3.6188   -2.5886   44.2024 C   0  0  0  0  0  0  0  0  0  0  0  0
    8.1921   -1.4071   45.7505 C   0  0  0  0  0  0  0  0  0  0  0  0
    1.0154   -1.8839   41.2980 C   0  0  0  0  0  0  0  0  0  0  0  0
    2.5720   -3.3564   43.9063 C   0  0  0  0  0  0  0  0  0  0  0  0
    0.2502   -2.8976   41.0751 C   0  0  0  0  0  0  0  0  0  0  0  0
    6.1761   -4.1775   47.0209 C   0  0  0  0  0  0  0  0  0  0  0  0
    1.7266   -3.1047   43.0115 C   0  0  2  0  0  0  0  0  0  0  0  0
    2.3696   -4.5367   44.7536 N   0  0  0  0  0  0  0  0  0  0  0  0
    1.2264   -5.2346   44.4693 C   0  0  0  0  0  0  0  0  0  0  0  0
    0.7187   -3.8955   42.5465 C   0  0  0  0  0  0  0  0  0  0  0  0
    9.4576   -0.8949   46.0327 N   0  0  0  0  0  0  0  0  0  0  0  0
    0.8625   -6.3901   45.2462 C   0  0  0  0  0  0  0  0  0  0  0  0
    7.6467   -2.5139   46.4892 C   0  0  0  0  0  0  0  0  0  0  0  0
   10.4908   -1.5336   45.8242 C   0  0  0  0  0  0  0  0  0  0  0  0
    0.3057   -4.9299   43.2909 C   0  0  0  0  0  0  0  0  0  0  0  0
   11.5916   -1.4291   46.7436 C   0  0  0  0  0  0  0  0  0  0  0  0
   10.5566   -2.3672   44.8649 O   0  0  0  0  0  0  0  0  0  0  0  0
   12.8421   -1.9355   46.2823 C   0  0  0  0  0  0  0  0  0  0  0  0
   13.4833   -2.8582   46.9841 C   0  0  0  0  0  0  0  0  0  0  0  0
   11.4002   -1.1447   48.0540 C   0  0  0  0  0  0  0  0  0  0  0  0
   10.2867   -0.4569   48.4999 O   0  0  0  0  0  0  0  0  0  0  0  0
   12.3327   -1.4798   48.9564 C   0  0  1  0  0  0  0  0  0  0  0  0
   14.7901   -3.3162   46.6439 C   0  0  0  0  0  0  0  0  0  0  0  0
   12.1651   -1.3050   50.3239 O   0  0  0  0  0  0  0  0  0  0  0  0
   15.6765   -2.5740   46.0979 C   0  0  0  0  0  0  0  0  0  0  0  0
    2.4608    0.2106   42.8512 C   0  0  0  0  0  0  0  0  0  0  0  0
   15.5213   -1.2590   45.7606 C   0  0  0  0  0  0  0  0  0  0  0  0
   14.5349   -0.8899   44.8574 C   0  0  0  0  0  0  0  0  0  0  0  0
   12.9775   -3.3460   48.2127 C   0  0  0  0  0  0  0  0  0  0  0  0
   14.7129   -0.1943   43.8652 C   0  0  0  0  0  0  0  0  0  0  0  0
   13.1163   -1.3789   45.0490 O   0  0  0  0  0  0  0  0  0  0  0  0
   16.0442    0.3600   43.7609 C   0  0  0  0  0  0  0  0  0  0  0  0
   16.1715    1.3518   42.5787 C   0  0  0  0  0  0  0  0  0  0  0  0
   12.7697   -2.7291   49.2346 C   0  0  0  0  0  0  0  0  0  0  0  0
   17.0329    0.1475   44.4838 C   0  0  0  0  0  0  0  0  0  0  0  0
   18.3168    0.7589   44.4037 C   0  0  0  0  0  0  0  0  0  0  0  0
   16.7982   -0.7675   45.5538 C   0  0  0  0  0  0  0  0  0  0  0  0
   18.5163    1.6702   43.3385 C   0  0  0  0  0  0  0  0  0  0  0  0
   17.4034    1.9644   42.4786 C   0  0  0  0  0  0  0  0  0  0  0  0
   12.9716   -3.2222   50.3857 O   0  0  0  0  0  0  0  0  0  0  0  0
  1  2  2  0
  2  3  1  0
  2  4  1  0
  3  5  1  0
  4  6  2  0
  5  7  1  0
  4  8  1  0
  8  9  2  0
  8 10  1  0
  3 11  1  0
 10 11  2  0
  6 12  1  0
  7 13  2  0
 11 14  1  0
 13 15  1  0
  9 16  1  0
 17  7  1  6
 14 17  1  0
 14 18  2  0
 18 19  1  0
 15 20  2  0
 17 20  1  0
 12 21  1  0
 19 22  1  0
  9 23  1  0
 12 23  2  0
 21 24  1  0
 19 25  2  0
 20 25  1  0
 24 26  1  0
 24 27  2  0
 26 28  1  0
 28 29  2  0
 26 30  2  0
 30 31  1  0
 30 32  1  0
 29 33  1  0
 32 34  1  1
 33 35  2  0
  5 36  1  1
 35 37  1  0
 37 38  2  0
 29 39  1  0
 38 40  1  0
 28 41  1  0
 38 41  1  0
 40 42  2  0
 42 43  1  0
 32 44  1  0
 39 44  1  0
 42 45  1  0
 45 46  1  0
 37 47  1  0
 45 47  2  0
 46 48  2  0
 43 49  2  0
 48 49  1  0
 44 50  2  0
M  END
$$$$
O14757_Pocket2Mol_idx-in-all-generaetd-399
     RDKit          3D

 29 34  0  0  0  0  0  0  0  0999 V2000
    4.8173    0.2791   42.6993 N   0  0  0  0  0  0  0  0  0  0  0  0
    5.3297   -0.7477   43.3688 C   0  0  0  0  0  0  0  0  0  0  0  0
    3.4732   -0.2235   42.4530 C   0  0  0  0  0  0  0  0  0  0  0  0
    4.4984   -1.7876   43.6214 C   0  0  0  0  0  0  0  0  0  0  0  0
    3.3438   -1.5190   42.9379 C   0  0  0  0  0  0  0  0  0  0  0  0
    2.1381   -2.3401   42.8254 C   0  0  0  0  0  0  0  0  0  0  0  0
    2.3894    0.3572   41.9843 N   0  0  0  0  0  0  0  0  0  0  0  0
    4.9180   -3.0430   44.3829 C   0  0  0  0  0  0  0  0  0  0  0  0
    5.9444   -2.9314   45.3934 C   0  0  0  0  0  0  0  0  0  0  0  0
    4.2808   -4.1329   44.3252 C   0  0  0  0  0  0  0  0  0  0  0  0
    3.1588   -4.4221   43.4852 O   0  0  0  0  0  0  0  0  0  0  0  0
    4.5704   -5.2518   45.1995 C   0  0  0  0  0  0  0  0  0  0  0  0
    1.9853   -3.6792   43.3495 C   0  0  0  0  0  0  0  0  0  0  0  0
    0.9181   -4.3294   43.4638 C   0  0  0  0  0  0  0  0  0  0  0  0
    6.7403   -1.6226   45.5272 C   0  0  2  0  0  0  0  0  0  0  0  0
    0.9752   -1.7845   42.3366 C   0  0  0  0  0  0  0  0  0  0  0  0
    6.5250   -0.8009   44.2658 C   0  0  0  0  0  0  0  0  0  0  0  0
    3.8051   -6.4107   45.0477 O   0  0  0  0  0  0  0  0  0  0  0  0
    2.4017   -6.3549   45.0858 C   0  0  0  0  0  0  0  0  0  0  0  0
   -0.2397   -3.5812   42.9203 C   0  0  0  0  0  0  0  0  0  0  0  0
   -1.4864   -4.3250   42.9517 F   0  0  0  0  0  0  0  0  0  0  0  0
    5.4873   -5.2416   46.1345 C   0  0  0  0  0  0  0  0  0  0  0  0
   -0.1833   -2.4112   42.3549 C   0  0  0  0  0  0  0  0  0  0  0  0
    1.1923   -0.4108   41.8672 C   0  0  0  0  0  0  0  0  0  0  0  0
    6.2543   -3.9736   46.2315 C   0  0  0  0  0  0  0  0  0  0  0  0
    7.9342   -1.5463   46.1826 C   0  0  0  0  0  0  0  0  0  0  0  0
    8.0771   -1.1350   47.2989 O   0  0  0  0  0  0  0  0  0  0  0  0
    9.1341   -1.5083   45.4757 O   0  0  0  0  0  0  0  0  0  0  0  0
   10.3919   -1.2158   46.0451 C   0  0  0  0  0  0  0  0  0  0  0  0
  1  2  2  0
  1  3  1  0
  2  4  1  0
  3  5  1  0
  4  5  2  0
  5  6  1  0
  3  7  2  0
  4  8  1  0
  8  9  1  0
  8 10  2  0
 10 11  1  0
 10 12  1  0
  6 13  1  0
 11 13  1  0
 13 14  2  0
  9 15  1  0
  6 16  2  0
  2 17  1  0
 15 17  1  0
 12 18  1  0
 18 19  1  0
 14 20  1  0
 20 21  1  0
 12 22  2  0
 16 23  1  0
 20 23  2  0
  7 24  1  0
 16 24  1  0
  9 25  2  0
 22 25  1  0
 15 26  1  6
 26 27  2  0
 26 28  1  0
 28 29  1  0
M  END
$$$$
O14757_Pocket2Mol_idx-in-all-generaetd-400
     RDKit          3D

 38 44  0  0  0  0  0  0  0  0999 V2000
    1.5482   -0.3111   41.9233 C   0  0  0  0  0  0  0  0  0  0  0  0
    2.7284    0.2018   42.1525 N   0  0  0  0  0  0  0  0  0  0  0  0
    3.7893   -0.3016   42.7005 C   0  0  0  0  0  0  0  0  0  0  0  0
    3.3781   -1.7350   43.0000 C   0  0  0  0  0  0  0  0  0  0  0  0
    2.0339   -1.9619   42.6217 C   0  0  0  0  0  0  0  0  0  0  0  0
    4.1166   -2.4997   43.8458 C   0  0  0  0  0  0  0  0  0  0  0  0
    1.1731   -3.0051   42.5773 C   0  0  0  0  0  0  0  0  0  0  0  0
    0.4701   -3.2344   41.4901 C   0  0  0  0  0  0  0  0  0  0  0  0
    5.3799   -1.7814   44.2691 C   0  0  0  0  0  0  0  0  0  0  0  0
    5.0159   -0.0180   43.1201 N   0  0  0  0  0  0  0  0  0  0  0  0
    5.7693   -0.6937   43.8418 C   0  0  0  0  0  0  0  0  0  0  0  0
    0.8078   -3.6166   43.6782 C   0  0  0  0  0  0  0  0  0  0  0  0
    0.0663   -4.7011   43.7415 N   0  0  0  0  0  0  0  0  0  0  0  0
    6.2223   -2.6843   45.1565 C   0  0  0  0  0  0  0  0  0  0  0  0
    6.9599   -0.2351   44.2608 N   0  0  0  0  0  0  0  0  0  0  0  0
    5.9065   -3.9037   45.7499 N   0  0  0  0  0  0  0  0  0  0  0  0
   -0.5459   -5.1185   42.5870 C   0  0  0  0  0  0  0  0  0  0  0  0
    5.7480   -4.0340   46.9810 C   0  0  0  0  0  0  0  0  0  0  0  0
    7.4448   -1.8511   45.4198 C   0  0  0  0  0  0  0  0  0  0  0  0
    7.7572   -0.7827   45.0128 C   0  0  0  0  0  0  0  0  0  0  0  0
    8.4076   -2.7217   46.4541 C   0  0  0  0  0  0  0  0  0  0  0  0
    9.3167   -2.0988   47.1049 N   0  0  0  0  0  0  0  0  0  0  0  0
   -0.4719   -4.3893   41.5406 C   0  0  0  0  0  0  0  0  0  0  0  0
    8.3667   -4.0284   46.5743 N   0  0  0  0  0  0  0  0  0  0  0  0
    9.5309   -4.3147   47.3094 C   0  0  0  0  0  0  0  0  0  0  0  0
    5.3113   -3.3789   47.8005 O   0  0  0  0  0  0  0  0  0  0  0  0
    9.9022   -5.6301   47.7684 C   0  0  0  0  0  0  0  0  0  0  0  0
    5.4470   -5.5868   47.2096 C   0  0  0  0  0  0  0  0  0  0  0  0
   11.2254   -5.8679   48.0402 C   0  0  0  0  0  0  0  0  0  0  0  0
    8.9736   -6.6532   47.8548 C   0  0  0  0  0  0  0  0  0  0  0  0
   10.0616   -3.0670   47.6360 C   0  0  0  0  0  0  0  0  0  0  0  0
    7.5566   -6.3564   47.5477 N   0  0  0  0  0  0  0  0  0  0  0  0
   12.3328   -4.8893   47.9268 C   0  0  0  0  0  0  0  0  0  0  0  0
    9.3549   -7.9044   48.1067 C   0  0  0  0  0  0  0  0  0  0  0  0
   11.6649   -7.1567   48.3527 C   0  0  0  0  0  0  0  0  0  0  0  0
    8.3780   -8.9944   48.2608 C   0  0  0  0  0  0  0  0  0  0  0  0
    6.4349   -6.1618   48.0789 C   0  0  0  0  0  0  0  0  0  0  0  0
   10.6156   -8.1568   48.4594 C   0  0  0  0  0  0  0  0  0  0  0  0
  1  2  1  0
  2  3  2  0
  3  4  1  0
  1  5  2  0
  4  5  1  0
  4  6  2  0
  5  7  1  0
  7  8  2  0
  6  9  1  0
  3 10  1  0
  9 11  2  0
 10 11  1  0
  7 12  1  0
 12 13  2  0
  9 14  1  0
 11 15  1  0
 14 16  1  0
 13 17  1  0
 16 18  1  0
 14 19  2  0
 15 20  2  0
 19 20  1  0
 19 21  1  0
 21 22  2  0
  8 23  1  0
 17 23  2  0
 21 24  1  0
 24 25  1  0
 18 26  2  0
 25 27  1  0
 18 28  1  0
 27 29  2  0
 27 30  1  0
 22 31  1  0
 25 31  2  0
 30 32  1  0
 29 33  1  0
 30 34  2  0
 29 35  1  0
 34 36  1  0
 28 37  1  0
 32 37  1  0
 34 38  1  0
 35 38  2  0
M  END
$$$$
O14757_Pocket2Mol_idx-in-all-generaetd-401
     RDKit          3D

 29 34  0  0  0  0  0  0  0  0999 V2000
    5.5575   -0.4055   43.2321 N   0  0  0  0  0  0  0  0  0  0  0  0
    5.4916   -1.4617   44.0350 C   0  0  0  0  0  0  0  0  0  0  0  0
    4.3553   -0.1547   42.7099 N   0  0  0  0  0  0  0  0  0  0  0  0
    3.5224   -1.1568   42.9284 C   0  0  0  0  0  0  0  0  0  0  0  0
    2.1507   -1.3006   42.5845 C   0  0  0  0  0  0  0  0  0  0  0  0
    4.2124   -1.9924   43.9667 C   0  0  1  0  0  0  0  0  0  0  0  0
    3.6929   -3.2283   44.3876 C   0  0  0  0  0  0  0  0  0  0  0  0
    6.5651   -2.0426   44.8298 C   0  0  0  0  0  0  0  0  0  0  0  0
    7.6833   -1.2716   45.0970 C   0  0  0  0  0  0  0  0  0  0  0  0
    6.2468   -2.9038   45.8838 C   0  0  0  0  0  0  0  0  0  0  0  0
    1.4576   -2.4785   42.6650 C   0  0  1  0  0  0  0  0  0  0  0  0
    1.5384   -0.1297   42.0802 C   0  0  0  0  0  0  0  0  0  0  0  0
    2.6511   -3.8570   44.0676 C   0  0  0  0  0  0  0  0  0  0  0  0
    1.6090   -3.4980   43.1647 C   0  0  0  0  0  0  0  0  0  0  0  0
    0.6908   -4.5477   43.0875 N   0  0  0  0  0  0  0  0  0  0  0  0
    0.2168   -2.0759   41.9239 C   0  0  0  0  0  0  0  0  0  0  0  0
    7.5356   -3.1085   46.6525 C   0  0  0  0  0  0  0  0  0  0  0  0
    2.4864   -5.1883   44.6960 C   0  0  0  0  0  0  0  0  0  0  0  0
    8.4346   -1.9391   46.2039 N   0  0  0  0  0  0  0  0  0  0  0  0
    9.7431   -1.8109   46.6107 C   0  0  0  0  0  0  0  0  0  0  0  0
    0.2121   -0.5211   41.5014 C   0  0  0  0  0  0  0  0  0  0  0  0
    0.7918   -5.6770   43.8758 C   0  0  0  0  0  0  0  0  0  0  0  0
    7.7909   -3.8448   47.6035 O   0  0  0  0  0  0  0  0  0  0  0  0
   10.7232   -2.0714   45.7430 C   0  0  0  0  0  0  0  0  0  0  0  0
   12.0562   -1.9331   46.1981 C   0  0  0  0  0  0  0  0  0  0  0  0
    9.8833   -1.3737   47.9118 C   0  0  0  0  0  0  0  0  0  0  0  0
    8.7912   -1.1015   48.8278 O   0  0  0  0  0  0  0  0  0  0  0  0
   12.2549   -1.4444   47.6072 C   0  0  0  0  0  0  0  0  0  0  0  0
   11.1836   -1.2440   48.4242 C   0  0  0  0  0  0  0  0  0  0  0  0
  1  2  2  0
  1  3  1  0
  3  4  2  0
  4  5  1  0
  2  6  1  0
  4  6  1  0
  6  7  1  6
  2  8  1  0
  8  9  1  0
  8 10  2  0
  5 11  1  0
  5 12  2  0
  7 13  2  0
 11 14  1  0
 13 14  1  0
 14 15  2  0
 11 16  1  1
 10 17  1  0
 13 18  1  0
  9 19  1  0
 17 19  1  0
 19 20  1  0
 12 21  1  0
 16 21  2  0
 15 22  1  0
 18 22  2  0
 17 23  2  0
 20 24  2  0
 24 25  1  0
 20 26  1  0
 26 27  1  0
 25 28  2  0
 26 29  2  0
 28 29  1  0
M  END
$$$$
O14757_Pocket2Mol_idx-in-all-generaetd-402
     RDKit          3D

 34 39  0  0  0  0  0  0  0  0999 V2000
    4.5156    0.0550   42.9895 N   0  0  0  0  0  0  0  0  0  0  0  0
    5.0618   -0.8645   43.5295 C   0  0  0  0  0  0  0  0  0  0  0  0
    4.4350   -2.0604   43.7783 C   0  0  0  0  0  0  0  0  0  0  0  0
    4.9987   -3.0994   44.5839 C   0  0  0  0  0  0  0  0  0  0  0  0
    3.2714   -1.8664   43.0632 C   0  0  0  0  0  0  0  0  0  0  0  0
    6.4064   -0.5942   44.3204 N   0  0  0  0  0  0  0  0  0  0  0  0
    4.3422   -4.3256   44.7203 C   0  0  0  0  0  0  0  0  0  0  0  0
    2.1845   -2.6668   42.8270 N   0  0  0  0  0  0  0  0  0  0  0  0
    3.3305   -0.5395   42.5465 N   0  0  0  0  0  0  0  0  0  0  0  0
    1.9502   -3.8972   43.4076 C   0  0  0  0  0  0  0  0  0  0  0  0
    2.7156   -4.1184   44.6954 N   0  0  0  0  0  0  0  0  0  0  0  0
    6.8581   -1.5862   45.1101 C   0  0  0  0  0  0  0  0  0  0  0  0
    6.1801   -2.8430   45.2383 C   0  0  0  0  0  0  0  0  0  0  0  0
    2.1454   -5.1901   45.5771 C   0  0  0  0  0  0  0  0  0  0  0  0
    8.0137   -1.3946   45.8526 C   0  0  0  0  0  0  0  0  0  0  0  0
    0.9733   -4.5725   43.2066 O   0  0  0  0  0  0  0  0  0  0  0  0
    2.2437    0.0035   41.8733 C   0  0  0  0  0  0  0  0  0  0  0  0
    1.3210   -2.2077   41.7009 C   0  0  0  0  0  0  0  0  0  0  0  0
    8.6047   -2.2876   46.6923 C   0  0  0  0  0  0  0  0  0  0  0  0
    7.9141   -3.5157   46.8869 C   0  0  0  0  0  0  0  0  0  0  0  0
    1.0501   -0.8658   41.6612 C   0  0  0  0  0  0  0  0  0  0  0  0
    6.7278   -3.7718   46.2525 C   0  0  0  0  0  0  0  0  0  0  0  0
    9.8280   -2.0492   47.3361 C   0  0  0  0  0  0  0  0  0  0  0  0
    9.8262   -1.5735   48.5432 C   0  0  0  0  0  0  0  0  0  0  0  0
   11.0745   -2.0905   46.6735 C   0  0  0  0  0  0  0  0  0  0  0  0
    8.5798   -1.4294   49.3788 F   0  0  0  0  0  0  0  0  0  0  0  0
   10.9754   -1.2454   49.3173 C   0  0  0  0  0  0  0  0  0  0  0  0
   12.2431   -1.7844   47.3194 C   0  0  0  0  0  0  0  0  0  0  0  0
   12.3027   -1.4029   48.7252 C   0  0  0  0  0  0  0  0  0  0  0  0
   13.5212   -1.8824   46.5853 C   0  0  0  0  0  0  0  0  0  0  0  0
    1.0433   -4.5208   46.3540 C   0  0  0  0  0  0  0  0  0  0  0  0
   14.4617   -2.5703   46.9982 O   0  0  0  0  0  0  0  0  0  0  0  0
   13.7390   -0.9799   45.6238 N   0  0  0  0  0  0  0  0  0  0  0  0
   14.9023   -0.9540   44.8120 C   0  0  0  0  0  0  0  0  0  0  0  0
  1  2  2  0
  2  3  1  0
  3  4  1  0
  3  5  2  0
  2  6  1  0
  4  7  1  0
  5  8  1  0
  1  9  1  0
  5  9  1  0
  8 10  1  0
  7 11  1  0
 10 11  1  0
  6 12  2  0
  4 13  2  0
 12 13  1  0
 11 14  1  0
 12 15  1  0
 10 16  2  0
  9 17  1  0
  8 18  1  0
 15 19  2  0
 19 20  1  0
 17 21  1  0
 18 21  1  0
 13 22  1  0
 20 22  2  0
 19 23  1  0
 23 24  2  0
 23 25  1  0
 24 26  1  0
 24 27  1  0
 25 28  2  0
 27 29  2  0
 28 29  1  0
 28 30  1  0
 14 31  1  0
 30 32  2  0
 30 33  1  0
 33 34  1  0
M  END
$$$$
O14757_Pocket2Mol_idx-in-all-generaetd-403
     RDKit          3D

 29 32  0  0  0  0  0  0  0  0999 V2000
    5.5575   -0.4055   43.2321 N   0  0  0  0  0  0  0  0  0  0  0  0
    4.5233    0.0727   42.5988 N   0  0  0  0  0  0  0  0  0  0  0  0
    5.1726   -1.5114   43.9314 C   0  0  0  0  0  0  0  0  0  0  0  0
    5.9080   -2.2268   44.9217 C   0  0  0  0  0  0  0  0  0  0  0  0
    5.3635   -3.3861   45.5121 C   0  0  0  0  0  0  0  0  0  0  0  0
    7.1791   -1.7734   45.4544 C   0  0  0  0  0  0  0  0  0  0  0  0
    3.4069   -0.5377   42.5980 C   0  0  0  0  0  0  0  0  0  0  0  0
    2.1839   -0.4257   41.9942 C   0  0  0  0  0  0  0  0  0  0  0  0
    3.7449   -1.7453   43.5024 C   0  0  0  0  0  0  0  0  0  0  0  0
    7.8525   -0.6503   45.0420 O   0  0  0  0  0  0  0  0  0  0  0  0
    7.8789   -2.5576   46.3941 C   0  0  0  0  0  0  0  0  0  0  0  0
    2.8045   -2.7414   43.6928 C   0  0  0  0  0  0  0  0  0  0  0  0
    9.2115   -2.0969   46.8642 C   0  0  0  0  0  0  0  0  0  0  0  0
    4.0793   -3.8977   45.1232 C   0  0  0  0  0  0  0  0  0  0  0  0
    9.4064   -1.6424   47.9232 O   0  0  0  0  0  0  0  0  0  0  0  0
    3.1160   -3.7348   44.5196 N   0  0  0  0  0  0  0  0  0  0  0  0
   10.2271   -2.0181   45.9902 O   0  0  0  0  0  0  0  0  0  0  0  0
    1.5846   -2.6820   43.0143 C   0  0  0  0  0  0  0  0  0  0  0  0
   11.4761   -2.1798   46.4472 C   0  0  0  0  0  0  0  0  0  0  0  0
    7.2409   -3.6513   46.9381 C   0  0  0  0  0  0  0  0  0  0  0  0
    1.2492   -1.5070   42.1695 C   0  0  0  0  0  0  0  0  0  0  0  0
    0.5019   -3.7675   43.1967 C   0  0  0  0  0  0  0  0  0  0  0  0
    6.0495   -4.1366   46.6035 C   0  0  0  0  0  0  0  0  0  0  0  0
   -0.0338   -4.1944   42.0509 O   0  0  0  0  0  0  0  0  0  0  0  0
   12.4479   -1.3492   45.8036 C   0  0  1  0  0  0  0  0  0  0  0  0
   13.1550   -0.6047   46.5223 O   0  0  0  0  0  0  0  0  0  0  0  0
    0.4748   -4.4037   44.2322 O   0  0  0  0  0  0  0  0  0  0  0  0
   13.1354   -1.9129   44.6506 O   0  0  0  0  0  0  0  0  0  0  0  0
   13.1444   -1.1112   43.6500 C   0  0  0  0  0  0  0  0  0  0  0  0
  1  2  2  0
  1  3  1  0
  3  4  1  0
  4  5  2  0
  4  6  1  0
  2  7  1  0
  7  8  2  0
  3  9  2  0
  7  9  1  0
  6 10  1  0
  6 11  2  0
  9 12  1  0
 11 13  1  0
  5 14  1  0
 13 15  2  0
 12 16  1  0
 14 16  2  0
 13 17  1  0
 12 18  1  0
 17 19  1  0
 11 20  1  0
  8 21  1  0
 18 21  2  0
 18 22  1  0
  5 23  1  0
 20 23  2  0
 22 24  2  0
 19 25  1  0
 25 26  1  1
 22 27  1  0
 25 28  1  0
 28 29  1  0
M  END
$$$$
O14757_Pocket2Mol_idx-in-all-generaetd-404
     RDKit          3D

 39 44  0  0  0  0  0  0  0  0999 V2000
    1.5482   -0.3111   41.9233 C   0  0  0  0  0  0  0  0  0  0  0  0
    2.7284    0.2018   42.1525 N   0  0  0  0  0  0  0  0  0  0  0  0
    3.7893   -0.3016   42.7005 C   0  0  0  0  0  0  0  0  0  0  0  0
    3.3781   -1.7350   43.0000 C   0  0  0  0  0  0  0  0  0  0  0  0
    2.0339   -1.9619   42.6217 C   0  0  0  0  0  0  0  0  0  0  0  0
    4.1166   -2.4997   43.8458 C   0  0  0  0  0  0  0  0  0  0  0  0
    1.1731   -3.0051   42.5773 C   0  0  0  0  0  0  0  0  0  0  0  0
    0.4701   -3.2344   41.4901 C   0  0  0  0  0  0  0  0  0  0  0  0
    5.3799   -1.7814   44.2691 C   0  0  0  0  0  0  0  0  0  0  0  0
    5.0159   -0.0180   43.1201 N   0  0  0  0  0  0  0  0  0  0  0  0
    5.7693   -0.6937   43.8418 C   0  0  0  0  0  0  0  0  0  0  0  0
    0.8078   -3.6166   43.6782 C   0  0  0  0  0  0  0  0  0  0  0  0
    0.0663   -4.7011   43.7415 N   0  0  0  0  0  0  0  0  0  0  0  0
    6.2223   -2.6843   45.1565 C   0  0  0  0  0  0  0  0  0  0  0  0
    6.9599   -0.2351   44.2608 N   0  0  0  0  0  0  0  0  0  0  0  0
    5.9065   -3.9037   45.7499 N   0  0  0  0  0  0  0  0  0  0  0  0
   -0.5459   -5.1185   42.5870 C   0  0  0  0  0  0  0  0  0  0  0  0
    5.7480   -4.0340   46.9810 C   0  0  0  0  0  0  0  0  0  0  0  0
    7.4448   -1.8511   45.4198 C   0  0  0  0  0  0  0  0  0  0  0  0
    7.7572   -0.7827   45.0128 C   0  0  0  0  0  0  0  0  0  0  0  0
    8.4076   -2.7217   46.4541 C   0  0  0  0  0  0  0  0  0  0  0  0
    9.3167   -2.0988   47.1049 N   0  0  0  0  0  0  0  0  0  0  0  0
   -0.4719   -4.3893   41.5406 C   0  0  0  0  0  0  0  0  0  0  0  0
    8.3667   -4.0284   46.5743 N   0  0  0  0  0  0  0  0  0  0  0  0
   10.1532   -2.5726   47.9567 C   0  0  0  0  0  0  0  0  0  0  0  0
   11.0726   -1.7892   48.6998 C   0  0  0  0  0  0  0  0  0  0  0  0
   10.4886   -0.9372   49.4584 C   0  0  0  0  0  0  0  0  0  0  0  0
   10.2139   -3.8947   48.0407 C   0  0  0  0  0  0  0  0  0  0  0  0
    6.6188   -4.9855   47.3969 N   0  0  0  0  0  0  0  0  0  0  0  0
    5.1401   -3.1961   47.7242 O   0  0  0  0  0  0  0  0  0  0  0  0
    9.2230   -4.6492   47.2923 C   0  0  0  0  0  0  0  0  0  0  0  0
   12.4306   -1.6942   48.6002 C   0  0  0  0  0  0  0  0  0  0  0  0
   13.1277   -2.5738   47.4657 C   0  0  0  0  0  0  0  0  0  0  0  0
   13.0390   -2.0905   46.2012 C   0  0  0  0  0  0  0  0  0  0  0  0
   13.1676   -1.0416   49.3094 C   0  0  0  0  0  0  0  0  0  0  0  0
   12.5671   -2.7230   45.2421 O   0  0  0  0  0  0  0  0  0  0  0  0
   13.4645   -0.8937   45.8818 O   0  0  0  0  0  0  0  0  0  0  0  0
   11.2152   -0.1676   50.4254 C   0  0  0  0  0  0  0  0  0  0  0  0
   12.7096   -0.2512   50.3212 C   0  0  0  0  0  0  0  0  0  0  0  0
  1  2  1  0
  2  3  2  0
  3  4  1  0
  1  5  2  0
  4  5  1  0
  4  6  2  0
  5  7  1  0
  7  8  2  0
  6  9  1  0
  3 10  1  0
  9 11  2  0
 10 11  1  0
  7 12  1  0
 12 13  2  0
  9 14  1  0
 11 15  1  0
 14 16  1  0
 13 17  1  0
 16 18  1  0
 14 19  2  0
 15 20  2  0
 19 20  1  0
 19 21  1  0
 21 22  2  0
  8 23  1  0
 17 23  2  0
 21 24  1  0
 22 25  1  0
 25 26  1  0
 26 27  2  0
 25 28  2  0
 18 29  1  0
 18 30  2  0
 24 31  2  0
 28 31  1  0
 26 32  1  0
 32 33  1  0
 33 34  1  0
 32 35  2  0
 34 36  2  0
 34 37  1  0
 27 38  1  0
 35 39  1  0
 38 39  2  0
M  END
$$$$
O14757_Pocket2Mol_idx-in-all-generaetd-405
     RDKit          3D

 38 46  0  0  0  0  0  0  0  0999 V2000
    1.5482   -0.3111   41.9233 C   0  0  0  0  0  0  0  0  0  0  0  0
    2.7284    0.2018   42.1525 N   0  0  0  0  0  0  0  0  0  0  0  0
    3.7893   -0.3016   42.7005 C   0  0  0  0  0  0  0  0  0  0  0  0
    3.3781   -1.7350   43.0000 C   0  0  0  0  0  0  0  0  0  0  0  0
    2.0339   -1.9619   42.6217 C   0  0  0  0  0  0  0  0  0  0  0  0
    5.0090    0.1219   42.9340 N   0  0  0  0  0  0  0  0  0  0  0  0
    4.2895   -2.4979   43.6707 C   0  0  0  0  0  0  0  0  0  0  0  0
    5.8391   -0.6675   43.6343 C   0  0  0  0  0  0  0  0  0  0  0  0
    6.9849   -0.2377   44.0028 N   0  0  0  0  0  0  0  0  0  0  0  0
    4.0426   -3.8794   44.0832 C   0  0  0  0  0  0  0  0  0  0  0  0
    7.6796   -0.8734   44.9326 C   0  0  0  0  0  0  0  0  0  0  0  0
    1.1064   -2.9576   42.4211 C   0  0  0  0  0  0  0  0  0  0  0  0
    5.5298   -1.9496   44.0315 C   0  0  0  0  0  0  0  0  0  0  0  0
    3.8954   -4.1817   45.4718 C   0  0  0  0  0  0  0  0  0  0  0  0
    0.6765   -3.5480   43.4006 C   0  0  1  0  0  0  0  0  0  0  0  0
    0.5804   -3.2191   41.1635 C   0  0  0  0  0  0  0  0  0  0  0  0
    2.8083   -4.8227   45.9203 N   0  0  0  0  0  0  0  0  0  0  0  0
   -0.1574   -4.5754   42.9329 N   0  0  0  0  0  0  0  0  0  0  0  0
    6.5271   -2.5531   44.9677 C   0  0  0  0  0  0  0  0  0  0  0  0
   -0.2272   -4.3703   41.5137 C   0  0  0  0  0  0  0  0  0  0  0  0
    7.5095   -2.0029   45.3993 C   0  0  0  0  0  0  0  0  0  0  0  0
    8.2550   -2.6982   46.3988 C   0  0  0  0  0  0  0  0  0  0  0  0
    8.8975   -0.3029   45.3267 O   0  0  0  0  0  0  0  0  0  0  0  0
    4.8299   -4.4637   46.4212 C   0  0  0  0  0  0  0  0  0  0  0  0
    4.2707   -4.9248   47.6295 N   0  0  0  0  0  0  0  0  0  0  0  0
    3.2045   -5.2092   47.1521 C   0  0  0  0  0  0  0  0  0  0  0  0
    1.4482   -4.6186   45.4134 C   0  0  2  0  0  0  0  0  0  0  0  0
    1.2398   -3.5043   44.6236 O   0  0  0  0  0  0  0  0  0  0  0  0
    7.8521   -3.9584   46.8773 C   0  0  0  0  0  0  0  0  0  0  0  0
    8.4079   -4.7553   47.7407 C   0  0  0  0  0  0  0  0  0  0  0  0
    6.2843   -3.8191   46.0063 C   0  0  2  0  0  0  0  0  0  0  0  0
    0.5313   -4.7420   46.5885 C   0  0  0  0  0  0  0  0  0  0  0  0
    9.6517   -2.6917   47.0982 C   0  0  0  0  0  0  0  0  0  0  0  0
   10.0453   -3.4992   47.9237 C   0  0  0  0  0  0  0  0  0  0  0  0
    7.4533   -6.0285   47.9967 C   0  0  0  0  0  0  0  0  0  0  0  0
   11.4986   -3.2367   48.4830 O   0  0  0  0  0  0  0  0  0  0  0  0
    9.4927   -4.5919   48.2454 C   0  0  0  0  0  0  0  0  0  0  0  0
   12.2821   -2.3832   47.8773 C   0  0  0  0  0  0  0  0  0  0  0  0
  1  2  1  0
  2  3  2  0
  3  4  1  0
  1  5  2  0
  4  5  1  0
  3  6  1  0
  4  7  2  0
  6  8  1  0
  8  9  1  0
  7 10  1  0
  9 11  1  0
  5 12  1  0
  7 13  1  0
  8 13  2  0
 10 14  1  0
 12 15  1  0
 12 16  2  0
 14 17  1  0
 15 18  1  0
 13 19  1  0
 16 20  1  0
 18 20  2  0
 11 21  1  0
 19 21  2  0
 21 22  1  0
 11 23  2  0
 14 24  2  0
 24 25  1  0
 17 26  1  0
 25 26  2  0
 17 27  1  0
 15 28  1  6
 27 28  1  0
 22 29  2  0
 29 30  1  0
 19 31  1  0
 31 24  1  1
 29 31  1  0
 27 32  1  1
 22 33  1  0
 33 34  2  0
 30 35  1  0
 34 36  1  0
 30 37  2  0
 34 37  1  0
 36 38  1  0
M  END
$$$$
O14757_Pocket2Mol_idx-in-all-generaetd-406
     RDKit          3D

 45 53  0  0  0  0  0  0  0  0999 V2000
    1.5482   -0.3111   41.9233 C   0  0  0  0  0  0  0  0  0  0  0  0
    2.7284    0.2018   42.1525 N   0  0  0  0  0  0  0  0  0  0  0  0
    3.7893   -0.3016   42.7005 C   0  0  0  0  0  0  0  0  0  0  0  0
    3.3781   -1.7350   43.0000 C   0  0  0  0  0  0  0  0  0  0  0  0
    2.0339   -1.9619   42.6217 C   0  0  0  0  0  0  0  0  0  0  0  0
    5.0090    0.1219   42.9340 N   0  0  0  0  0  0  0  0  0  0  0  0
    4.2895   -2.4979   43.6707 C   0  0  0  0  0  0  0  0  0  0  0  0
    5.8391   -0.6675   43.6343 C   0  0  0  0  0  0  0  0  0  0  0  0
    6.9849   -0.2377   44.0028 N   0  0  0  0  0  0  0  0  0  0  0  0
    4.0426   -3.8794   44.0832 C   0  0  0  0  0  0  0  0  0  0  0  0
    7.6796   -0.8734   44.9326 C   0  0  0  0  0  0  0  0  0  0  0  0
    1.1064   -2.9576   42.4211 C   0  0  0  0  0  0  0  0  0  0  0  0
    5.5298   -1.9496   44.0315 C   0  0  0  0  0  0  0  0  0  0  0  0
    3.8954   -4.1817   45.4718 C   0  0  0  0  0  0  0  0  0  0  0  0
    0.6765   -3.5480   43.4006 C   0  0  1  0  0  0  0  0  0  0  0  0
    0.5804   -3.2191   41.1635 C   0  0  0  0  0  0  0  0  0  0  0  0
    2.8083   -4.8227   45.9203 N   0  0  0  0  0  0  0  0  0  0  0  0
   -0.1574   -4.5754   42.9329 N   0  0  0  0  0  0  0  0  0  0  0  0
    6.5271   -2.5531   44.9677 C   0  0  0  0  0  0  0  0  0  0  0  0
   -0.2272   -4.3703   41.5137 C   0  0  0  0  0  0  0  0  0  0  0  0
    7.5095   -2.0029   45.3993 C   0  0  0  0  0  0  0  0  0  0  0  0
    8.2550   -2.6982   46.3988 C   0  0  1  0  0  0  0  0  0  0  0  0
    8.8975   -0.3029   45.3267 O   0  0  0  0  0  0  0  0  0  0  0  0
    4.8299   -4.4637   46.4212 C   0  0  0  0  0  0  0  0  0  0  0  0
    4.2707   -4.9248   47.6295 N   0  0  0  0  0  0  0  0  0  0  0  0
    3.2045   -5.2092   47.1521 C   0  0  0  0  0  0  0  0  0  0  0  0
    1.4482   -4.6186   45.4134 C   0  0  0  0  0  0  0  0  0  0  0  0
    1.3256   -3.7660   44.6394 N   0  0  0  0  0  0  0  0  0  0  0  0
    9.2816   -2.1418   47.1273 N   0  0  0  0  0  0  0  0  0  0  0  0
   10.0629   -3.1324   47.8508 C   0  0  0  0  0  0  0  0  0  0  0  0
    6.3491   -3.8960   46.0844 C   0  0  2  0  0  0  0  0  0  0  0  0
    7.4349   -3.5889   46.9054 C   0  0  0  0  0  0  0  0  0  0  0  0
   10.3145   -2.7271   49.0818 O   0  0  0  0  0  0  0  0  0  0  0  0
    0.6213   -5.4445   45.7455 O   0  0  0  0  0  0  0  0  0  0  0  0
   11.0262   -3.8136   47.1050 C   0  0  0  0  0  0  0  0  0  0  0  0
   12.1704   -3.3854   46.7547 C   0  0  0  0  0  0  0  0  0  0  0  0
   13.1080   -4.1111   46.0053 C   0  0  0  0  0  0  0  0  0  0  0  0
   14.3489   -3.5966   45.7888 C   0  0  0  0  0  0  0  0  0  0  0  0
   12.7430   -5.2725   45.5056 C   0  0  0  0  0  0  0  0  0  0  0  0
   14.6935   -2.2816   45.3353 C   0  0  0  0  0  0  0  0  0  0  0  0
   10.5583   -5.1175   46.7236 C   0  0  0  0  0  0  0  0  0  0  0  0
   13.6556   -1.3528   45.3896 O   0  0  0  0  0  0  0  0  0  0  0  0
   15.6120   -1.8364   44.7078 O   0  0  0  0  0  0  0  0  0  0  0  0
    9.3385   -5.6741   46.9152 O   0  0  0  0  0  0  0  0  0  0  0  0
   11.4329   -5.8197   45.8673 C   0  0  0  0  0  0  0  0  0  0  0  0
  1  2  1  0
  2  3  2  0
  3  4  1  0
  1  5  2  0
  4  5  1  0
  3  6  1  0
  4  7  2  0
  6  8  1  0
  8  9  1  0
  7 10  1  0
  9 11  1  0
  5 12  1  0
  7 13  1  0
  8 13  2  0
 10 14  1  0
 12 15  1  0
 12 16  2  0
 14 17  1  0
 15 18  1  0
 13 19  1  0
 16 20  1  0
 18 20  2  0
 11 21  1  0
 19 21  2  0
 21 22  1  0
 11 23  2  0
 14 24  2  0
 24 25  1  0
 17 26  1  0
 25 26  2  0
 17 27  1  0
 15 28  1  6
 27 28  1  0
 22 29  1  1
 29 30  1  0
 19 31  1  0
 24 31  1  0
 22 32  1  0
 31 32  1  1
 30 33  2  0
 27 34  2  0
 30 35  1  0
 35 36  2  0
 36 37  1  0
 37 38  1  0
 37 39  2  0
 38 40  1  0
 35 41  1  0
 40 42  2  0
 40 43  1  0
 41 44  1  0
 39 45  1  0
 41 45  2  0
M  END
$$$$
O14757_Pocket2Mol_idx-in-all-generaetd-407
     RDKit          3D

 49 57  0  0  0  0  0  0  0  0999 V2000
    5.3420    0.2589   42.8836 O   0  0  0  0  0  0  0  0  0  0  0  0
    5.1627   -0.7554   43.4753 C   0  0  0  0  0  0  0  0  0  0  0  0
    4.0509   -1.4657   43.4177 N   0  0  0  0  0  0  0  0  0  0  0  0
    5.9969   -1.2317   44.6840 C   0  0  0  0  0  0  0  0  0  0  0  0
    2.9618   -1.1021   42.5918 C   0  0  1  0  0  0  0  0  0  0  0  0
    7.3392   -0.8596   44.8412 C   0  0  0  0  0  0  0  0  0  0  0  0
    1.9754   -2.0820   42.2741 C   0  0  0  0  0  0  0  0  0  0  0  0
    5.5910   -2.4282   45.3439 C   0  0  0  0  0  0  0  0  0  0  0  0
    6.5874   -2.9636   46.1581 C   0  0  0  0  0  0  0  0  0  0  0  0
    4.2763   -3.0680   45.0493 N   0  0  0  0  0  0  0  0  0  0  0  0
    3.6188   -2.5886   44.2024 C   0  0  0  0  0  0  0  0  0  0  0  0
    8.1921   -1.4071   45.7505 C   0  0  0  0  0  0  0  0  0  0  0  0
    1.0154   -1.8839   41.2980 C   0  0  0  0  0  0  0  0  0  0  0  0
    2.5720   -3.3564   43.9063 C   0  0  0  0  0  0  0  0  0  0  0  0
    0.2502   -2.8976   41.0751 C   0  0  0  0  0  0  0  0  0  0  0  0
    6.1761   -4.1775   47.0209 C   0  0  0  0  0  0  0  0  0  0  0  0
    1.7266   -3.1047   43.0115 C   0  0  2  0  0  0  0  0  0  0  0  0
    2.3696   -4.5367   44.7536 N   0  0  0  0  0  0  0  0  0  0  0  0
    1.2264   -5.2346   44.4693 C   0  0  0  0  0  0  0  0  0  0  0  0
    0.7187   -3.8955   42.5465 C   0  0  0  0  0  0  0  0  0  0  0  0
    9.4576   -0.8949   46.0327 N   0  0  0  0  0  0  0  0  0  0  0  0
    0.8625   -6.3901   45.2462 C   0  0  0  0  0  0  0  0  0  0  0  0
    7.6467   -2.5139   46.4892 C   0  0  0  0  0  0  0  0  0  0  0  0
   10.4908   -1.5336   45.8242 C   0  0  0  0  0  0  0  0  0  0  0  0
    0.3057   -4.9299   43.2909 C   0  0  0  0  0  0  0  0  0  0  0  0
   11.5916   -1.4291   46.7436 C   0  0  0  0  0  0  0  0  0  0  0  0
   10.5566   -2.3672   44.8649 O   0  0  0  0  0  0  0  0  0  0  0  0
    2.4730    0.2084   42.8389 O   0  0  0  0  0  0  0  0  0  0  0  0
   11.6027   -2.2081   47.7725 N   0  0  0  0  0  0  0  0  0  0  0  0
   12.6189   -0.5862   46.5415 C   0  0  0  0  0  0  0  0  0  0  0  0
   13.6413   -0.4484   47.4129 C   0  0  0  0  0  0  0  0  0  0  0  0
   10.4764   -3.1097   48.1134 C   0  0  0  0  0  0  0  0  0  0  0  0
    9.5762   -2.4717   49.0753 C   0  0  0  0  0  0  0  0  0  0  0  0
    9.7761   -1.2394   49.5167 C   0  0  0  0  0  0  0  0  0  0  0  0
    8.6397   -3.3252   49.7339 C   0  0  0  0  0  0  0  0  0  0  0  0
    8.9861   -0.7034   50.5819 C   0  0  0  0  0  0  0  0  0  0  0  0
   14.7137    0.5128   47.0925 C   0  0  0  0  0  0  0  0  0  0  0  0
    8.3536   -4.6815   49.2042 C   0  0  0  0  0  0  0  0  0  0  0  0
    7.9034   -2.7594   50.6763 C   0  0  0  0  0  0  0  0  0  0  0  0
    6.9327   -5.0150   49.0248 N   0  0  0  0  0  0  0  0  0  0  0  0
    8.1305   -1.4992   51.1482 C   0  0  0  0  0  0  0  0  0  0  0  0
    6.3852   -3.9495   48.3951 C   0  0  0  0  0  0  0  0  0  0  0  0
   13.6768   -1.2836   48.4696 C   0  0  0  0  0  0  0  0  0  0  0  0
   14.7714   -1.2324   49.3357 C   0  0  0  0  0  0  0  0  0  0  0  0
   12.4977   -2.1502   48.5649 C   0  0  0  0  0  0  0  0  0  0  0  0
   14.6552    1.3736   46.0074 C   0  0  0  0  0  0  0  0  0  0  0  0
   15.7667   -0.2623   49.1455 C   0  0  0  0  0  0  0  0  0  0  0  0
   16.9090   -0.1670   50.0342 O   0  0  0  0  0  0  0  0  0  0  0  0
   15.7995    0.6237   48.0136 C   0  0  0  0  0  0  0  0  0  0  0  0
  1  2  2  0
  2  3  1  0
  2  4  1  0
  3  5  1  0
  4  6  2  0
  5  7  1  0
  4  8  1  0
  8  9  2  0
  8 10  1  0
  3 11  1  0
 10 11  2  0
  6 12  1  0
  7 13  2  0
 11 14  1  0
 13 15  1  0
  9 16  1  0
 17  7  1  6
 14 17  1  0
 14 18  2  0
 18 19  1  0
 15 20  2  0
 17 20  1  0
 12 21  1  0
 19 22  1  0
  9 23  1  0
 12 23  2  0
 21 24  1  0
 19 25  2  0
 20 25  1  0
 24 26  1  0
 24 27  2  0
  5 28  1  1
 26 29  1  0
 26 30  2  0
 30 31  1  0
 29 32  1  0
 32 33  1  0
 33 34  1  0
 33 35  2  0
 34 36  2  0
 31 37  2  0
 35 38  1  0
 35 39  1  0
 38 40  1  0
 36 41  1  0
 39 41  2  0
 16 42  1  0
 40 42  1  0
 31 43  1  0
 43 44  2  0
 29 45  1  0
 43 45  1  0
 37 46  1  0
 44 47  1  0
 47 48  1  0
 37 49  1  0
 47 49  2  0
M  END
$$$$
O14757_Pocket2Mol_idx-in-all-generaetd-408
     RDKit          3D

 43 51  0  0  0  0  0  0  0  0999 V2000
    1.5482   -0.3111   41.9233 C   0  0  0  0  0  0  0  0  0  0  0  0
    2.7284    0.2018   42.1525 N   0  0  0  0  0  0  0  0  0  0  0  0
    3.7893   -0.3016   42.7005 C   0  0  0  0  0  0  0  0  0  0  0  0
    3.3781   -1.7350   43.0000 C   0  0  0  0  0  0  0  0  0  0  0  0
    2.0339   -1.9619   42.6217 C   0  0  0  0  0  0  0  0  0  0  0  0
    5.0090    0.1219   42.9340 N   0  0  0  0  0  0  0  0  0  0  0  0
    4.2895   -2.4979   43.6707 C   0  0  0  0  0  0  0  0  0  0  0  0
    5.8391   -0.6675   43.6343 C   0  0  0  0  0  0  0  0  0  0  0  0
    6.9849   -0.2377   44.0028 N   0  0  0  0  0  0  0  0  0  0  0  0
    4.0426   -3.8794   44.0832 C   0  0  0  0  0  0  0  0  0  0  0  0
    7.6796   -0.8734   44.9326 C   0  0  0  0  0  0  0  0  0  0  0  0
    1.1064   -2.9576   42.4211 C   0  0  0  0  0  0  0  0  0  0  0  0
    5.5298   -1.9496   44.0315 C   0  0  0  0  0  0  0  0  0  0  0  0
    3.8954   -4.1817   45.4718 C   0  0  0  0  0  0  0  0  0  0  0  0
    0.6765   -3.5480   43.4006 C   0  0  1  0  0  0  0  0  0  0  0  0
    0.5804   -3.2191   41.1635 C   0  0  0  0  0  0  0  0  0  0  0  0
    2.8083   -4.8227   45.9203 N   0  0  0  0  0  0  0  0  0  0  0  0
   -0.1574   -4.5754   42.9329 N   0  0  0  0  0  0  0  0  0  0  0  0
    6.5271   -2.5531   44.9677 C   0  0  0  0  0  0  0  0  0  0  0  0
   -0.2272   -4.3703   41.5137 C   0  0  0  0  0  0  0  0  0  0  0  0
    7.5095   -2.0029   45.3993 C   0  0  0  0  0  0  0  0  0  0  0  0
    8.2550   -2.6982   46.3988 C   0  0  0  0  0  0  0  0  0  0  0  0
    8.8975   -0.3029   45.3267 O   0  0  0  0  0  0  0  0  0  0  0  0
    4.8299   -4.4637   46.4212 C   0  0  0  0  0  0  0  0  0  0  0  0
    4.2707   -4.9248   47.6295 N   0  0  0  0  0  0  0  0  0  0  0  0
    3.2045   -5.2092   47.1521 C   0  0  0  0  0  0  0  0  0  0  0  0
    1.4482   -4.6186   45.4134 C   0  0  2  0  0  0  0  0  0  0  0  0
    1.2398   -3.5043   44.6236 O   0  0  0  0  0  0  0  0  0  0  0  0
    6.3317   -3.9297   46.0870 C   0  0  2  0  0  0  0  0  0  0  0  0
    9.5296   -2.5449   46.9776 C   0  0  0  0  0  0  0  0  0  0  0  0
    9.7921   -1.7530   47.9018 O   0  0  0  0  0  0  0  0  0  0  0  0
    7.3972   -3.8130   46.7939 C   0  0  0  0  0  0  0  0  0  0  0  0
   10.4154   -3.4217   46.6883 O   0  0  0  0  0  0  0  0  0  0  0  0
    0.5555   -4.7535   46.5674 C   0  0  0  0  0  0  0  0  0  0  0  0
   11.6497   -3.0596   47.0439 C   0  0  0  0  0  0  0  0  0  0  0  0
   12.3878   -4.1125   47.6990 C   0  0  1  0  0  0  0  0  0  0  0  0
   11.8800   -5.2760   47.5659 O   0  0  0  0  0  0  0  0  0  0  0  0
   12.1402   -1.9273   46.5416 C   0  0  0  0  0  0  0  0  0  0  0  0
   13.7566   -3.9428   47.4635 C   0  0  0  0  0  0  0  0  0  0  0  0
   12.5319   -6.3439   48.1744 C   0  0  0  0  0  0  0  0  0  0  0  0
   14.4239   -2.7244   47.1296 C   0  0  0  0  0  0  0  0  0  0  0  0
   15.7456   -2.5422   47.0169 O   0  0  0  0  0  0  0  0  0  0  0  0
   13.5334   -1.7312   46.4643 C   0  0  0  0  0  0  0  0  0  0  0  0
  1  2  1  0
  2  3  2  0
  3  4  1  0
  1  5  2  0
  4  5  1  0
  3  6  1  0
  4  7  2  0
  6  8  1  0
  8  9  1  0
  7 10  1  0
  9 11  1  0
  5 12  1  0
  7 13  1  0
  8 13  2  0
 10 14  1  0
 12 15  1  0
 12 16  2  0
 14 17  1  0
 15 18  1  0
 13 19  1  0
 16 20  1  0
 18 20  2  0
 11 21  1  0
 19 21  2  0
 21 22  1  0
 11 23  2  0
 14 24  2  0
 24 25  1  0
 17 26  1  0
 25 26  2  0
 17 27  1  0
 15 28  1  6
 27 28  1  0
 19 29  1  0
 24 29  1  0
 22 30  1  0
 30 31  2  0
 22 32  2  0
 29 32  1  1
 30 33  1  0
 27 34  1  1
 33 35  1  0
 35 36  1  0
 36 37  1  6
 35 38  2  0
 36 39  1  0
 37 40  1  0
 39 41  1  0
 41 42  1  0
 38 43  1  0
 41 43  2  0
M  END
$$$$
O14757_Pocket2Mol_idx-in-all-generaetd-409
     RDKit          3D

 42 50  0  0  0  0  0  0  0  0999 V2000
    1.5482   -0.3111   41.9233 C   0  0  0  0  0  0  0  0  0  0  0  0
    2.7284    0.2018   42.1525 N   0  0  0  0  0  0  0  0  0  0  0  0
    3.7893   -0.3016   42.7005 C   0  0  0  0  0  0  0  0  0  0  0  0
    3.3781   -1.7350   43.0000 C   0  0  0  0  0  0  0  0  0  0  0  0
    2.0339   -1.9619   42.6217 C   0  0  0  0  0  0  0  0  0  0  0  0
    5.0090    0.1219   42.9340 N   0  0  0  0  0  0  0  0  0  0  0  0
    4.2895   -2.4979   43.6707 C   0  0  0  0  0  0  0  0  0  0  0  0
    5.8391   -0.6675   43.6343 C   0  0  0  0  0  0  0  0  0  0  0  0
    6.9849   -0.2377   44.0028 N   0  0  0  0  0  0  0  0  0  0  0  0
    4.0426   -3.8794   44.0832 C   0  0  0  0  0  0  0  0  0  0  0  0
    7.6796   -0.8734   44.9326 C   0  0  0  0  0  0  0  0  0  0  0  0
    1.1064   -2.9576   42.4211 C   0  0  0  0  0  0  0  0  0  0  0  0
    5.5298   -1.9496   44.0315 C   0  0  0  0  0  0  0  0  0  0  0  0
    3.8954   -4.1817   45.4718 C   0  0  0  0  0  0  0  0  0  0  0  0
    0.6765   -3.5480   43.4006 C   0  0  1  0  0  0  0  0  0  0  0  0
    0.5804   -3.2191   41.1635 C   0  0  0  0  0  0  0  0  0  0  0  0
    2.8083   -4.8227   45.9203 N   0  0  0  0  0  0  0  0  0  0  0  0
   -0.1574   -4.5754   42.9329 N   0  0  0  0  0  0  0  0  0  0  0  0
    6.5271   -2.5531   44.9677 C   0  0  0  0  0  0  0  0  0  0  0  0
   -0.2272   -4.3703   41.5137 C   0  0  0  0  0  0  0  0  0  0  0  0
    7.5095   -2.0029   45.3993 C   0  0  0  0  0  0  0  0  0  0  0  0
    8.2550   -2.6982   46.3988 C   0  0  1  0  0  0  0  0  0  0  0  0
    8.8975   -0.3029   45.3267 O   0  0  0  0  0  0  0  0  0  0  0  0
    4.8299   -4.4637   46.4212 C   0  0  0  0  0  0  0  0  0  0  0  0
    4.2707   -4.9248   47.6295 N   0  0  0  0  0  0  0  0  0  0  0  0
    3.2045   -5.2092   47.1521 C   0  0  0  0  0  0  0  0  0  0  0  0
    1.4482   -4.6186   45.4134 C   0  0  0  0  0  0  0  0  0  0  0  0
    1.3256   -3.7660   44.6394 N   0  0  0  0  0  0  0  0  0  0  0  0
    9.2816   -2.1418   47.1273 N   0  0  0  0  0  0  0  0  0  0  0  0
   10.0629   -3.1324   47.8508 C   0  0  0  0  0  0  0  0  0  0  0  0
    6.3491   -3.8960   46.0844 C   0  0  2  0  0  0  0  0  0  0  0  0
    7.4349   -3.5889   46.9054 C   0  0  0  0  0  0  0  0  0  0  0  0
   10.3145   -2.7271   49.0818 O   0  0  0  0  0  0  0  0  0  0  0  0
   11.0221   -3.8171   47.1052 C   0  0  0  0  0  0  0  0  0  0  0  0
    0.8710   -5.7412   45.2074 O   0  0  0  0  0  0  0  0  0  0  0  0
   12.1654   -3.3890   46.7468 C   0  0  0  0  0  0  0  0  0  0  0  0
   10.8862   -5.2442   47.2797 C   0  0  0  0  0  0  0  0  0  0  0  0
   11.6445   -5.8923   46.6301 C   0  0  0  0  0  0  0  0  0  0  0  0
   11.5586   -7.4203   46.6373 C   0  0  0  0  0  0  0  0  0  0  0  0
   12.8955   -5.3571   46.1176 C   0  0  0  0  0  0  0  0  0  0  0  0
   13.0895   -4.0304   46.1822 C   0  0  0  0  0  0  0  0  0  0  0  0
   10.5325   -7.8101   45.7342 N   0  0  0  0  0  0  0  0  0  0  0  0
  1  2  1  0
  2  3  2  0
  3  4  1  0
  1  5  2  0
  4  5  1  0
  3  6  1  0
  4  7  2  0
  6  8  1  0
  8  9  1  0
  7 10  1  0
  9 11  1  0
  5 12  1  0
  7 13  1  0
  8 13  2  0
 10 14  1  0
 12 15  1  0
 12 16  2  0
 14 17  1  0
 15 18  1  0
 13 19  1  0
 16 20  1  0
 18 20  2  0
 11 21  1  0
 19 21  2  0
 21 22  1  0
 11 23  2  0
 14 24  2  0
 24 25  1  0
 17 26  1  0
 25 26  2  0
 17 27  1  0
 15 28  1  6
 27 28  1  0
 22 29  1  1
 29 30  1  0
 19 31  1  0
 24 31  1  0
 22 32  1  0
 31 32  1  1
 30 33  2  0
 30 34  1  0
 27 35  2  0
 34 36  2  0
 34 37  1  0
 37 38  2  0
 38 39  1  0
 38 40  1  0
 36 41  1  0
 40 41  2  0
 39 42  1  0
M  END
$$$$
O14757_Pocket2Mol_idx-in-all-generaetd-410
     RDKit          3D

 35 40  0  0  0  0  0  0  0  0999 V2000
    1.5482   -0.3111   41.9233 C   0  0  0  0  0  0  0  0  0  0  0  0
    2.7284    0.2018   42.1525 N   0  0  0  0  0  0  0  0  0  0  0  0
    3.7893   -0.3016   42.7005 C   0  0  0  0  0  0  0  0  0  0  0  0
    3.3781   -1.7350   43.0000 C   0  0  0  0  0  0  0  0  0  0  0  0
    2.0339   -1.9619   42.6217 C   0  0  0  0  0  0  0  0  0  0  0  0
    4.1166   -2.4997   43.8458 C   0  0  0  0  0  0  0  0  0  0  0  0
    1.1731   -3.0051   42.5773 C   0  0  0  0  0  0  0  0  0  0  0  0
    0.4701   -3.2344   41.4901 C   0  0  0  0  0  0  0  0  0  0  0  0
    5.3799   -1.7814   44.2691 C   0  0  0  0  0  0  0  0  0  0  0  0
    5.0159   -0.0180   43.1201 N   0  0  0  0  0  0  0  0  0  0  0  0
    5.7693   -0.6937   43.8418 C   0  0  0  0  0  0  0  0  0  0  0  0
    0.8078   -3.6166   43.6782 C   0  0  0  0  0  0  0  0  0  0  0  0
    0.0663   -4.7011   43.7415 N   0  0  0  0  0  0  0  0  0  0  0  0
    6.2223   -2.6843   45.1565 C   0  0  0  0  0  0  0  0  0  0  0  0
    6.9599   -0.2351   44.2608 N   0  0  0  0  0  0  0  0  0  0  0  0
    5.9065   -3.9037   45.7499 N   0  0  0  0  0  0  0  0  0  0  0  0
   -0.5459   -5.1185   42.5870 C   0  0  0  0  0  0  0  0  0  0  0  0
    5.7480   -4.0340   46.9810 C   0  0  0  0  0  0  0  0  0  0  0  0
    7.4448   -1.8511   45.4198 C   0  0  0  0  0  0  0  0  0  0  0  0
    7.7572   -0.7827   45.0128 C   0  0  0  0  0  0  0  0  0  0  0  0
    8.4076   -2.7217   46.4541 C   0  0  0  0  0  0  0  0  0  0  0  0
    9.3167   -2.0988   47.1049 N   0  0  0  0  0  0  0  0  0  0  0  0
   -0.4719   -4.3893   41.5406 C   0  0  0  0  0  0  0  0  0  0  0  0
    8.3667   -4.0284   46.5743 N   0  0  0  0  0  0  0  0  0  0  0  0
   10.1532   -2.5726   47.9567 C   0  0  0  0  0  0  0  0  0  0  0  0
   11.0726   -1.7892   48.6998 C   0  0  0  0  0  0  0  0  0  0  0  0
   10.4886   -0.9372   49.4584 C   0  0  0  0  0  0  0  0  0  0  0  0
   10.2139   -3.8947   48.0407 C   0  0  0  0  0  0  0  0  0  0  0  0
    6.6188   -4.9855   47.3969 N   0  0  0  0  0  0  0  0  0  0  0  0
    5.1401   -3.1961   47.7242 O   0  0  0  0  0  0  0  0  0  0  0  0
    9.2230   -4.6492   47.2923 C   0  0  0  0  0  0  0  0  0  0  0  0
   11.2455   -0.1560   50.3763 C   0  0  0  0  0  0  0  0  0  0  0  0
   12.4527   -1.8809   48.5193 C   0  0  0  0  0  0  0  0  0  0  0  0
   12.6387   -0.2160   50.2260 C   0  0  0  0  0  0  0  0  0  0  0  0
   13.2206   -1.0830   49.3293 C   0  0  0  0  0  0  0  0  0  0  0  0
  1  2  1  0
  2  3  2  0
  3  4  1  0
  1  5  2  0
  4  5  1  0
  4  6  2  0
  5  7  1  0
  7  8  2  0
  6  9  1  0
  3 10  1  0
  9 11  2  0
 10 11  1  0
  7 12  1  0
 12 13  2  0
  9 14  1  0
 11 15  1  0
 14 16  1  0
 13 17  1  0
 16 18  1  0
 14 19  2  0
 15 20  2  0
 19 20  1  0
 19 21  1  0
 21 22  2  0
  8 23  1  0
 17 23  2  0
 21 24  1  0
 22 25  1  0
 25 26  1  0
 26 27  2  0
 25 28  2  0
 18 29  1  0
 18 30  2  0
 24 31  2  0
 28 31  1  0
 27 32  1  0
 26 33  1  0
 32 34  2  0
 33 35  2  0
 34 35  1  0
M  END
$$$$
O14757_Pocket2Mol_idx-in-all-generaetd-411
     RDKit          3D

 47 56  0  0  0  0  0  0  0  0999 V2000
    1.5482   -0.3111   41.9233 C   0  0  0  0  0  0  0  0  0  0  0  0
    2.7284    0.2018   42.1525 N   0  0  0  0  0  0  0  0  0  0  0  0
    3.7893   -0.3016   42.7005 C   0  0  0  0  0  0  0  0  0  0  0  0
    3.3781   -1.7350   43.0000 C   0  0  0  0  0  0  0  0  0  0  0  0
    2.0339   -1.9619   42.6217 C   0  0  0  0  0  0  0  0  0  0  0  0
    5.0090    0.1219   42.9340 N   0  0  0  0  0  0  0  0  0  0  0  0
    4.2895   -2.4979   43.6707 C   0  0  0  0  0  0  0  0  0  0  0  0
    5.8391   -0.6675   43.6343 C   0  0  0  0  0  0  0  0  0  0  0  0
    6.9849   -0.2377   44.0028 N   0  0  0  0  0  0  0  0  0  0  0  0
    4.0426   -3.8794   44.0832 C   0  0  0  0  0  0  0  0  0  0  0  0
    7.6796   -0.8734   44.9326 C   0  0  0  0  0  0  0  0  0  0  0  0
    1.1064   -2.9576   42.4211 C   0  0  0  0  0  0  0  0  0  0  0  0
    5.5298   -1.9496   44.0315 C   0  0  0  0  0  0  0  0  0  0  0  0
    3.8954   -4.1817   45.4718 C   0  0  0  0  0  0  0  0  0  0  0  0
    0.6765   -3.5480   43.4006 C   0  0  1  0  0  0  0  0  0  0  0  0
    0.5804   -3.2191   41.1635 C   0  0  0  0  0  0  0  0  0  0  0  0
    2.8083   -4.8227   45.9203 N   0  0  0  0  0  0  0  0  0  0  0  0
   -0.1574   -4.5754   42.9329 N   0  0  0  0  0  0  0  0  0  0  0  0
    6.5271   -2.5531   44.9677 C   0  0  0  0  0  0  0  0  0  0  0  0
   -0.2272   -4.3703   41.5137 C   0  0  0  0  0  0  0  0  0  0  0  0
    7.5095   -2.0029   45.3993 C   0  0  0  0  0  0  0  0  0  0  0  0
    8.2550   -2.6982   46.3988 C   0  0  1  0  0  0  0  0  0  0  0  0
    8.8975   -0.3029   45.3267 O   0  0  0  0  0  0  0  0  0  0  0  0
    4.8299   -4.4637   46.4212 C   0  0  0  0  0  0  0  0  0  0  0  0
    4.2707   -4.9248   47.6295 N   0  0  0  0  0  0  0  0  0  0  0  0
    3.2045   -5.2092   47.1521 C   0  0  0  0  0  0  0  0  0  0  0  0
    1.4482   -4.6186   45.4134 C   0  0  0  0  0  0  0  0  0  0  0  0
    1.3256   -3.7660   44.6394 N   0  0  0  0  0  0  0  0  0  0  0  0
    9.2816   -2.1418   47.1273 N   0  0  0  0  0  0  0  0  0  0  0  0
   10.0629   -3.1324   47.8508 C   0  0  0  0  0  0  0  0  0  0  0  0
    6.3491   -3.8960   46.0844 C   0  0  2  0  0  0  0  0  0  0  0  0
    7.4349   -3.5889   46.9054 C   0  0  0  0  0  0  0  0  0  0  0  0
   10.3145   -2.7271   49.0818 O   0  0  0  0  0  0  0  0  0  0  0  0
   11.0221   -3.8171   47.1052 C   0  0  0  0  0  0  0  0  0  0  0  0
    0.8710   -5.7412   45.2074 O   0  0  0  0  0  0  0  0  0  0  0  0
   12.1654   -3.3890   46.7468 C   0  0  0  0  0  0  0  0  0  0  0  0
   13.1016   -4.1184   46.0003 C   0  0  0  0  0  0  0  0  0  0  0  0
   14.3410   -3.6031   45.7839 C   0  0  0  0  0  0  0  0  0  0  0  0
   12.7386   -5.2783   45.5019 C   0  0  0  0  0  0  0  0  0  0  0  0
   10.5019   -5.1787   46.6888 C   0  0  0  0  0  0  0  0  0  0  0  0
   11.4219   -5.8282   45.8667 C   0  0  0  0  0  0  0  0  0  0  0  0
   14.5762   -2.3044   45.3325 C   0  0  0  0  0  0  0  0  0  0  0  0
   15.6298   -1.8216   45.0706 C   0  0  0  0  0  0  0  0  0  0  0  0
   16.8172   -2.4093   45.2185 C   0  0  0  0  0  0  0  0  0  0  0  0
   15.6388   -4.2967   45.9022 C   0  0  0  0  0  0  0  0  0  0  0  0
   18.0872   -1.8362   44.8453 F   0  0  0  0  0  0  0  0  0  0  0  0
   16.7873   -3.7468   45.6715 C   0  0  0  0  0  0  0  0  0  0  0  0
  1  2  1  0
  2  3  2  0
  3  4  1  0
  1  5  2  0
  4  5  1  0
  3  6  1  0
  4  7  2  0
  6  8  1  0
  8  9  1  0
  7 10  1  0
  9 11  1  0
  5 12  1  0
  7 13  1  0
  8 13  2  0
 10 14  1  0
 12 15  1  0
 12 16  2  0
 14 17  1  0
 15 18  1  0
 13 19  1  0
 16 20  1  0
 18 20  2  0
 11 21  1  0
 19 21  2  0
 21 22  1  0
 11 23  2  0
 14 24  2  0
 24 25  1  0
 17 26  1  0
 25 26  2  0
 17 27  1  0
 15 28  1  6
 27 28  1  0
 22 29  1  1
 29 30  1  0
 19 31  1  0
 24 31  1  0
 22 32  1  0
 31 32  1  1
 30 33  2  0
 30 34  1  0
 27 35  2  0
 34 36  2  0
 36 37  1  0
 37 38  1  0
 37 39  2  0
 34 40  1  0
 39 41  1  0
 40 41  2  0
 38 42  2  0
 42 43  1  0
 43 44  2  0
 38 45  1  0
 44 46  1  0
 44 47  1  0
 45 47  2  0
M  END
$$$$
O14757_Pocket2Mol_idx-in-all-generaetd-412
     RDKit          3D

 39 44  0  0  0  0  0  0  0  0999 V2000
    1.5482   -0.3111   41.9233 C   0  0  0  0  0  0  0  0  0  0  0  0
    2.7284    0.2018   42.1525 N   0  0  0  0  0  0  0  0  0  0  0  0
    3.7893   -0.3016   42.7005 C   0  0  0  0  0  0  0  0  0  0  0  0
    3.3781   -1.7350   43.0000 C   0  0  0  0  0  0  0  0  0  0  0  0
    2.0339   -1.9619   42.6217 C   0  0  0  0  0  0  0  0  0  0  0  0
    4.1166   -2.4997   43.8458 C   0  0  0  0  0  0  0  0  0  0  0  0
    1.1731   -3.0051   42.5773 C   0  0  0  0  0  0  0  0  0  0  0  0
    0.4701   -3.2344   41.4901 C   0  0  0  0  0  0  0  0  0  0  0  0
    5.3799   -1.7814   44.2691 C   0  0  0  0  0  0  0  0  0  0  0  0
    5.0159   -0.0180   43.1201 N   0  0  0  0  0  0  0  0  0  0  0  0
    5.7693   -0.6937   43.8418 C   0  0  0  0  0  0  0  0  0  0  0  0
    0.8078   -3.6166   43.6782 C   0  0  0  0  0  0  0  0  0  0  0  0
    0.0663   -4.7011   43.7415 N   0  0  0  0  0  0  0  0  0  0  0  0
    6.2223   -2.6843   45.1565 C   0  0  0  0  0  0  0  0  0  0  0  0
    6.9599   -0.2351   44.2608 N   0  0  0  0  0  0  0  0  0  0  0  0
    5.9065   -3.9037   45.7499 N   0  0  0  0  0  0  0  0  0  0  0  0
   -0.5459   -5.1185   42.5870 C   0  0  0  0  0  0  0  0  0  0  0  0
    5.7480   -4.0340   46.9810 C   0  0  0  0  0  0  0  0  0  0  0  0
    7.4448   -1.8511   45.4198 C   0  0  0  0  0  0  0  0  0  0  0  0
    7.7572   -0.7827   45.0128 C   0  0  0  0  0  0  0  0  0  0  0  0
    8.4076   -2.7217   46.4541 C   0  0  0  0  0  0  0  0  0  0  0  0
    9.3167   -2.0988   47.1049 N   0  0  0  0  0  0  0  0  0  0  0  0
   -0.4719   -4.3893   41.5406 C   0  0  0  0  0  0  0  0  0  0  0  0
    8.3667   -4.0284   46.5743 N   0  0  0  0  0  0  0  0  0  0  0  0
   10.1532   -2.5726   47.9567 C   0  0  0  0  0  0  0  0  0  0  0  0
   11.0726   -1.7892   48.6998 C   0  0  0  0  0  0  0  0  0  0  0  0
   10.4886   -0.9372   49.4584 C   0  0  0  0  0  0  0  0  0  0  0  0
   10.2139   -3.8947   48.0407 C   0  0  0  0  0  0  0  0  0  0  0  0
    6.6188   -4.9855   47.3969 N   0  0  0  0  0  0  0  0  0  0  0  0
    5.1401   -3.1961   47.7242 O   0  0  0  0  0  0  0  0  0  0  0  0
    9.2230   -4.6492   47.2923 C   0  0  0  0  0  0  0  0  0  0  0  0
   11.2455   -0.1560   50.3763 C   0  0  0  0  0  0  0  0  0  0  0  0
   12.4527   -1.8809   48.5193 C   0  0  0  0  0  0  0  0  0  0  0  0
   12.6387   -0.2160   50.2260 C   0  0  0  0  0  0  0  0  0  0  0  0
   13.4817    0.5417   51.0478 F   0  0  0  0  0  0  0  0  0  0  0  0
   13.0434   -2.8092   47.5013 C   0  0  0  0  0  0  0  0  0  0  0  0
   13.6750   -3.6159   47.7857 O   0  0  0  0  0  0  0  0  0  0  0  0
   13.2132   -1.0580   49.3547 C   0  0  0  0  0  0  0  0  0  0  0  0
   12.8757   -2.3907   46.2490 N   0  0  0  0  0  0  0  0  0  0  0  0
  1  2  1  0
  2  3  2  0
  3  4  1  0
  1  5  2  0
  4  5  1  0
  4  6  2  0
  5  7  1  0
  7  8  2  0
  6  9  1  0
  3 10  1  0
  9 11  2  0
 10 11  1  0
  7 12  1  0
 12 13  2  0
  9 14  1  0
 11 15  1  0
 14 16  1  0
 13 17  1  0
 16 18  1  0
 14 19  2  0
 15 20  2  0
 19 20  1  0
 19 21  1  0
 21 22  2  0
  8 23  1  0
 17 23  2  0
 21 24  1  0
 22 25  1  0
 25 26  1  0
 26 27  2  0
 25 28  2  0
 18 29  1  0
 18 30  2  0
 24 31  2  0
 28 31  1  0
 27 32  1  0
 26 33  1  0
 32 34  2  0
 34 35  1  0
 33 36  1  0
 36 37  2  0
 33 38  2  0
 34 38  1  0
 36 39  1  0
M  END
$$$$
O14757_Pocket2Mol_idx-in-all-generaetd-413
     RDKit          3D

 45 51  0  0  0  0  0  0  0  0999 V2000
    5.3420    0.2589   42.8836 O   0  0  0  0  0  0  0  0  0  0  0  0
    5.1627   -0.7554   43.4753 C   0  0  0  0  0  0  0  0  0  0  0  0
    4.0509   -1.4657   43.4177 N   0  0  0  0  0  0  0  0  0  0  0  0
    5.9969   -1.2317   44.6840 C   0  0  0  0  0  0  0  0  0  0  0  0
    2.9618   -1.1021   42.5918 C   0  0  1  0  0  0  0  0  0  0  0  0
    7.3392   -0.8596   44.8412 C   0  0  0  0  0  0  0  0  0  0  0  0
    1.9754   -2.0820   42.2741 C   0  0  0  0  0  0  0  0  0  0  0  0
    5.5910   -2.4282   45.3439 C   0  0  0  0  0  0  0  0  0  0  0  0
    6.5874   -2.9636   46.1581 C   0  0  0  0  0  0  0  0  0  0  0  0
    4.2763   -3.0680   45.0493 N   0  0  0  0  0  0  0  0  0  0  0  0
    3.6188   -2.5886   44.2024 C   0  0  0  0  0  0  0  0  0  0  0  0
    8.1921   -1.4071   45.7505 C   0  0  0  0  0  0  0  0  0  0  0  0
    1.0154   -1.8839   41.2980 C   0  0  0  0  0  0  0  0  0  0  0  0
    2.5720   -3.3564   43.9063 C   0  0  0  0  0  0  0  0  0  0  0  0
    0.2502   -2.8976   41.0751 C   0  0  0  0  0  0  0  0  0  0  0  0
    6.1761   -4.1775   47.0209 C   0  0  0  0  0  0  0  0  0  0  0  0
    1.7266   -3.1047   43.0115 C   0  0  2  0  0  0  0  0  0  0  0  0
    2.3696   -4.5367   44.7536 N   0  0  0  0  0  0  0  0  0  0  0  0
    1.2264   -5.2346   44.4693 C   0  0  0  0  0  0  0  0  0  0  0  0
    0.7187   -3.8955   42.5465 C   0  0  0  0  0  0  0  0  0  0  0  0
    9.4576   -0.8949   46.0327 N   0  0  0  0  0  0  0  0  0  0  0  0
    0.8625   -6.3901   45.2462 C   0  0  0  0  0  0  0  0  0  0  0  0
    7.6467   -2.5139   46.4892 C   0  0  0  0  0  0  0  0  0  0  0  0
   10.4908   -1.5336   45.8242 C   0  0  0  0  0  0  0  0  0  0  0  0
    0.3057   -4.9299   43.2909 C   0  0  0  0  0  0  0  0  0  0  0  0
   11.5916   -1.4291   46.7436 C   0  0  0  0  0  0  0  0  0  0  0  0
   10.5566   -2.3672   44.8649 O   0  0  0  0  0  0  0  0  0  0  0  0
   12.8421   -1.9355   46.2823 C   0  0  0  0  0  0  0  0  0  0  0  0
   13.4833   -2.8582   46.9841 C   0  0  0  0  0  0  0  0  0  0  0  0
   11.4002   -1.1447   48.0540 C   0  0  0  0  0  0  0  0  0  0  0  0
   10.2867   -0.4569   48.4999 O   0  0  0  0  0  0  0  0  0  0  0  0
   12.3327   -1.4798   48.9564 C   0  0  0  0  0  0  0  0  0  0  0  0
   14.7901   -3.3162   46.6439 C   0  0  0  0  0  0  0  0  0  0  0  0
   12.1651   -1.3050   50.3239 O   0  0  0  0  0  0  0  0  0  0  0  0
   15.6765   -2.5740   46.0979 C   0  0  0  0  0  0  0  0  0  0  0  0
   13.4417   -2.4710   48.5369 C   0  0  0  0  0  0  0  0  0  0  0  0
   15.5553   -1.2853   45.8338 C   0  0  0  0  0  0  0  0  0  0  0  0
    2.4633    0.2112   42.8553 C   0  0  0  0  0  0  0  0  0  0  0  0
   15.4040   -0.8809   44.5109 C   0  0  0  0  0  0  0  0  0  0  0  0
   14.8738    0.3113   44.1938 C   0  0  0  0  0  0  0  0  0  0  0  0
   14.8804    1.3924   45.0338 C   0  0  0  0  0  0  0  0  0  0  0  0
   15.2188    1.1156   46.3454 C   0  0  0  0  0  0  0  0  0  0  0  0
   15.0943    2.1494   47.3625 O   0  0  0  0  0  0  0  0  0  0  0  0
   15.6385   -0.1865   46.7165 C   0  0  0  0  0  0  0  0  0  0  0  0
   13.8649    2.4857   47.6660 C   0  0  0  0  0  0  0  0  0  0  0  0
  1  2  2  0
  2  3  1  0
  2  4  1  0
  3  5  1  0
  4  6  2  0
  5  7  1  0
  4  8  1  0
  8  9  2  0
  8 10  1  0
  3 11  1  0
 10 11  2  0
  6 12  1  0
  7 13  2  0
 11 14  1  0
 13 15  1  0
  9 16  1  0
 17  7  1  6
 14 17  1  0
 14 18  2  0
 18 19  1  0
 15 20  2  0
 17 20  1  0
 12 21  1  0
 19 22  1  0
  9 23  1  0
 12 23  2  0
 21 24  1  0
 19 25  2  0
 20 25  1  0
 24 26  1  0
 24 27  2  0
 26 28  2  0
 28 29  1  0
 26 30  1  0
 30 31  1  0
 30 32  2  0
 29 33  1  0
 32 34  1  0
 33 35  2  3
 29 36  2  0
 32 36  1  0
 35 37  1  0
  5 38  1  1
 37 39  2  0
 39 40  1  0
 40 41  2  0
 41 42  1  0
 42 43  1  0
 37 44  1  0
 42 44  2  0
 43 45  1  0
M  END
$$$$
O14757_Pocket2Mol_idx-in-all-generaetd-414
     RDKit          3D

 37 44  0  0  0  0  0  0  0  0999 V2000
    4.8037   -0.1366   42.7100 N   0  0  0  0  0  0  0  0  0  0  0  0
    3.6577   -0.7759   42.7186 C   0  0  0  0  0  0  0  0  0  0  0  0
    3.6660   -1.8665   43.4760 C   0  0  0  0  0  0  0  0  0  0  0  0
    2.7271   -2.8718   43.6599 C   0  0  0  0  0  0  0  0  0  0  0  0
    2.4846   -0.2994   42.1254 N   0  0  0  0  0  0  0  0  0  0  0  0
    5.0524   -1.7697   43.9367 C   0  0  0  0  0  0  0  0  0  0  0  0
    1.4917   -2.9000   43.0914 C   0  0  0  0  0  0  0  0  0  0  0  0
    3.1274   -3.9503   44.5163 C   0  0  0  0  0  0  0  0  0  0  0  0
    1.0744   -1.9066   42.1491 C   0  0  2  0  0  0  0  0  0  0  0  0
    5.6624   -0.7003   43.4895 C   0  0  0  0  0  0  0  0  0  0  0  0
    5.5753   -2.5784   45.0324 C   0  0  0  0  0  0  0  0  0  0  0  0
    0.4030   -3.6297   43.4883 N   0  0  0  0  0  0  0  0  0  0  0  0
    1.5052   -0.8077   41.7519 C   0  0  0  0  0  0  0  0  0  0  0  0
   -0.5645   -3.4039   42.5585 N   0  0  0  0  0  0  0  0  0  0  0  0
    2.5059   -5.1012   44.7935 C   0  0  0  0  0  0  0  0  0  0  0  0
    4.4581   -3.8218   45.2947 C   0  0  0  0  0  0  0  0  0  0  0  0
   -0.3089   -2.3979   41.8128 C   0  0  0  0  0  0  0  0  0  0  0  0
    6.6435   -2.6577   45.6991 C   0  0  0  0  0  0  0  0  0  0  0  0
    7.0869   -3.7008   46.4717 C   0  0  0  0  0  0  0  0  0  0  0  0
    7.5912   -1.5296   45.5455 C   0  0  0  0  0  0  0  0  0  0  0  0
    8.7765   -1.4352   46.2248 C   0  0  0  0  0  0  0  0  0  0  0  0
    6.3069   -4.7944   46.6836 O   0  0  0  0  0  0  0  0  0  0  0  0
    4.8984   -4.5252   46.1302 C   0  0  0  0  0  0  0  0  0  0  0  0
    4.2122   -5.9932   46.2216 C   0  0  0  0  0  0  0  0  0  0  0  0
    3.0046   -6.0549   45.6421 C   0  0  0  0  0  0  0  0  0  0  0  0
    8.2374   -3.8078   47.1146 C   0  0  0  0  0  0  0  0  0  0  0  0
    9.1909   -2.6332   47.0292 C   0  0  0  0  0  0  0  0  0  0  0  0
   10.4575   -2.6198   47.6824 O   0  0  0  0  0  0  0  0  0  0  0  0
   11.4873   -2.2059   46.9341 C   0  0  0  0  0  0  0  0  0  0  0  0
   12.2817   -1.4398   47.4308 O   0  0  0  0  0  0  0  0  0  0  0  0
   13.2946   -1.0299   46.6543 C   0  0  0  0  0  0  0  0  0  0  0  0
   13.0925   -1.0831   45.3218 C   0  0  0  0  0  0  0  0  0  0  0  0
   14.1643   -1.0297   44.5680 C   0  0  0  0  0  0  0  0  0  0  0  0
   14.4080   -0.3157   47.2384 C   0  0  0  0  0  0  0  0  0  0  0  0
   14.4294   -0.0497   48.5859 O   0  0  0  0  0  0  0  0  0  0  0  0
   15.5110   -0.1315   46.3850 C   0  0  0  0  0  0  0  0  0  0  0  0
   15.3611   -0.4105   45.0042 C   0  0  0  0  0  0  0  0  0  0  0  0
  1  2  2  0
  2  3  1  0
  3  4  2  0
  2  5  1  0
  3  6  1  0
  4  7  1  0
  4  8  1  0
  7  9  1  0
  1 10  1  0
  6 10  1  0
  6 11  2  0
  7 12  2  0
  5 13  2  0
  9 13  1  1
 12 14  1  0
  8 15  2  0
  8 16  1  0
 11 16  1  0
  9 17  1  0
 14 17  2  0
 11 18  1  0
 18 19  2  0
 18 20  1  0
 20 21  2  0
 19 22  1  0
 16 23  2  0
 22 23  1  0
 23 24  1  0
 15 25  1  0
 24 25  2  0
 19 26  1  0
 21 27  1  0
 26 27  2  0
 27 28  1  0
 28 29  1  0
 29 30  1  0
 30 31  1  0
 31 32  2  0
 32 33  1  0
 31 34  1  0
 34 35  1  0
 34 36  2  0
 33 37  2  0
 36 37  1  0
M  END
$$$$
O14757_Pocket2Mol_idx-in-all-generaetd-415
     RDKit          3D

 31 36  0  0  0  0  0  0  0  0999 V2000
    5.3420    0.2589   42.8836 N   0  0  0  0  0  0  0  0  0  0  0  0
    5.6740   -0.8311   43.5645 C   0  0  0  0  0  0  0  0  0  0  0  0
    6.8416   -0.9240   44.3627 N   0  0  0  0  0  0  0  0  0  0  0  0
    4.1141    0.2821   42.2689 C   0  0  0  0  0  0  0  0  0  0  0  0
    3.2237   -0.7484   42.3921 N   0  0  0  0  0  0  0  0  0  0  0  0
    6.8097   -1.9585   45.3182 C   0  0  0  0  0  0  0  0  0  0  0  0
    3.5007   -1.8060   43.1511 C   0  0  0  0  0  0  0  0  0  0  0  0
    4.7020   -1.8573   43.8328 C   0  0  0  0  0  0  0  0  0  0  0  0
    5.4887   -2.6670   44.9856 C   0  0  0  0  0  0  0  0  0  0  0  0
    2.5208   -2.8458   43.2671 C   0  0  0  0  0  0  0  0  0  0  0  0
    2.6558   -3.8570   44.2541 C   0  0  0  0  0  0  0  0  0  0  0  0
    7.6468   -2.3589   46.2854 C   0  0  0  0  0  0  0  0  0  0  0  0
    3.8579   -4.1296   44.9532 N   0  0  0  0  0  0  0  0  0  0  0  0
    1.3096   -2.7520   42.6410 C   0  0  0  0  0  0  0  0  0  0  0  0
    4.9776   -3.8402   45.4939 C   0  0  0  0  0  0  0  0  0  0  0  0
    8.7023   -1.6088   46.4743 C   0  0  0  0  0  0  0  0  0  0  0  0
    9.5984   -1.8433   47.5139 C   0  0  0  0  0  0  0  0  0  0  0  0
    7.3782   -3.4221   47.2077 C   0  0  0  0  0  0  0  0  0  0  0  0
    1.5977   -4.7338   44.4801 C   0  0  0  0  0  0  0  0  0  0  0  0
    1.0668   -1.7644   41.4981 C   0  0  0  0  0  0  0  0  0  0  0  0
   10.8175   -0.9959   47.6882 O   0  0  0  0  0  0  0  0  0  0  0  0
   11.6053   -1.2371   48.6095 C   0  0  0  0  0  0  0  0  0  0  0  0
    0.3244   -3.6976   42.8655 C   0  0  0  0  0  0  0  0  0  0  0  0
   -0.8593   -3.6685   42.0130 N   0  0  0  0  0  0  0  0  0  0  0  0
    1.8517   -5.8131   45.4828 O   0  0  0  0  0  0  0  0  0  0  0  0
    0.4775   -4.6810   43.7729 C   0  0  0  0  0  0  0  0  0  0  0  0
    0.8739   -6.6382   45.6662 C   0  0  0  0  0  0  0  0  0  0  0  0
    8.4468   -3.6098   48.3224 C   0  0  0  0  0  0  0  0  0  0  0  0
    9.5118   -2.8497   48.4150 C   0  0  0  0  0  0  0  0  0  0  0  0
   -1.0933   -2.6038   41.2540 C   0  0  0  0  0  0  0  0  0  0  0  0
   -0.0257   -1.5852   41.0310 C   0  0  0  0  0  0  0  0  0  0  0  0
  1  2  2  0
  2  3  1  0
  1  4  1  0
  4  5  2  0
  3  6  1  0
  5  7  1  0
  2  8  1  0
  7  8  2  0
  6  9  2  0
  8  9  1  0
  7 10  1  0
 10 11  2  0
  6 12  1  0
 11 13  1  0
 10 14  1  0
  9 15  1  0
 13 15  1  0
 12 16  2  0
 16 17  1  0
 12 18  1  0
 11 19  1  0
 14 20  2  0
 17 21  1  0
 21 22  1  0
 14 23  1  0
 23 24  2  0
 19 25  1  0
 19 26  2  0
 23 26  1  0
 25 27  1  0
 18 28  2  0
 17 29  2  0
 28 29  1  0
 24 30  1  0
 20 31  1  0
 30 31  2  0
M  END
$$$$
O14757_Pocket2Mol_idx-in-all-generaetd-416
     RDKit          3D

 36 41  0  0  0  0  0  0  0  0999 V2000
    4.5156    0.0550   42.9895 N   0  0  0  0  0  0  0  0  0  0  0  0
    5.0618   -0.8645   43.5295 C   0  0  0  0  0  0  0  0  0  0  0  0
    4.4350   -2.0604   43.7783 C   0  0  0  0  0  0  0  0  0  0  0  0
    4.9987   -3.0994   44.5839 C   0  0  0  0  0  0  0  0  0  0  0  0
    3.2714   -1.8664   43.0632 C   0  0  0  0  0  0  0  0  0  0  0  0
    6.4064   -0.5942   44.3204 N   0  0  0  0  0  0  0  0  0  0  0  0
    4.3422   -4.3256   44.7203 C   0  0  0  0  0  0  0  0  0  0  0  0
    2.1845   -2.6668   42.8270 N   0  0  0  0  0  0  0  0  0  0  0  0
    3.3305   -0.5395   42.5465 N   0  0  0  0  0  0  0  0  0  0  0  0
    1.9502   -3.8972   43.4076 C   0  0  0  0  0  0  0  0  0  0  0  0
    2.7156   -4.1184   44.6954 N   0  0  0  0  0  0  0  0  0  0  0  0
    6.8581   -1.5862   45.1101 C   0  0  0  0  0  0  0  0  0  0  0  0
    6.1801   -2.8430   45.2383 C   0  0  0  0  0  0  0  0  0  0  0  0
    2.1454   -5.1901   45.5771 C   0  0  0  0  0  0  0  0  0  0  0  0
    8.0137   -1.3946   45.8526 C   0  0  0  0  0  0  0  0  0  0  0  0
    0.9733   -4.5725   43.2066 O   0  0  0  0  0  0  0  0  0  0  0  0
    2.2437    0.0035   41.8733 C   0  0  0  0  0  0  0  0  0  0  0  0
    1.3210   -2.2077   41.7009 C   0  0  0  0  0  0  0  0  0  0  0  0
    8.6047   -2.2876   46.6923 C   0  0  0  0  0  0  0  0  0  0  0  0
    7.9141   -3.5157   46.8869 C   0  0  0  0  0  0  0  0  0  0  0  0
    1.0501   -0.8658   41.6612 C   0  0  0  0  0  0  0  0  0  0  0  0
    6.7278   -3.7718   46.2525 C   0  0  0  0  0  0  0  0  0  0  0  0
    9.8280   -2.0492   47.3361 C   0  0  0  0  0  0  0  0  0  0  0  0
    9.8262   -1.5735   48.5432 C   0  0  0  0  0  0  0  0  0  0  0  0
   11.0745   -2.0905   46.6735 C   0  0  0  0  0  0  0  0  0  0  0  0
    8.5798   -1.4294   49.3788 F   0  0  0  0  0  0  0  0  0  0  0  0
   12.2255   -1.7445   47.2852 C   0  0  0  0  0  0  0  0  0  0  0  0
   11.0129   -1.2913   49.2988 C   0  0  0  0  0  0  0  0  0  0  0  0
   10.9974   -0.9794   50.7055 O   0  0  0  0  0  0  0  0  0  0  0  0
   11.7986   -1.6311   51.4746 C   0  0  0  0  0  0  0  0  0  0  0  0
   12.2652   -1.3740   48.4834 C   0  0  0  0  0  0  0  0  0  0  0  0
   13.6236   -1.8485   46.4295 C   0  0  0  0  0  0  0  0  0  0  0  0
   13.5899   -1.2543   45.2659 N   0  0  0  0  0  0  0  0  0  0  0  0
   14.6024   -1.3863   44.4649 C   0  0  0  0  0  0  0  0  0  0  0  0
   14.5163   -0.8070   43.1367 C   0  0  0  0  0  0  0  0  0  0  0  0
   14.4927   -2.3838   46.9273 O   0  0  0  0  0  0  0  0  0  0  0  0
  1  2  2  0
  2  3  1  0
  3  4  1  0
  3  5  2  0
  2  6  1  0
  4  7  1  0
  5  8  1  0
  1  9  1  0
  5  9  1  0
  8 10  1  0
  7 11  1  0
 10 11  1  0
  6 12  2  0
  4 13  2  0
 12 13  1  0
 11 14  1  0
 12 15  1  0
 10 16  2  0
  9 17  1  0
  8 18  1  0
 15 19  2  0
 19 20  1  0
 17 21  1  0
 18 21  1  0
 13 22  1  0
 20 22  2  0
 19 23  1  0
 23 24  2  0
 23 25  1  0
 24 26  1  0
 25 27  2  0
 24 28  1  0
 28 29  1  0
 29 30  1  0
 27 31  1  0
 28 31  2  0
 27 32  1  0
 32 33  1  0
 33 34  1  0
 34 35  1  0
 32 36  2  0
M  END
$$$$
O14757_Pocket2Mol_idx-in-all-generaetd-417
     RDKit          3D

 26 31  0  0  0  0  0  0  0  0999 V2000
    4.8173    0.2791   42.6993 N   0  0  0  0  0  0  0  0  0  0  0  0
    5.3297   -0.7477   43.3688 C   0  0  0  0  0  0  0  0  0  0  0  0
    3.4732   -0.2235   42.4530 C   0  0  0  0  0  0  0  0  0  0  0  0
    4.4984   -1.7876   43.6214 C   0  0  0  0  0  0  0  0  0  0  0  0
    3.3438   -1.5190   42.9379 C   0  0  0  0  0  0  0  0  0  0  0  0
    2.1381   -2.3401   42.8254 C   0  0  0  0  0  0  0  0  0  0  0  0
    2.3894    0.3572   41.9843 N   0  0  0  0  0  0  0  0  0  0  0  0
    4.9180   -3.0430   44.3829 C   0  0  0  0  0  0  0  0  0  0  0  0
    5.9444   -2.9314   45.3934 C   0  0  0  0  0  0  0  0  0  0  0  0
    4.2808   -4.1329   44.3252 C   0  0  0  0  0  0  0  0  0  0  0  0
    3.1588   -4.4221   43.4852 O   0  0  0  0  0  0  0  0  0  0  0  0
    4.5704   -5.2518   45.1995 C   0  0  0  0  0  0  0  0  0  0  0  0
    1.9853   -3.6792   43.3495 C   0  0  0  0  0  0  0  0  0  0  0  0
    0.9181   -4.3294   43.4638 C   0  0  0  0  0  0  0  0  0  0  0  0
    6.7403   -1.6226   45.5272 C   0  0  0  0  0  0  0  0  0  0  0  0
    0.9752   -1.7845   42.3366 C   0  0  0  0  0  0  0  0  0  0  0  0
    6.2516   -3.7287   46.2722 C   0  0  0  0  0  0  0  0  0  0  0  0
   -0.2404   -2.4179   42.2529 C   0  0  0  0  0  0  0  0  0  0  0  0
   -1.3835   -1.8904   41.6559 N   0  0  0  0  0  0  0  0  0  0  0  0
    3.8706   -6.4216   45.1394 O   0  0  0  0  0  0  0  0  0  0  0  0
    0.9456   -0.2789   41.7649 C   0  0  0  0  0  0  0  0  0  0  0  0
   -0.2678   -3.6969   42.7575 C   0  0  0  0  0  0  0  0  0  0  0  0
    6.3913   -0.7000   44.3807 N   0  0  0  0  0  0  0  0  0  0  0  0
    2.5860   -6.5259   45.7405 C   0  0  0  0  0  0  0  0  0  0  0  0
    5.5215   -5.0330   46.2197 C   0  0  0  0  0  0  0  0  0  0  0  0
    7.7800   -1.3619   46.1126 O   0  0  0  0  0  0  0  0  0  0  0  0
  1  2  2  0
  1  3  1  0
  2  4  1  0
  3  5  1  0
  4  5  2  0
  5  6  1  0
  3  7  2  0
  4  8  1  0
  8  9  2  0
  8 10  1  0
 10 11  1  0
 10 12  2  0
  6 13  2  0
 11 13  1  0
 13 14  1  0
  9 15  1  0
  6 16  1  0
  9 17  1  0
 16 18  2  0
 18 19  1  0
 12 20  1  0
  7 21  1  0
 16 21  1  0
 14 22  2  0
 18 22  1  0
  2 23  1  0
 15 23  1  0
 20 24  1  0
 12 25  1  0
 17 25  2  0
 15 26  2  0
M  END
$$$$
O14757_Pocket2Mol_idx-in-all-generaetd-418
     RDKit          3D

 34 39  0  0  0  0  0  0  0  0999 V2000
    1.5482   -0.3111   41.9233 C   0  0  0  0  0  0  0  0  0  0  0  0
    2.7284    0.2018   42.1525 N   0  0  0  0  0  0  0  0  0  0  0  0
    3.7893   -0.3016   42.7005 C   0  0  0  0  0  0  0  0  0  0  0  0
    3.3781   -1.7350   43.0000 C   0  0  0  0  0  0  0  0  0  0  0  0
    2.0339   -1.9619   42.6217 C   0  0  0  0  0  0  0  0  0  0  0  0
    4.1166   -2.4997   43.8458 C   0  0  0  0  0  0  0  0  0  0  0  0
    1.1731   -3.0051   42.5773 C   0  0  0  0  0  0  0  0  0  0  0  0
    0.4701   -3.2344   41.4901 C   0  0  0  0  0  0  0  0  0  0  0  0
    5.3799   -1.7814   44.2691 C   0  0  0  0  0  0  0  0  0  0  0  0
    5.0159   -0.0180   43.1201 N   0  0  0  0  0  0  0  0  0  0  0  0
    5.7693   -0.6937   43.8418 C   0  0  0  0  0  0  0  0  0  0  0  0
    0.8078   -3.6166   43.6782 C   0  0  0  0  0  0  0  0  0  0  0  0
    0.0663   -4.7011   43.7415 N   0  0  0  0  0  0  0  0  0  0  0  0
    6.2223   -2.6843   45.1565 C   0  0  0  0  0  0  0  0  0  0  0  0
    1.4459   -3.3095   45.0236 O   0  0  0  0  0  0  0  0  0  0  0  0
   -0.5278   -5.1074   42.5506 C   0  0  0  0  0  0  0  0  0  0  0  0
   -1.3099   -6.2193   42.5332 N   0  0  0  0  0  0  0  0  0  0  0  0
   -0.3906   -4.3573   41.3904 C   0  0  0  0  0  0  0  0  0  0  0  0
    7.0535   -0.4845   44.4478 N   0  0  0  0  0  0  0  0  0  0  0  0
    0.6210   -3.8397   46.1835 C   0  0  0  0  0  0  0  0  0  0  0  0
    6.2906   -3.7888   45.8815 C   0  0  0  0  0  0  0  0  0  0  0  0
    7.3868   -4.0307   46.6450 C   0  0  0  0  0  0  0  0  0  0  0  0
    7.2911   -1.6471   45.3058 C   0  0  0  0  0  0  0  0  0  0  0  0
    8.4717   -2.8719   46.6916 C   0  0  0  0  0  0  0  0  0  0  0  0
    8.3872   -1.7926   46.0385 C   0  0  0  0  0  0  0  0  0  0  0  0
    9.5749   -3.2651   47.5869 O   0  0  0  0  0  0  0  0  0  0  0  0
   10.7525   -2.8107   47.2365 C   0  0  0  0  0  0  0  0  0  0  0  0
   11.2489   -1.8789   48.0183 C   0  0  0  0  0  0  0  0  0  0  0  0
   11.3490   -3.2063   46.0256 C   0  0  0  0  0  0  0  0  0  0  0  0
   12.6682   -2.5865   45.8268 C   0  0  0  0  0  0  0  0  0  0  0  0
   12.5333   -1.3230   47.8604 C   0  0  0  0  0  0  0  0  0  0  0  0
   13.1977   -1.6668   46.6657 C   0  0  0  0  0  0  0  0  0  0  0  0
   14.4882   -1.1257   46.3410 O   0  0  0  0  0  0  0  0  0  0  0  0
   14.8351   -0.8463   45.1436 C   0  0  0  0  0  0  0  0  0  0  0  0
  1  2  1  0
  2  3  2  0
  3  4  1  0
  1  5  2  0
  4  5  1  0
  4  6  2  0
  5  7  1  0
  7  8  2  0
  6  9  1  0
  3 10  1  0
  9 11  1  0
 10 11  1  0
  7 12  1  0
 12 13  2  0
  9 14  2  0
 12 15  1  0
 13 16  1  0
 16 17  1  0
  8 18  1  0
 16 18  2  0
 11 19  2  0
 15 20  1  0
 14 21  1  0
 21 22  2  0
 14 23  1  0
 19 23  1  0
 22 24  1  0
 23 25  2  0
 24 25  2  0
 24 26  1  0
 26 27  1  0
 27 28  2  0
 27 29  1  0
 29 30  2  0
 28 31  1  0
 30 32  1  0
 31 32  2  0
 32 33  1  0
 33 34  1  0
M  END
$$$$
O14757_Pocket2Mol_idx-in-all-generaetd-419
     RDKit          3D

 44 52  0  0  0  0  0  0  0  0999 V2000
    1.5482   -0.3111   41.9233 C   0  0  0  0  0  0  0  0  0  0  0  0
    2.7284    0.2018   42.1525 N   0  0  0  0  0  0  0  0  0  0  0  0
    3.7893   -0.3016   42.7005 C   0  0  0  0  0  0  0  0  0  0  0  0
    3.3781   -1.7350   43.0000 C   0  0  0  0  0  0  0  0  0  0  0  0
    2.0339   -1.9619   42.6217 C   0  0  0  0  0  0  0  0  0  0  0  0
    4.1166   -2.4997   43.8458 C   0  0  0  0  0  0  0  0  0  0  0  0
    1.1731   -3.0051   42.5773 C   0  0  0  0  0  0  0  0  0  0  0  0
    0.4701   -3.2344   41.4901 C   0  0  0  0  0  0  0  0  0  0  0  0
    5.3799   -1.7814   44.2691 C   0  0  0  0  0  0  0  0  0  0  0  0
    5.0159   -0.0180   43.1201 N   0  0  0  0  0  0  0  0  0  0  0  0
    5.7693   -0.6937   43.8418 C   0  0  0  0  0  0  0  0  0  0  0  0
    0.8078   -3.6166   43.6782 C   0  0  0  0  0  0  0  0  0  0  0  0
    0.0663   -4.7011   43.7415 N   0  0  0  0  0  0  0  0  0  0  0  0
    6.2223   -2.6843   45.1565 C   0  0  0  0  0  0  0  0  0  0  0  0
    6.9599   -0.2351   44.2608 N   0  0  0  0  0  0  0  0  0  0  0  0
    5.9065   -3.9037   45.7499 N   0  0  0  0  0  0  0  0  0  0  0  0
   -0.5459   -5.1185   42.5870 C   0  0  0  0  0  0  0  0  0  0  0  0
    5.7480   -4.0340   46.9810 C   0  0  0  0  0  0  0  0  0  0  0  0
    7.4448   -1.8511   45.4198 C   0  0  0  0  0  0  0  0  0  0  0  0
    7.7572   -0.7827   45.0128 C   0  0  0  0  0  0  0  0  0  0  0  0
    8.4076   -2.7217   46.4541 C   0  0  0  0  0  0  0  0  0  0  0  0
    9.3167   -2.0988   47.1049 N   0  0  0  0  0  0  0  0  0  0  0  0
   -0.4719   -4.3893   41.5406 C   0  0  0  0  0  0  0  0  0  0  0  0
    8.3667   -4.0284   46.5743 N   0  0  0  0  0  0  0  0  0  0  0  0
    9.5309   -4.3147   47.3094 C   0  0  0  0  0  0  0  0  0  0  0  0
    5.3113   -3.3789   47.8005 O   0  0  0  0  0  0  0  0  0  0  0  0
    9.9022   -5.6301   47.7684 C   0  0  0  0  0  0  0  0  0  0  0  0
    5.4470   -5.5868   47.2096 C   0  0  0  0  0  0  0  0  0  0  0  0
   11.2254   -5.8679   48.0402 C   0  0  0  0  0  0  0  0  0  0  0  0
    8.9736   -6.6532   47.8548 C   0  0  0  0  0  0  0  0  0  0  0  0
   10.0616   -3.0670   47.6360 C   0  0  0  0  0  0  0  0  0  0  0  0
    7.5566   -6.3564   47.5477 N   0  0  0  0  0  0  0  0  0  0  0  0
    6.4157   -6.1721   48.0913 C   0  0  0  0  0  0  0  0  0  0  0  0
   12.3275   -4.8510   47.9324 C   0  0  2  0  0  0  0  0  0  0  0  0
    9.4585   -7.9662   48.0726 C   0  0  0  0  0  0  0  0  0  0  0  0
   11.5288   -2.7910   48.1740 C   0  0  0  0  0  0  0  0  0  0  0  0
   13.6010   -5.5179   48.0202 O   0  0  0  0  0  0  0  0  0  0  0  0
   11.6306   -7.1387   48.1870 C   0  0  0  0  0  0  0  0  0  0  0  0
   12.2455   -3.5875   48.1245 C   0  0  0  0  0  0  0  0  0  0  0  0
   13.6412   -3.2570   48.4414 O   0  0  0  0  0  0  0  0  0  0  0  0
   13.0307   -7.4579   48.5163 O   0  0  0  0  0  0  0  0  0  0  0  0
    8.4464   -9.0267   48.1858 O   0  0  0  0  0  0  0  0  0  0  0  0
   13.9705   -6.6597   48.1337 C   0  0  0  0  0  0  0  0  0  0  0  0
   10.7307   -8.2496   48.3461 C   0  0  0  0  0  0  0  0  0  0  0  0
  1  2  1  0
  2  3  2  0
  3  4  1  0
  1  5  2  0
  4  5  1  0
  4  6  2  0
  5  7  1  0
  7  8  2  0
  6  9  1  0
  3 10  1  0
  9 11  2  0
 10 11  1  0
  7 12  1  0
 12 13  2  0
  9 14  1  0
 11 15  1  0
 14 16  1  0
 13 17  1  0
 16 18  1  0
 14 19  2  0
 15 20  2  0
 19 20  1  0
 19 21  1  0
 21 22  2  0
  8 23  1  0
 17 23  2  0
 21 24  1  0
 24 25  1  0
 18 26  2  0
 25 27  1  0
 18 28  1  0
 27 29  2  0
 27 30  1  0
 22 31  1  0
 25 31  2  0
 30 32  1  0
 28 33  1  0
 32 33  1  0
 29 34  1  0
 30 35  2  0
 31 36  1  0
 34 37  1  1
 29 38  1  0
 34 39  1  0
 36 39  1  0
 39 40  2  0
 38 41  1  0
 35 42  1  0
 37 43  1  0
 41 43  1  0
 35 44  1  0
 38 44  2  0
M  END
$$$$
O14757_Pocket2Mol_idx-in-all-generaetd-420
     RDKit          3D

 33 36  0  0  0  0  0  0  0  0999 V2000
    4.5142    0.3543   42.7132 N   0  0  0  0  0  0  0  0  0  0  0  0
    3.5107   -0.4860   42.6298 C   0  0  0  0  0  0  0  0  0  0  0  0
    3.5891   -1.7637   43.2512 N   0  0  0  0  0  0  0  0  0  0  0  0
    5.5470   -0.0112   43.3539 C   0  0  0  0  0  0  0  0  0  0  0  0
    2.1469   -0.1899   41.9512 C   0  0  0  0  0  0  0  0  0  0  0  0
    4.6725   -2.0734   43.8606 C   0  0  0  0  0  0  0  0  0  0  0  0
    5.7749   -1.1829   43.9325 C   0  0  0  0  0  0  0  0  0  0  0  0
    4.7150   -3.3068   44.6440 C   0  0  0  0  0  0  0  0  0  0  0  0
    6.9086   -1.5797   44.6919 C   0  0  0  0  0  0  0  0  0  0  0  0
    3.5691   -4.2517   44.6407 C   0  0  0  0  0  0  0  0  0  0  0  0
    2.3573   -4.0060   44.5430 C   0  0  0  0  0  0  0  0  0  0  0  0
    6.9170   -2.8018   45.4663 C   0  0  0  0  0  0  0  0  0  0  0  0
    5.8006   -3.6152   45.4297 C   0  0  0  0  0  0  0  0  0  0  0  0
    8.0903   -3.1108   46.2193 C   0  0  0  0  0  0  0  0  0  0  0  0
    4.0064   -5.4798   44.1304 O   0  0  0  0  0  0  0  0  0  0  0  0
    1.3499   -4.4927   43.7488 C   0  0  0  0  0  0  0  0  0  0  0  0
    8.9407   -2.1153   46.7855 N   0  0  0  0  0  0  0  0  0  0  0  0
    9.9131   -2.4307   47.6296 C   0  0  0  0  0  0  0  0  0  0  0  0
    9.9401   -2.1931   48.7722 O   0  0  0  0  0  0  0  0  0  0  0  0
    1.6925   -3.8787   45.7737 C   0  0  0  0  0  0  0  0  0  0  0  0
    0.0956   -4.4506   43.8726 C   0  0  0  0  0  0  0  0  0  0  0  0
   -0.4743   -4.1254   44.9651 C   0  0  0  0  0  0  0  0  0  0  0  0
   11.1474   -2.9718   46.9683 C   0  0  0  0  0  0  0  0  0  0  0  0
    0.1760   -3.8909   45.9333 C   0  0  0  0  0  0  0  0  0  0  0  0
   11.1208   -4.2039   46.7415 C   0  0  0  0  0  0  0  0  0  0  0  0
   10.0412   -5.1887   46.8168 O   0  0  0  0  0  0  0  0  0  0  0  0
   12.3319   -2.2671   47.0818 C   0  0  0  0  0  0  0  0  0  0  0  0
   12.3281   -4.9515   46.1494 C   0  0  0  0  0  0  0  0  0  0  0  0
   13.5481   -2.8430   46.5542 C   0  0  0  0  0  0  0  0  0  0  0  0
   14.7837   -2.1640   46.5092 C   0  0  0  0  0  0  0  0  0  0  0  0
   13.4548   -4.2101   46.2052 C   0  0  0  0  0  0  0  0  0  0  0  0
   15.5950   -2.3196   47.2065 O   0  0  0  0  0  0  0  0  0  0  0  0
   14.6648   -1.0964   45.6073 O   0  0  0  0  0  0  0  0  0  0  0  0
  1  2  2  0
  2  3  1  0
  1  4  1  0
  2  5  1  0
  3  6  2  0
  4  7  2  0
  6  7  1  0
  6  8  1  0
  7  9  1  0
  8 10  1  0
 10 11  1  0
  9 12  2  0
  8 13  2  0
 12 13  1  0
 12 14  1  0
 10 15  2  0
 11 16  2  0
 14 17  1  0
 17 18  1  0
 18 19  2  0
 11 20  1  0
 16 21  1  0
 21 22  2  0
 18 23  1  0
 20 24  2  0
 22 24  1  0
 23 25  2  0
 25 26  1  0
 23 27  1  0
 25 28  1  0
 27 29  2  0
 29 30  1  0
 28 31  2  0
 29 31  1  0
 30 32  2  0
 30 33  1  0
M  END
$$$$
O14757_Pocket2Mol_idx-in-all-generaetd-421
     RDKit          3D

 46 55  0  0  0  0  0  0  0  0999 V2000
    1.5482   -0.3111   41.9233 C   0  0  0  0  0  0  0  0  0  0  0  0
    2.7284    0.2018   42.1525 N   0  0  0  0  0  0  0  0  0  0  0  0
    3.7893   -0.3016   42.7005 C   0  0  0  0  0  0  0  0  0  0  0  0
    3.3781   -1.7350   43.0000 C   0  0  0  0  0  0  0  0  0  0  0  0
    2.0339   -1.9619   42.6217 C   0  0  0  0  0  0  0  0  0  0  0  0
    5.0090    0.1219   42.9340 N   0  0  0  0  0  0  0  0  0  0  0  0
    4.2895   -2.4979   43.6707 C   0  0  0  0  0  0  0  0  0  0  0  0
    5.8391   -0.6675   43.6343 C   0  0  0  0  0  0  0  0  0  0  0  0
    6.9849   -0.2377   44.0028 N   0  0  0  0  0  0  0  0  0  0  0  0
    4.0426   -3.8794   44.0832 C   0  0  0  0  0  0  0  0  0  0  0  0
    7.6796   -0.8734   44.9326 C   0  0  0  0  0  0  0  0  0  0  0  0
    1.1064   -2.9576   42.4211 C   0  0  0  0  0  0  0  0  0  0  0  0
    5.5298   -1.9496   44.0315 C   0  0  0  0  0  0  0  0  0  0  0  0
    3.8954   -4.1817   45.4718 C   0  0  0  0  0  0  0  0  0  0  0  0
    0.6765   -3.5480   43.4006 C   0  0  1  0  0  0  0  0  0  0  0  0
    0.5804   -3.2191   41.1635 C   0  0  0  0  0  0  0  0  0  0  0  0
    2.8083   -4.8227   45.9203 N   0  0  0  0  0  0  0  0  0  0  0  0
   -0.1574   -4.5754   42.9329 N   0  0  0  0  0  0  0  0  0  0  0  0
    6.5271   -2.5531   44.9677 C   0  0  0  0  0  0  0  0  0  0  0  0
   -0.2272   -4.3703   41.5137 C   0  0  0  0  0  0  0  0  0  0  0  0
    7.5095   -2.0029   45.3993 C   0  0  0  0  0  0  0  0  0  0  0  0
    8.2550   -2.6982   46.3988 C   0  0  1  0  0  0  0  0  0  0  0  0
    8.8975   -0.3029   45.3267 O   0  0  0  0  0  0  0  0  0  0  0  0
    4.8299   -4.4637   46.4212 C   0  0  0  0  0  0  0  0  0  0  0  0
    4.2707   -4.9248   47.6295 N   0  0  0  0  0  0  0  0  0  0  0  0
    3.2045   -5.2092   47.1521 C   0  0  0  0  0  0  0  0  0  0  0  0
    1.4482   -4.6186   45.4134 C   0  0  0  0  0  0  0  0  0  0  0  0
    1.3256   -3.7660   44.6394 N   0  0  0  0  0  0  0  0  0  0  0  0
    9.2816   -2.1418   47.1273 N   0  0  0  0  0  0  0  0  0  0  0  0
   10.0629   -3.1324   47.8508 C   0  0  0  0  0  0  0  0  0  0  0  0
    6.3491   -3.8960   46.0844 C   0  0  2  0  0  0  0  0  0  0  0  0
    7.4349   -3.5889   46.9054 C   0  0  0  0  0  0  0  0  0  0  0  0
   10.3145   -2.7271   49.0818 O   0  0  0  0  0  0  0  0  0  0  0  0
    0.6213   -5.4445   45.7455 O   0  0  0  0  0  0  0  0  0  0  0  0
   11.0262   -3.8136   47.1050 C   0  0  0  0  0  0  0  0  0  0  0  0
   12.1704   -3.3854   46.7547 C   0  0  0  0  0  0  0  0  0  0  0  0
   13.1080   -4.1111   46.0053 C   0  0  0  0  0  0  0  0  0  0  0  0
   14.3489   -3.5966   45.7888 C   0  0  0  0  0  0  0  0  0  0  0  0
   12.7430   -5.2725   45.5056 C   0  0  0  0  0  0  0  0  0  0  0  0
   14.6935   -2.2816   45.3353 C   0  0  0  0  0  0  0  0  0  0  0  0
   15.8828   -1.9964   44.9887 C   0  0  0  0  0  0  0  0  0  0  0  0
   15.4347   -4.4529   45.9716 C   0  0  0  0  0  0  0  0  0  0  0  0
   16.7721   -4.1219   45.6921 C   0  0  0  0  0  0  0  0  0  0  0  0
   10.4800   -5.1142   46.5838 C   0  0  0  0  0  0  0  0  0  0  0  0
   11.4458   -5.7827   45.7915 C   0  0  0  0  0  0  0  0  0  0  0  0
   17.0091   -2.8254   45.1910 C   0  0  0  0  0  0  0  0  0  0  0  0
  1  2  1  0
  2  3  2  0
  3  4  1  0
  1  5  2  0
  4  5  1  0
  3  6  1  0
  4  7  2  0
  6  8  1  0
  8  9  1  0
  7 10  1  0
  9 11  1  0
  5 12  1  0
  7 13  1  0
  8 13  2  0
 10 14  1  0
 12 15  1  0
 12 16  2  0
 14 17  1  0
 15 18  1  0
 13 19  1  0
 16 20  1  0
 18 20  2  0
 11 21  1  0
 19 21  2  0
 21 22  1  0
 11 23  2  0
 14 24  2  0
 24 25  1  0
 17 26  1  0
 25 26  2  0
 17 27  1  0
 15 28  1  6
 27 28  1  0
 22 29  1  1
 29 30  1  0
 19 31  1  0
 24 31  1  0
 22 32  1  0
 31 32  1  1
 30 33  2  0
 27 34  2  0
 30 35  1  0
 35 36  2  0
 36 37  1  0
 37 38  1  0
 37 39  2  0
 38 40  2  0
 40 41  1  0
 38 42  1  0
 42 43  2  0
 35 44  1  0
 39 45  1  0
 44 45  2  0
 41 46  2  0
 43 46  1  0
M  END
$$$$
O14757_Pocket2Mol_idx-in-all-generaetd-422
     RDKit          3D

 35 41  0  0  0  0  0  0  0  0999 V2000
    4.5156    0.0550   42.9895 N   0  0  0  0  0  0  0  0  0  0  0  0
    5.0618   -0.8645   43.5295 C   0  0  0  0  0  0  0  0  0  0  0  0
    4.4350   -2.0604   43.7783 C   0  0  0  0  0  0  0  0  0  0  0  0
    4.9987   -3.0994   44.5839 C   0  0  0  0  0  0  0  0  0  0  0  0
    3.2714   -1.8664   43.0632 C   0  0  0  0  0  0  0  0  0  0  0  0
    6.4064   -0.5942   44.3204 N   0  0  0  0  0  0  0  0  0  0  0  0
    4.3422   -4.3256   44.7203 C   0  0  0  0  0  0  0  0  0  0  0  0
    2.1845   -2.6668   42.8270 N   0  0  0  0  0  0  0  0  0  0  0  0
    3.3305   -0.5395   42.5465 N   0  0  0  0  0  0  0  0  0  0  0  0
    1.9502   -3.8972   43.4076 C   0  0  0  0  0  0  0  0  0  0  0  0
    2.7156   -4.1184   44.6954 N   0  0  0  0  0  0  0  0  0  0  0  0
    6.8581   -1.5862   45.1101 C   0  0  0  0  0  0  0  0  0  0  0  0
    6.1801   -2.8430   45.2383 C   0  0  0  0  0  0  0  0  0  0  0  0
    2.1454   -5.1901   45.5771 C   0  0  0  0  0  0  0  0  0  0  0  0
    8.0137   -1.3946   45.8526 C   0  0  0  0  0  0  0  0  0  0  0  0
    0.9733   -4.5725   43.2066 O   0  0  0  0  0  0  0  0  0  0  0  0
    2.2437    0.0035   41.8733 C   0  0  0  0  0  0  0  0  0  0  0  0
    1.0849   -2.2139   41.9643 C   0  0  0  0  0  0  0  0  0  0  0  0
    1.0706   -0.9449   41.7082 C   0  0  0  0  0  0  0  0  0  0  0  0
    8.6144   -2.2842   46.6846 C   0  0  0  0  0  0  0  0  0  0  0  0
    6.9178   -3.7546   46.3085 C   0  0  0  0  0  0  0  0  0  0  0  0
    8.0358   -3.4919   46.8779 C   0  0  0  0  0  0  0  0  0  0  0  0
    9.8639   -1.9680   47.3567 O   0  0  0  0  0  0  0  0  0  0  0  0
   10.9341   -1.6111   46.5548 C   0  0  0  0  0  0  0  0  0  0  0  0
   11.9178   -1.1355   47.1416 C   0  0  0  0  0  0  0  0  0  0  0  0
   13.0127   -0.7189   46.2705 C   0  0  0  0  0  0  0  0  0  0  0  0
   13.2455   -1.5194   45.1269 C   0  0  0  0  0  0  0  0  0  0  0  0
   14.5207   -1.2990   44.3913 C   0  0  0  0  0  0  0  0  0  0  0  0
   11.0465   -2.4276   45.3258 C   0  0  0  0  0  0  0  0  0  0  0  0
   12.2628   -2.2243   44.6033 C   0  0  0  0  0  0  0  0  0  0  0  0
   14.5243   -0.7767   43.1783 C   0  0  0  0  0  0  0  0  0  0  0  0
   15.8101   -0.6542   42.5838 C   0  0  0  0  0  0  0  0  0  0  0  0
   16.9060   -1.1956   43.1256 C   0  0  0  0  0  0  0  0  0  0  0  0
   15.5449   -1.8531   45.0788 C   0  0  0  0  0  0  0  0  0  0  0  0
   16.7847   -1.7927   44.4052 C   0  0  0  0  0  0  0  0  0  0  0  0
  1  2  2  0
  2  3  1  0
  3  4  1  0
  3  5  2  0
  2  6  1  0
  4  7  1  0
  5  8  1  0
  1  9  1  0
  5  9  1  0
  8 10  1  0
  7 11  1  0
 10 11  1  0
  6 12  2  0
  4 13  2  0
 12 13  1  0
 11 14  1  0
 12 15  1  0
 10 16  2  0
  9 17  1  0
  8 18  1  0
 17 19  1  0
 18 19  1  0
 15 20  2  0
 13 21  1  0
 20 22  1  0
 21 22  2  0
 20 23  1  0
 23 24  1  0
 24 25  2  0
 25 26  1  0
 26 27  2  0
 27 28  1  0
 24 29  1  0
 27 30  1  0
 29 30  2  0
 28 31  2  0
 31 32  1  0
 32 33  2  0
 28 34  1  0
 33 35  1  0
 34 35  2  0
M  END
$$$$
O14757_Pocket2Mol_idx-in-all-generaetd-423
     RDKit          3D

 27 31  0  0  0  0  0  0  0  0999 V2000
    1.5482   -0.3111   41.9233 C   0  0  0  0  0  0  0  0  0  0  0  0
    2.7284    0.2018   42.1525 N   0  0  0  0  0  0  0  0  0  0  0  0
    3.7893   -0.3016   42.7005 C   0  0  0  0  0  0  0  0  0  0  0  0
    3.3781   -1.7350   43.0000 C   0  0  0  0  0  0  0  0  0  0  0  0
    2.0339   -1.9619   42.6217 C   0  0  0  0  0  0  0  0  0  0  0  0
    5.0090    0.1219   42.9340 N   0  0  0  0  0  0  0  0  0  0  0  0
    4.2895   -2.4979   43.6707 C   0  0  0  0  0  0  0  0  0  0  0  0
    5.8391   -0.6675   43.6343 C   0  0  0  0  0  0  0  0  0  0  0  0
    6.9849   -0.2377   44.0028 N   0  0  0  0  0  0  0  0  0  0  0  0
    4.0426   -3.8794   44.0832 C   0  0  0  0  0  0  0  0  0  0  0  0
    7.6796   -0.8734   44.9326 C   0  0  0  0  0  0  0  0  0  0  0  0
    1.1064   -2.9576   42.4211 C   0  0  0  0  0  0  0  0  0  0  0  0
    5.5298   -1.9496   44.0315 C   0  0  0  0  0  0  0  0  0  0  0  0
    3.8954   -4.1817   45.4718 C   0  0  0  0  0  0  0  0  0  0  0  0
    0.6765   -3.5480   43.4006 C   0  0  0  0  0  0  0  0  0  0  0  0
    0.5804   -3.2191   41.1635 C   0  0  0  0  0  0  0  0  0  0  0  0
    2.8083   -4.8227   45.9203 N   0  0  0  0  0  0  0  0  0  0  0  0
   -0.2895   -4.3411   41.4783 C   0  0  0  0  0  0  0  0  0  0  0  0
    1.6241   -4.1113   46.2493 C   0  0  0  0  0  0  0  0  0  0  0  0
    6.2863   -2.7050   44.9803 C   0  0  0  0  0  0  0  0  0  0  0  0
    1.0882   -3.7164   44.7216 C   0  0  0  0  0  0  0  0  0  0  0  0
    8.8985   -0.3341   45.3420 O   0  0  0  0  0  0  0  0  0  0  0  0
   -0.2511   -4.6329   42.6894 N   0  0  0  0  0  0  0  0  0  0  0  0
    7.4398   -2.1634   45.4195 C   0  0  0  0  0  0  0  0  0  0  0  0
    8.3385   -2.8261   46.3607 C   0  0  0  0  0  0  0  0  0  0  0  0
    9.0881   -2.2168   47.1975 O   0  0  0  0  0  0  0  0  0  0  0  0
    8.6124   -4.0861   46.2722 O   0  0  0  0  0  0  0  0  0  0  0  0
  1  2  1  0
  2  3  2  0
  3  4  1  0
  1  5  2  0
  4  5  1  0
  3  6  1  0
  4  7  2  0
  6  8  1  0
  8  9  1  0
  7 10  1  0
  9 11  1  0
  5 12  1  0
  7 13  1  0
  8 13  2  0
 10 14  1  0
 12 15  1  0
 12 16  2  0
 14 17  1  0
 16 18  1  0
 17 19  1  0
 13 20  1  0
 15 21  2  3
 19 21  1  0
 11 22  2  0
 15 23  1  0
 18 23  2  0
 11 24  1  0
 20 24  2  0
 24 25  1  0
 25 26  1  0
 25 27  2  0
M  END
$$$$
O14757_Pocket2Mol_idx-in-all-generaetd-424
     RDKit          3D

 46 54  0  0  0  0  0  0  0  0999 V2000
    1.5482   -0.3111   41.9233 C   0  0  0  0  0  0  0  0  0  0  0  0
    2.7284    0.2018   42.1525 N   0  0  0  0  0  0  0  0  0  0  0  0
    3.7893   -0.3016   42.7005 C   0  0  0  0  0  0  0  0  0  0  0  0
    3.3781   -1.7350   43.0000 C   0  0  0  0  0  0  0  0  0  0  0  0
    2.0339   -1.9619   42.6217 C   0  0  0  0  0  0  0  0  0  0  0  0
    5.0090    0.1219   42.9340 N   0  0  0  0  0  0  0  0  0  0  0  0
    4.2895   -2.4979   43.6707 C   0  0  0  0  0  0  0  0  0  0  0  0
    5.8391   -0.6675   43.6343 C   0  0  0  0  0  0  0  0  0  0  0  0
    6.9849   -0.2377   44.0028 N   0  0  0  0  0  0  0  0  0  0  0  0
    4.0426   -3.8794   44.0832 C   0  0  0  0  0  0  0  0  0  0  0  0
    7.6796   -0.8734   44.9326 C   0  0  0  0  0  0  0  0  0  0  0  0
    1.1064   -2.9576   42.4211 C   0  0  0  0  0  0  0  0  0  0  0  0
    5.5298   -1.9496   44.0315 C   0  0  0  0  0  0  0  0  0  0  0  0
    3.8954   -4.1817   45.4718 C   0  0  0  0  0  0  0  0  0  0  0  0
    0.6765   -3.5480   43.4006 C   0  0  1  0  0  0  0  0  0  0  0  0
    0.5804   -3.2191   41.1635 C   0  0  0  0  0  0  0  0  0  0  0  0
    2.8083   -4.8227   45.9203 N   0  0  0  0  0  0  0  0  0  0  0  0
   -0.1574   -4.5754   42.9329 N   0  0  0  0  0  0  0  0  0  0  0  0
    6.5271   -2.5531   44.9677 C   0  0  0  0  0  0  0  0  0  0  0  0
   -0.2272   -4.3703   41.5137 C   0  0  0  0  0  0  0  0  0  0  0  0
    7.5095   -2.0029   45.3993 C   0  0  0  0  0  0  0  0  0  0  0  0
    8.2550   -2.6982   46.3988 C   0  0  1  0  0  0  0  0  0  0  0  0
    8.8975   -0.3029   45.3267 O   0  0  0  0  0  0  0  0  0  0  0  0
    4.8299   -4.4637   46.4212 C   0  0  0  0  0  0  0  0  0  0  0  0
    4.2707   -4.9248   47.6295 N   0  0  0  0  0  0  0  0  0  0  0  0
    3.2045   -5.2092   47.1521 C   0  0  0  0  0  0  0  0  0  0  0  0
    1.4482   -4.6186   45.4134 C   0  0  0  0  0  0  0  0  0  0  0  0
    1.3256   -3.7660   44.6394 N   0  0  0  0  0  0  0  0  0  0  0  0
    9.2816   -2.1418   47.1273 N   0  0  0  0  0  0  0  0  0  0  0  0
   10.0629   -3.1324   47.8508 C   0  0  0  0  0  0  0  0  0  0  0  0
    6.3491   -3.8960   46.0844 C   0  0  2  0  0  0  0  0  0  0  0  0
    7.4349   -3.5889   46.9054 C   0  0  0  0  0  0  0  0  0  0  0  0
   10.3145   -2.7271   49.0818 O   0  0  0  0  0  0  0  0  0  0  0  0
   11.0221   -3.8171   47.1052 C   0  0  0  0  0  0  0  0  0  0  0  0
    0.8710   -5.7412   45.2074 O   0  0  0  0  0  0  0  0  0  0  0  0
   12.1654   -3.3890   46.7468 C   0  0  0  0  0  0  0  0  0  0  0  0
   10.6095   -5.0619   46.5869 C   0  0  0  0  0  0  0  0  0  0  0  0
   11.4809   -5.8528   45.8718 C   0  0  0  0  0  0  0  0  0  0  0  0
   12.6501   -1.9646   47.2855 O   0  0  0  0  0  0  0  0  0  0  0  0
   11.1082   -7.1221   45.4545 O   0  0  0  0  0  0  0  0  0  0  0  0
   12.6322   -0.9984   46.3206 C   0  0  0  0  0  0  0  0  0  0  0  0
   12.7503   -5.4219   45.7063 C   0  0  0  0  0  0  0  0  0  0  0  0
   13.6402   -6.2108   45.0225 O   0  0  0  0  0  0  0  0  0  0  0  0
   13.1428   -4.1282   46.0990 C   0  0  0  0  0  0  0  0  0  0  0  0
   13.9887   -7.4682   45.6537 C   0  0  0  0  0  0  0  0  0  0  0  0
   10.0996   -7.7451   46.1731 C   0  0  0  0  0  0  0  0  0  0  0  0
  1  2  1  0
  2  3  2  0
  3  4  1  0
  1  5  2  0
  4  5  1  0
  3  6  1  0
  4  7  2  0
  6  8  1  0
  8  9  1  0
  7 10  1  0
  9 11  1  0
  5 12  1  0
  7 13  1  0
  8 13  2  0
 10 14  1  0
 12 15  1  0
 12 16  2  0
 14 17  1  0
 15 18  1  0
 13 19  1  0
 16 20  1  0
 18 20  2  0
 11 21  1  0
 19 21  2  0
 21 22  1  0
 11 23  2  0
 14 24  2  0
 24 25  1  0
 17 26  1  0
 25 26  2  0
 17 27  1  0
 15 28  1  6
 27 28  1  0
 22 29  1  1
 29 30  1  0
 19 31  1  0
 24 31  1  0
 22 32  1  0
 31 32  1  1
 30 33  2  0
 30 34  1  0
 27 35  2  0
 34 36  2  0
 34 37  1  0
 37 38  2  0
 36 39  1  0
 38 40  1  0
 39 41  1  0
 38 42  1  0
 42 43  1  0
 36 44  1  0
 42 44  2  0
 43 45  1  0
 40 46  1  0
M  END
$$$$
O14757_Pocket2Mol_idx-in-all-generaetd-425
     RDKit          3D

 39 47  0  0  0  0  0  0  0  0999 V2000
    4.8037   -0.1366   42.7100 N   0  0  0  0  0  0  0  0  0  0  0  0
    3.6577   -0.7759   42.7186 C   0  0  0  0  0  0  0  0  0  0  0  0
    3.6660   -1.8665   43.4760 C   0  0  0  0  0  0  0  0  0  0  0  0
    2.7271   -2.8718   43.6599 C   0  0  0  0  0  0  0  0  0  0  0  0
    2.4846   -0.2994   42.1254 N   0  0  0  0  0  0  0  0  0  0  0  0
    5.0524   -1.7697   43.9367 C   0  0  0  0  0  0  0  0  0  0  0  0
    1.4917   -2.9000   43.0914 C   0  0  0  0  0  0  0  0  0  0  0  0
    3.1274   -3.9503   44.5163 C   0  0  0  0  0  0  0  0  0  0  0  0
    1.0744   -1.9066   42.1491 C   0  0  2  0  0  0  0  0  0  0  0  0
    5.6624   -0.7003   43.4895 C   0  0  0  0  0  0  0  0  0  0  0  0
    5.5753   -2.5784   45.0324 C   0  0  0  0  0  0  0  0  0  0  0  0
    0.4030   -3.6297   43.4883 N   0  0  0  0  0  0  0  0  0  0  0  0
    1.5052   -0.8077   41.7519 C   0  0  0  0  0  0  0  0  0  0  0  0
   -0.5645   -3.4039   42.5585 N   0  0  0  0  0  0  0  0  0  0  0  0
    2.5059   -5.1012   44.7935 C   0  0  0  0  0  0  0  0  0  0  0  0
    4.4581   -3.8218   45.2947 C   0  0  0  0  0  0  0  0  0  0  0  0
   -0.3089   -2.3979   41.8128 C   0  0  0  0  0  0  0  0  0  0  0  0
    6.6435   -2.6577   45.6991 C   0  0  0  0  0  0  0  0  0  0  0  0
    7.0869   -3.7008   46.4717 C   0  0  0  0  0  0  0  0  0  0  0  0
    7.5912   -1.5296   45.5455 C   0  0  0  0  0  0  0  0  0  0  0  0
    8.7765   -1.4352   46.2248 C   0  0  0  0  0  0  0  0  0  0  0  0
    6.3069   -4.7944   46.6836 O   0  0  0  0  0  0  0  0  0  0  0  0
    4.8984   -4.5252   46.1302 C   0  0  0  0  0  0  0  0  0  0  0  0
    4.2122   -5.9932   46.2216 C   0  0  0  0  0  0  0  0  0  0  0  0
    3.0046   -6.0549   45.6421 C   0  0  0  0  0  0  0  0  0  0  0  0
    8.2374   -3.8078   47.1146 C   0  0  0  0  0  0  0  0  0  0  0  0
    9.1909   -2.6332   47.0292 C   0  0  0  0  0  0  0  0  0  0  0  0
   10.4575   -2.6198   47.6824 O   0  0  0  0  0  0  0  0  0  0  0  0
   11.4873   -2.2059   46.9341 C   0  0  2  0  0  0  0  0  0  0  0  0
   12.2817   -1.4398   47.4308 O   0  0  0  0  0  0  0  0  0  0  0  0
   13.2946   -1.0299   46.6543 C   0  0  0  0  0  0  0  0  0  0  0  0
   13.0925   -1.0831   45.3218 C   0  0  0  0  0  0  0  0  0  0  0  0
   14.1643   -1.0297   44.5680 C   0  0  0  0  0  0  0  0  0  0  0  0
   14.4080   -0.3157   47.2384 C   0  0  0  0  0  0  0  0  0  0  0  0
   11.6411   -2.1027   45.4787 C   0  0  0  0  0  0  0  0  0  0  0  0
   15.2835   -0.4168   44.8409 C   0  0  0  0  0  0  0  0  0  0  0  0
   16.3540   -0.1726   43.9241 O   0  0  0  0  0  0  0  0  0  0  0  0
   15.4784   -0.0235   46.2187 C   0  0  0  0  0  0  0  0  0  0  0  0
   16.0188   -0.2306   42.6099 C   0  0  0  0  0  0  0  0  0  0  0  0
  1  2  2  0
  2  3  1  0
  3  4  2  0
  2  5  1  0
  3  6  1  0
  4  7  1  0
  4  8  1  0
  7  9  1  0
  1 10  1  0
  6 10  1  0
  6 11  2  0
  7 12  2  0
  5 13  2  0
  9 13  1  1
 12 14  1  0
  8 15  2  0
  8 16  1  0
 11 16  1  0
  9 17  1  0
 14 17  2  0
 11 18  1  0
 18 19  2  0
 18 20  1  0
 20 21  2  0
 19 22  1  0
 16 23  2  0
 22 23  1  0
 23 24  1  0
 15 25  1  0
 24 25  2  0
 19 26  1  0
 21 27  1  0
 26 27  2  0
 27 28  1  0
 29 28  1  6
 29 30  1  0
 30 31  1  0
 31 32  2  0
 32 33  1  0
 31 34  1  0
 29 35  1  0
 32 35  1  0
 33 36  2  0
 36 37  1  0
 34 38  2  0
 36 38  1  0
 37 39  1  0
M  END
$$$$
O14757_Pocket2Mol_idx-in-all-generaetd-426
     RDKit          3D

 40 45  0  0  0  0  0  0  0  0999 V2000
    1.5482   -0.3111   41.9233 C   0  0  0  0  0  0  0  0  0  0  0  0
    2.7284    0.2018   42.1525 N   0  0  0  0  0  0  0  0  0  0  0  0
    3.7893   -0.3016   42.7005 C   0  0  0  0  0  0  0  0  0  0  0  0
    3.3781   -1.7350   43.0000 C   0  0  0  0  0  0  0  0  0  0  0  0
    2.0339   -1.9619   42.6217 C   0  0  0  0  0  0  0  0  0  0  0  0
    4.1166   -2.4997   43.8458 C   0  0  0  0  0  0  0  0  0  0  0  0
    1.1731   -3.0051   42.5773 C   0  0  0  0  0  0  0  0  0  0  0  0
    0.4701   -3.2344   41.4901 C   0  0  0  0  0  0  0  0  0  0  0  0
    5.3799   -1.7814   44.2691 C   0  0  0  0  0  0  0  0  0  0  0  0
    5.0159   -0.0180   43.1201 N   0  0  0  0  0  0  0  0  0  0  0  0
    5.7693   -0.6937   43.8418 C   0  0  0  0  0  0  0  0  0  0  0  0
    0.8078   -3.6166   43.6782 C   0  0  0  0  0  0  0  0  0  0  0  0
    0.0663   -4.7011   43.7415 N   0  0  0  0  0  0  0  0  0  0  0  0
    6.2223   -2.6843   45.1565 C   0  0  0  0  0  0  0  0  0  0  0  0
    6.9599   -0.2351   44.2608 N   0  0  0  0  0  0  0  0  0  0  0  0
    5.9065   -3.9037   45.7499 N   0  0  0  0  0  0  0  0  0  0  0  0
   -0.5459   -5.1185   42.5870 C   0  0  0  0  0  0  0  0  0  0  0  0
    5.7480   -4.0340   46.9810 C   0  0  0  0  0  0  0  0  0  0  0  0
    7.4448   -1.8511   45.4198 C   0  0  0  0  0  0  0  0  0  0  0  0
    7.7572   -0.7827   45.0128 C   0  0  0  0  0  0  0  0  0  0  0  0
    8.4076   -2.7217   46.4541 C   0  0  0  0  0  0  0  0  0  0  0  0
    9.3167   -2.0988   47.1049 N   0  0  0  0  0  0  0  0  0  0  0  0
   -0.4719   -4.3893   41.5406 C   0  0  0  0  0  0  0  0  0  0  0  0
    8.3667   -4.0284   46.5743 N   0  0  0  0  0  0  0  0  0  0  0  0
   10.1532   -2.5726   47.9567 C   0  0  0  0  0  0  0  0  0  0  0  0
   11.0726   -1.7892   48.6998 C   0  0  0  0  0  0  0  0  0  0  0  0
   10.4886   -0.9372   49.4584 C   0  0  0  0  0  0  0  0  0  0  0  0
   10.2139   -3.8947   48.0407 C   0  0  0  0  0  0  0  0  0  0  0  0
    6.6188   -4.9855   47.3969 N   0  0  0  0  0  0  0  0  0  0  0  0
    5.1401   -3.1961   47.7242 O   0  0  0  0  0  0  0  0  0  0  0  0
    9.2230   -4.6492   47.2923 C   0  0  0  0  0  0  0  0  0  0  0  0
   12.4306   -1.6942   48.6002 C   0  0  0  0  0  0  0  0  0  0  0  0
   13.1277   -2.5738   47.4657 C   0  0  0  0  0  0  0  0  0  0  0  0
   12.9867   -0.9385   49.4619 C   0  0  0  0  0  0  0  0  0  0  0  0
   11.2810   -0.4278   50.4234 C   0  0  0  0  0  0  0  0  0  0  0  0
   12.6216   -0.3488   50.3563 C   0  0  0  0  0  0  0  0  0  0  0  0
   13.6100   -3.6562   47.7087 O   0  0  0  0  0  0  0  0  0  0  0  0
   12.9644   -2.1312   46.2667 N   0  0  0  0  0  0  0  0  0  0  0  0
   12.2126   -1.0863   45.7493 C   0  0  0  0  0  0  0  0  0  0  0  0
   14.0349   -2.5335   45.4090 C   0  0  0  0  0  0  0  0  0  0  0  0
  1  2  1  0
  2  3  2  0
  3  4  1  0
  1  5  2  0
  4  5  1  0
  4  6  2  0
  5  7  1  0
  7  8  2  0
  6  9  1  0
  3 10  1  0
  9 11  2  0
 10 11  1  0
  7 12  1  0
 12 13  2  0
  9 14  1  0
 11 15  1  0
 14 16  1  0
 13 17  1  0
 16 18  1  0
 14 19  2  0
 15 20  2  0
 19 20  1  0
 19 21  1  0
 21 22  2  0
  8 23  1  0
 17 23  2  0
 21 24  1  0
 22 25  1  0
 25 26  1  0
 26 27  2  0
 25 28  2  0
 18 29  1  0
 18 30  2  0
 24 31  2  0
 28 31  1  0
 26 32  1  0
 32 33  1  0
 32 34  2  0
 27 35  1  0
 34 36  1  0
 35 36  2  0
 33 37  2  0
 33 38  1  0
 38 39  1  0
 38 40  1  0
M  END
$$$$
O14757_Pocket2Mol_idx-in-all-generaetd-427
     RDKit          3D

 34 39  0  0  0  0  0  0  0  0999 V2000
    4.5156    0.0550   42.9895 N   0  0  0  0  0  0  0  0  0  0  0  0
    5.0618   -0.8645   43.5295 C   0  0  0  0  0  0  0  0  0  0  0  0
    4.4350   -2.0604   43.7783 C   0  0  0  0  0  0  0  0  0  0  0  0
    4.9987   -3.0994   44.5839 C   0  0  0  0  0  0  0  0  0  0  0  0
    3.2714   -1.8664   43.0632 C   0  0  0  0  0  0  0  0  0  0  0  0
    6.4064   -0.5942   44.3204 N   0  0  0  0  0  0  0  0  0  0  0  0
    4.3422   -4.3256   44.7203 C   0  0  0  0  0  0  0  0  0  0  0  0
    2.1845   -2.6668   42.8270 N   0  0  0  0  0  0  0  0  0  0  0  0
    3.3305   -0.5395   42.5465 N   0  0  0  0  0  0  0  0  0  0  0  0
    1.9502   -3.8972   43.4076 C   0  0  0  0  0  0  0  0  0  0  0  0
    2.7156   -4.1184   44.6954 N   0  0  0  0  0  0  0  0  0  0  0  0
    6.8581   -1.5862   45.1101 C   0  0  0  0  0  0  0  0  0  0  0  0
    6.1801   -2.8430   45.2383 C   0  0  0  0  0  0  0  0  0  0  0  0
    2.1454   -5.1901   45.5771 C   0  0  0  0  0  0  0  0  0  0  0  0
    8.0137   -1.3946   45.8526 C   0  0  0  0  0  0  0  0  0  0  0  0
    0.9733   -4.5725   43.2066 O   0  0  0  0  0  0  0  0  0  0  0  0
    2.2437    0.0035   41.8733 C   0  0  0  0  0  0  0  0  0  0  0  0
    1.3210   -2.2077   41.7009 C   0  0  0  0  0  0  0  0  0  0  0  0
    8.6047   -2.2876   46.6923 C   0  0  0  0  0  0  0  0  0  0  0  0
    7.9141   -3.5157   46.8869 C   0  0  0  0  0  0  0  0  0  0  0  0
    1.0501   -0.8658   41.6612 C   0  0  0  0  0  0  0  0  0  0  0  0
    6.7278   -3.7718   46.2525 C   0  0  0  0  0  0  0  0  0  0  0  0
    9.8280   -2.0492   47.3361 C   0  0  0  0  0  0  0  0  0  0  0  0
    9.8262   -1.5735   48.5432 C   0  0  0  0  0  0  0  0  0  0  0  0
   11.0745   -2.0905   46.6735 C   0  0  0  0  0  0  0  0  0  0  0  0
    8.5798   -1.4294   49.3788 F   0  0  0  0  0  0  0  0  0  0  0  0
   10.9754   -1.2454   49.3173 C   0  0  0  0  0  0  0  0  0  0  0  0
   12.2431   -1.7844   47.3194 C   0  0  0  0  0  0  0  0  0  0  0  0
   10.9635   -0.9328   50.7318 O   0  0  0  0  0  0  0  0  0  0  0  0
   13.5269   -1.9838   46.6073 C   0  0  0  0  0  0  0  0  0  0  0  0
   12.2211   -1.4465   48.6866 C   0  0  0  0  0  0  0  0  0  0  0  0
   11.5351   -1.7260   51.6182 C   0  0  0  0  0  0  0  0  0  0  0  0
   14.4296   -2.6323   47.0761 O   0  0  0  0  0  0  0  0  0  0  0  0
   13.6519   -1.4282   45.4446 O   0  0  0  0  0  0  0  0  0  0  0  0
  1  2  2  0
  2  3  1  0
  3  4  1  0
  3  5  2  0
  2  6  1  0
  4  7  1  0
  5  8  1  0
  1  9  1  0
  5  9  1  0
  8 10  1  0
  7 11  1  0
 10 11  1  0
  6 12  2  0
  4 13  2  0
 12 13  1  0
 11 14  1  0
 12 15  1  0
 10 16  2  0
  9 17  1  0
  8 18  1  0
 15 19  2  0
 19 20  1  0
 17 21  1  0
 18 21  1  0
 13 22  1  0
 20 22  2  0
 19 23  1  0
 23 24  2  0
 23 25  1  0
 24 26  1  0
 24 27  1  0
 25 28  2  0
 27 29  1  0
 28 30  1  0
 27 31  2  0
 28 31  1  0
 29 32  1  0
 30 33  1  0
 30 34  2  0
M  END
$$$$
O14757_Pocket2Mol_idx-in-all-generaetd-428
     RDKit          3D

 34 39  0  0  0  0  0  0  0  0999 V2000
    5.3420    0.2589   42.8836 O   0  0  0  0  0  0  0  0  0  0  0  0
    5.1627   -0.7554   43.4753 C   0  0  0  0  0  0  0  0  0  0  0  0
    4.0509   -1.4657   43.4177 N   0  0  0  0  0  0  0  0  0  0  0  0
    5.9969   -1.2317   44.6840 C   0  0  0  0  0  0  0  0  0  0  0  0
    2.9618   -1.1021   42.5918 C   0  0  1  0  0  0  0  0  0  0  0  0
    7.3392   -0.8596   44.8412 C   0  0  0  0  0  0  0  0  0  0  0  0
    1.9754   -2.0820   42.2741 C   0  0  0  0  0  0  0  0  0  0  0  0
    5.5910   -2.4282   45.3439 C   0  0  0  0  0  0  0  0  0  0  0  0
    6.5874   -2.9636   46.1581 C   0  0  0  0  0  0  0  0  0  0  0  0
    4.2763   -3.0680   45.0493 N   0  0  0  0  0  0  0  0  0  0  0  0
    3.6188   -2.5886   44.2024 C   0  0  0  0  0  0  0  0  0  0  0  0
    8.1921   -1.4071   45.7505 C   0  0  0  0  0  0  0  0  0  0  0  0
    1.0154   -1.8839   41.2980 C   0  0  0  0  0  0  0  0  0  0  0  0
    2.5720   -3.3564   43.9063 C   0  0  0  0  0  0  0  0  0  0  0  0
    0.2502   -2.8976   41.0751 C   0  0  0  0  0  0  0  0  0  0  0  0
    6.1761   -4.1775   47.0209 C   0  0  0  0  0  0  0  0  0  0  0  0
    1.7266   -3.1047   43.0115 C   0  0  2  0  0  0  0  0  0  0  0  0
    2.3696   -4.5367   44.7536 N   0  0  0  0  0  0  0  0  0  0  0  0
    1.2264   -5.2346   44.4693 C   0  0  0  0  0  0  0  0  0  0  0  0
    0.7187   -3.8955   42.5465 C   0  0  0  0  0  0  0  0  0  0  0  0
    9.4576   -0.8949   46.0327 N   0  0  0  0  0  0  0  0  0  0  0  0
    0.8625   -6.3901   45.2462 C   0  0  0  0  0  0  0  0  0  0  0  0
    7.6467   -2.5139   46.4892 C   0  0  0  0  0  0  0  0  0  0  0  0
   10.4908   -1.5336   45.8242 C   0  0  0  0  0  0  0  0  0  0  0  0
    0.3057   -4.9299   43.2909 C   0  0  0  0  0  0  0  0  0  0  0  0
   11.5916   -1.4291   46.7436 C   0  0  0  0  0  0  0  0  0  0  0  0
   10.5566   -2.3672   44.8649 O   0  0  0  0  0  0  0  0  0  0  0  0
   11.6051   -2.2111   47.7709 N   0  0  0  0  0  0  0  0  0  0  0  0
    2.4805    0.2099   42.8350 O   0  0  0  0  0  0  0  0  0  0  0  0
   12.6177   -0.5842   46.5430 C   0  0  0  0  0  0  0  0  0  0  0  0
   12.8756    0.2998   45.3489 C   0  0  0  0  0  0  0  0  0  0  0  0
   13.4679   -0.8331   47.6367 N   0  0  0  0  0  0  0  0  0  0  0  0
   12.8213   -1.7487   48.3804 C   0  0  0  0  0  0  0  0  0  0  0  0
   10.5919   -2.8865   48.4995 C   0  0  0  0  0  0  0  0  0  0  0  0
  1  2  2  0
  2  3  1  0
  2  4  1  0
  3  5  1  0
  4  6  2  0
  5  7  1  0
  4  8  1  0
  8  9  2  0
  8 10  1  0
  3 11  1  0
 10 11  2  0
  6 12  1  0
  7 13  2  0
 11 14  1  0
 13 15  1  0
  9 16  1  0
 17  7  1  6
 14 17  1  0
 14 18  2  0
 18 19  1  0
 15 20  2  0
 17 20  1  0
 12 21  1  0
 19 22  1  0
  9 23  1  0
 12 23  2  0
 21 24  1  0
 19 25  2  0
 20 25  1  0
 24 26  1  0
 24 27  2  0
 26 28  1  0
  5 29  1  1
 26 30  2  0
 30 31  1  0
 30 32  1  0
 28 33  1  0
 32 33  2  0
 28 34  1  0
M  END
$$$$
O14757_Pocket2Mol_idx-in-all-generaetd-429
     RDKit          3D

 23 26  0  0  0  0  0  0  0  0999 V2000
    4.5156    0.0550   42.9895 N   0  0  0  0  0  0  0  0  0  0  0  0
    5.0618   -0.8645   43.5295 C   0  0  0  0  0  0  0  0  0  0  0  0
    4.4350   -2.0604   43.7783 C   0  0  0  0  0  0  0  0  0  0  0  0
    4.9987   -3.0994   44.5839 C   0  0  0  0  0  0  0  0  0  0  0  0
    6.0780   -2.8704   45.3929 N   0  0  0  0  0  0  0  0  0  0  0  0
    3.3576   -1.8704   43.0010 C   0  0  0  0  0  0  0  0  0  0  0  0
    6.5991   -3.8202   46.1461 C   0  0  0  0  0  0  0  0  0  0  0  0
    3.2259   -0.4393   42.5186 N   0  0  0  0  0  0  0  0  0  0  0  0
    2.1160    0.0848   41.9593 C   0  0  0  0  0  0  0  0  0  0  0  0
    2.2673   -2.7696   42.7810 C   0  0  0  0  0  0  0  0  0  0  0  0
    2.0244   -3.8279   43.5411 C   0  0  0  0  0  0  0  0  0  0  0  0
    8.0099   -3.3793   46.6664 C   0  0  0  0  0  0  0  0  0  0  0  0
    1.1755   -2.4549   41.8779 C   0  0  0  0  0  0  0  0  0  0  0  0
    8.9736   -4.3319   46.6582 C   0  0  0  0  0  0  0  0  0  0  0  0
    1.0753   -0.8703   41.6938 C   0  0  0  0  0  0  0  0  0  0  0  0
    8.4589   -2.0413   46.7997 C   0  0  0  0  0  0  0  0  0  0  0  0
    0.0453   -3.0796   41.6515 C   0  0  0  0  0  0  0  0  0  0  0  0
   10.2902   -4.1111   46.9907 C   0  0  0  0  0  0  0  0  0  0  0  0
   10.7168   -2.7286   47.1558 C   0  0  0  0  0  0  0  0  0  0  0  0
   -0.9401   -2.7505   40.7294 O   0  0  0  0  0  0  0  0  0  0  0  0
    9.7443   -1.7041   47.0902 C   0  0  0  0  0  0  0  0  0  0  0  0
   -0.0499   -4.3134   42.3058 C   0  0  0  0  0  0  0  0  0  0  0  0
    0.7645   -4.6644   43.2860 C   0  0  0  0  0  0  0  0  0  0  0  0
  1  2  2  0
  2  3  1  0
  3  4  1  0
  4  5  2  3
  3  6  2  0
  5  7  1  0
  1  8  1  0
  6  8  1  0
  8  9  1  0
  6 10  1  0
 10 11  2  0
  7 12  1  0
 10 13  1  0
 12 14  2  0
  9 15  2  0
 13 15  1  0
 12 16  1  0
 13 17  2  0
 14 18  1  0
 18 19  2  0
 17 20  1  0
 16 21  2  0
 19 21  1  0
 17 22  1  0
 11 23  1  0
 22 23  2  0
M  END
$$$$
O14757_Pocket2Mol_idx-in-all-generaetd-430
     RDKit          3D

 42 48  0  0  0  0  0  0  0  0999 V2000
    5.3420    0.2589   42.8836 O   0  0  0  0  0  0  0  0  0  0  0  0
    5.1627   -0.7554   43.4753 C   0  0  0  0  0  0  0  0  0  0  0  0
    4.0509   -1.4657   43.4177 N   0  0  0  0  0  0  0  0  0  0  0  0
    5.9969   -1.2317   44.6840 C   0  0  0  0  0  0  0  0  0  0  0  0
    2.9618   -1.1021   42.5918 C   0  0  1  0  0  0  0  0  0  0  0  0
    7.3392   -0.8596   44.8412 C   0  0  0  0  0  0  0  0  0  0  0  0
    1.9754   -2.0820   42.2741 C   0  0  0  0  0  0  0  0  0  0  0  0
    5.5910   -2.4282   45.3439 C   0  0  0  0  0  0  0  0  0  0  0  0
    6.5874   -2.9636   46.1581 C   0  0  0  0  0  0  0  0  0  0  0  0
    4.2763   -3.0680   45.0493 N   0  0  0  0  0  0  0  0  0  0  0  0
    3.6188   -2.5886   44.2024 C   0  0  0  0  0  0  0  0  0  0  0  0
    8.1921   -1.4071   45.7505 C   0  0  0  0  0  0  0  0  0  0  0  0
    1.0154   -1.8839   41.2980 C   0  0  0  0  0  0  0  0  0  0  0  0
    2.5720   -3.3564   43.9063 C   0  0  0  0  0  0  0  0  0  0  0  0
    0.2502   -2.8976   41.0751 C   0  0  0  0  0  0  0  0  0  0  0  0
    6.1761   -4.1775   47.0209 C   0  0  0  0  0  0  0  0  0  0  0  0
    1.7266   -3.1047   43.0115 C   0  0  2  0  0  0  0  0  0  0  0  0
    2.3696   -4.5367   44.7536 N   0  0  0  0  0  0  0  0  0  0  0  0
    1.2264   -5.2346   44.4693 C   0  0  0  0  0  0  0  0  0  0  0  0
    0.7187   -3.8955   42.5465 C   0  0  0  0  0  0  0  0  0  0  0  0
    9.4576   -0.8949   46.0327 N   0  0  0  0  0  0  0  0  0  0  0  0
    0.8625   -6.3901   45.2462 C   0  0  0  0  0  0  0  0  0  0  0  0
    7.6467   -2.5139   46.4892 C   0  0  0  0  0  0  0  0  0  0  0  0
   10.4908   -1.5336   45.8242 C   0  0  0  0  0  0  0  0  0  0  0  0
    0.3057   -4.9299   43.2909 C   0  0  0  0  0  0  0  0  0  0  0  0
   11.5916   -1.4291   46.7436 C   0  0  0  0  0  0  0  0  0  0  0  0
   10.5566   -2.3672   44.8649 O   0  0  0  0  0  0  0  0  0  0  0  0
   12.8421   -1.9355   46.2823 C   0  0  0  0  0  0  0  0  0  0  0  0
   13.4833   -2.8582   46.9841 C   0  0  0  0  0  0  0  0  0  0  0  0
   11.4002   -1.1447   48.0540 C   0  0  0  0  0  0  0  0  0  0  0  0
   10.2867   -0.4569   48.4999 O   0  0  0  0  0  0  0  0  0  0  0  0
   12.3327   -1.4798   48.9564 C   0  0  0  0  0  0  0  0  0  0  0  0
   14.7901   -3.3162   46.6439 C   0  0  0  0  0  0  0  0  0  0  0  0
    2.4608    0.2113   42.8511 C   0  0  0  0  0  0  0  0  0  0  0  0
   13.6779   -2.2436   48.5402 C   0  0  0  0  0  0  0  0  0  0  0  0
   15.7804   -2.8363   45.9884 C   0  0  0  0  0  0  0  0  0  0  0  0
   16.8968   -3.6083   45.5097 C   0  0  0  0  0  0  0  0  0  0  0  0
   16.9662   -4.9390   45.8576 C   0  0  0  0  0  0  0  0  0  0  0  0
   18.1109   -5.6759   45.4190 O   0  0  0  0  0  0  0  0  0  0  0  0
   14.6814   -4.7574   47.2531 C   0  0  0  0  0  0  0  0  0  0  0  0
   15.9398   -5.5134   46.6984 C   0  0  0  0  0  0  0  0  0  0  0  0
   18.3595   -5.7740   44.1778 C   0  0  0  0  0  0  0  0  0  0  0  0
  1  2  2  0
  2  3  1  0
  2  4  1  0
  3  5  1  0
  4  6  2  0
  5  7  1  0
  4  8  1  0
  8  9  2  0
  8 10  1  0
  3 11  1  0
 10 11  2  0
  6 12  1  0
  7 13  2  0
 11 14  1  0
 13 15  1  0
  9 16  1  0
 17  7  1  6
 14 17  1  0
 14 18  2  0
 18 19  1  0
 15 20  2  0
 17 20  1  0
 12 21  1  0
 19 22  1  0
  9 23  1  0
 12 23  2  0
 21 24  1  0
 19 25  2  0
 20 25  1  0
 24 26  1  0
 24 27  2  0
 26 28  2  0
 28 29  1  0
 26 30  1  0
 30 31  1  0
 30 32  2  0
 29 33  1  0
  5 34  1  1
 29 35  2  0
 32 35  1  0
 33 36  2  0
 36 37  1  0
 37 38  2  0
 38 39  1  0
 33 40  1  0
 38 41  1  0
 40 41  2  0
 39 42  1  0
M  END
$$$$
O14757_Pocket2Mol_idx-in-all-generaetd-431
     RDKit          3D

 33 39  0  0  0  0  0  0  0  0999 V2000
    2.2608    0.0351   42.1039 C   0  0  0  0  0  0  0  0  0  0  0  0
    2.7906   -1.0673   42.3987 N   0  0  0  0  0  0  0  0  0  0  0  0
    3.1210    0.9973   42.3040 N   0  0  0  0  0  0  0  0  0  0  0  0
    4.0827   -0.7954   42.9700 C   0  0  0  0  0  0  0  0  0  0  0  0
    4.9955   -1.7234   43.5259 N   0  0  0  0  0  0  0  0  0  0  0  0
    4.5382   -2.7016   44.3398 C   0  0  1  0  0  0  0  0  0  0  0  0
    5.3738   -2.9294   45.5228 C   0  0  2  0  0  0  0  0  0  0  0  0
    6.6133   -2.1566   45.5018 C   0  0  0  0  0  0  0  0  0  0  0  0
    4.2841    0.3926   42.8877 N   0  0  0  0  0  0  0  0  0  0  0  0
    5.4441   -4.2364   45.9837 C   0  0  1  0  0  0  0  0  0  0  0  0
    1.9678   -2.2711   42.4114 C   0  0  0  0  0  0  0  0  0  0  0  0
    7.1399   -1.4316   44.7431 O   0  0  0  0  0  0  0  0  0  0  0  0
    7.4936   -2.5586   46.5441 N   0  0  0  0  0  0  0  0  0  0  0  0
    5.8242   -4.4706   47.3868 C   0  0  0  0  0  0  0  0  0  0  0  0
    1.0261   -2.3754   41.4347 C   0  0  0  0  0  0  0  0  0  0  0  0
    0.1189   -3.5468   41.4614 C   0  0  0  0  0  0  0  0  0  0  0  0
    2.2389   -3.3785   43.2951 C   0  0  0  0  0  0  0  0  0  0  0  0
    3.3150   -3.3216   44.2621 C   0  0  0  0  0  0  0  0  0  0  0  0
   -0.9323   -3.5979   40.4982 O   0  0  0  0  0  0  0  0  0  0  0  0
    8.8055   -2.0091   46.8034 C   0  0  0  0  0  0  0  0  0  0  0  0
    7.0119   -3.4413   47.6500 C   0  0  0  0  0  0  0  0  0  0  0  0
    0.3294   -4.4619   42.4220 C   0  0  0  0  0  0  0  0  0  0  0  0
    3.1995   -4.5605   45.1503 C   0  0  0  0  0  0  0  0  0  0  0  0
    9.6716   -2.6832   47.3986 C   0  0  0  0  0  0  0  0  0  0  0  0
    1.4145   -4.2960   43.3909 C   0  0  0  0  0  0  0  0  0  0  0  0
   10.8565   -2.8742   46.5972 C   0  0  0  0  0  0  0  0  0  0  0  0
    1.7707   -5.1617   44.5570 O   0  0  0  0  0  0  0  0  0  0  0  0
   11.3051   -4.1279   46.2181 C   0  0  0  0  0  0  0  0  0  0  0  0
    3.9860   -4.8892   46.1565 C   0  0  0  0  0  0  0  0  0  0  0  0
   11.5389   -1.7728   46.1674 C   0  0  0  0  0  0  0  0  0  0  0  0
   12.4722   -4.3149   45.5271 C   0  0  0  0  0  0  0  0  0  0  0  0
   13.1607   -2.9309   45.1903 C   0  0  0  0  0  0  0  0  0  0  0  0
   12.8533   -1.9382   45.4667 C   0  0  0  0  0  0  0  0  0  0  0  0
  1  2  1  0
  1  3  2  0
  2  4  1  0
  4  5  1  0
  6  5  1  1
  6  7  1  0
  7  8  1  6
  3  9  1  0
  4  9  2  0
  7 10  1  0
  2 11  1  0
  8 12  2  0
  8 13  1  0
 10 14  1  1
 11 15  2  0
 15 16  1  0
 11 17  1  0
  6 18  1  0
 17 18  1  0
 16 19  1  0
 13 20  1  0
 13 21  1  0
 14 21  1  0
 16 22  2  0
 18 23  2  0
 20 24  1  0
 17 25  2  0
 22 25  1  0
 24 26  1  0
 23 27  1  0
 25 27  1  0
 26 28  2  0
 10 29  1  0
 23 29  1  0
 26 30  1  0
 28 31  1  0
 31 32  2  0
 30 33  2  0
 32 33  1  0
M  END
$$$$
O14757_Pocket2Mol_idx-in-all-generaetd-432
     RDKit          3D

 28 31  0  0  0  0  0  0  0  0999 V2000
    5.3420    0.2589   42.8836 O   0  0  0  0  0  0  0  0  0  0  0  0
    5.1627   -0.7554   43.4753 C   0  0  0  0  0  0  0  0  0  0  0  0
    4.0509   -1.4657   43.4177 N   0  0  0  0  0  0  0  0  0  0  0  0
    5.9969   -1.2317   44.6840 C   0  0  0  0  0  0  0  0  0  0  0  0
    2.9618   -1.1021   42.5918 C   0  0  0  0  0  0  0  0  0  0  0  0
    7.3392   -0.8596   44.8412 C   0  0  0  0  0  0  0  0  0  0  0  0
    1.9754   -2.0820   42.2741 C   0  0  0  0  0  0  0  0  0  0  0  0
    5.5910   -2.4282   45.3439 C   0  0  0  0  0  0  0  0  0  0  0  0
    6.5874   -2.9636   46.1581 C   0  0  0  0  0  0  0  0  0  0  0  0
    4.2763   -3.0680   45.0493 N   0  0  0  0  0  0  0  0  0  0  0  0
    3.6188   -2.5886   44.2024 C   0  0  0  0  0  0  0  0  0  0  0  0
    8.1921   -1.4071   45.7505 C   0  0  0  0  0  0  0  0  0  0  0  0
    1.0154   -1.8839   41.2980 C   0  0  0  0  0  0  0  0  0  0  0  0
    2.5720   -3.3564   43.9063 C   0  0  0  0  0  0  0  0  0  0  0  0
    0.2502   -2.8976   41.0751 C   0  0  0  0  0  0  0  0  0  0  0  0
    0.2230   -3.9124   42.0516 C   0  0  0  0  0  0  0  0  0  0  0  0
    2.2879   -4.6260   44.7113 N   0  0  0  0  0  0  0  0  0  0  0  0
    6.1659   -4.2025   47.0113 C   0  0  0  0  0  0  0  0  0  0  0  0
    7.7956   -2.4608   46.4615 C   0  0  0  0  0  0  0  0  0  0  0  0
    2.9712    0.0201   42.0096 O   0  0  0  0  0  0  0  0  0  0  0  0
    1.7132   -3.1838   42.9787 C   0  0  2  0  0  0  0  0  0  0  0  0
    8.6828   -3.0330   47.4960 O   0  0  0  0  0  0  0  0  0  0  0  0
    1.1703   -5.2709   44.7618 O   0  0  0  0  0  0  0  0  0  0  0  0
    9.9111   -3.2041   47.1216 C   0  0  0  0  0  0  0  0  0  0  0  0
    0.5515   -5.1401   45.9479 C   0  0  0  0  0  0  0  0  0  0  0  0
   10.2088   -4.3574   46.5630 C   0  0  0  0  0  0  0  0  0  0  0  0
    9.4634   -5.3794   46.5959 O   0  0  0  0  0  0  0  0  0  0  0  0
   11.5205   -4.6582   46.3000 O   0  0  0  0  0  0  0  0  0  0  0  0
  1  2  2  0
  2  3  1  0
  2  4  1  0
  3  5  1  0
  4  6  2  0
  5  7  1  0
  4  8  1  0
  8  9  2  0
  8 10  1  0
  3 11  1  0
 10 11  2  0
  6 12  1  0
  7 13  2  0
 11 14  1  0
 13 15  1  0
 15 16  2  0
 14 17  2  3
  9 18  1  0
  9 19  1  0
 12 19  2  0
  5 20  2  0
  7 21  1  0
 14 21  1  0
 21 16  1  6
 19 22  1  0
 17 23  1  0
 22 24  1  0
 23 25  1  0
 24 26  1  0
 26 27  2  0
 26 28  1  0
M  END
$$$$
O14757_Pocket2Mol_idx-in-all-generaetd-433
     RDKit          3D

 44 52  0  0  0  0  0  0  0  0999 V2000
    1.5482   -0.3111   41.9233 C   0  0  0  0  0  0  0  0  0  0  0  0
    2.7284    0.2018   42.1525 N   0  0  0  0  0  0  0  0  0  0  0  0
    3.7893   -0.3016   42.7005 C   0  0  0  0  0  0  0  0  0  0  0  0
    3.3781   -1.7350   43.0000 C   0  0  0  0  0  0  0  0  0  0  0  0
    2.0339   -1.9619   42.6217 C   0  0  0  0  0  0  0  0  0  0  0  0
    4.1166   -2.4997   43.8458 C   0  0  0  0  0  0  0  0  0  0  0  0
    1.1731   -3.0051   42.5773 C   0  0  0  0  0  0  0  0  0  0  0  0
    0.4701   -3.2344   41.4901 C   0  0  0  0  0  0  0  0  0  0  0  0
    5.3799   -1.7814   44.2691 C   0  0  0  0  0  0  0  0  0  0  0  0
    5.0159   -0.0180   43.1201 N   0  0  0  0  0  0  0  0  0  0  0  0
    5.7693   -0.6937   43.8418 C   0  0  0  0  0  0  0  0  0  0  0  0
    0.8078   -3.6166   43.6782 C   0  0  0  0  0  0  0  0  0  0  0  0
    0.0663   -4.7011   43.7415 N   0  0  0  0  0  0  0  0  0  0  0  0
    6.2223   -2.6843   45.1565 C   0  0  0  0  0  0  0  0  0  0  0  0
    6.9599   -0.2351   44.2608 N   0  0  0  0  0  0  0  0  0  0  0  0
    5.9065   -3.9037   45.7499 N   0  0  0  0  0  0  0  0  0  0  0  0
   -0.5459   -5.1185   42.5870 C   0  0  0  0  0  0  0  0  0  0  0  0
    5.7480   -4.0340   46.9810 C   0  0  0  0  0  0  0  0  0  0  0  0
    7.4448   -1.8511   45.4198 C   0  0  0  0  0  0  0  0  0  0  0  0
    7.7572   -0.7827   45.0128 C   0  0  0  0  0  0  0  0  0  0  0  0
    8.4076   -2.7217   46.4541 C   0  0  0  0  0  0  0  0  0  0  0  0
    9.3167   -2.0988   47.1049 N   0  0  0  0  0  0  0  0  0  0  0  0
   -0.4719   -4.3893   41.5406 C   0  0  0  0  0  0  0  0  0  0  0  0
    8.3667   -4.0284   46.5743 N   0  0  0  0  0  0  0  0  0  0  0  0
    9.5309   -4.3147   47.3094 C   0  0  0  0  0  0  0  0  0  0  0  0
    5.3113   -3.3789   47.8005 O   0  0  0  0  0  0  0  0  0  0  0  0
    9.9022   -5.6301   47.7684 C   0  0  0  0  0  0  0  0  0  0  0  0
    5.4470   -5.5868   47.2096 C   0  0  0  0  0  0  0  0  0  0  0  0
   11.2254   -5.8679   48.0402 C   0  0  0  0  0  0  0  0  0  0  0  0
    8.9736   -6.6532   47.8548 C   0  0  0  0  0  0  0  0  0  0  0  0
   10.0616   -3.0670   47.6360 C   0  0  0  0  0  0  0  0  0  0  0  0
    7.5566   -6.3564   47.5477 N   0  0  0  0  0  0  0  0  0  0  0  0
   12.3328   -4.8893   47.9268 C   0  0  2  0  0  0  0  0  0  0  0  0
   12.2085   -3.9673   46.9997 C   0  0  0  0  0  0  0  0  0  0  0  0
   11.5720   -2.8294   47.8112 C   0  0  0  0  0  0  0  0  0  0  0  0
   11.5497   -7.1871   48.4172 C   0  0  0  0  0  0  0  0  0  0  0  0
   13.5576   -5.8273   47.6737 C   0  0  0  0  0  0  0  0  0  0  0  0
   10.6555   -8.2234   48.5860 C   0  0  0  0  0  0  0  0  0  0  0  0
    9.3214   -7.9341   48.2947 C   0  0  0  0  0  0  0  0  0  0  0  0
   14.8413   -5.2792   47.8604 C   0  0  0  0  0  0  0  0  0  0  0  0
   13.5763   -6.4127   46.3135 C   0  0  0  0  0  0  0  0  0  0  0  0
   13.2056   -7.0086   48.6405 C   0  0  0  0  0  0  0  0  0  0  0  0
    6.6343   -6.3151   48.5313 C   0  0  0  0  0  0  0  0  0  0  0  0
    5.5080   -6.0004   48.3784 N   0  0  0  0  0  0  0  0  0  0  0  0
  1  2  1  0
  2  3  2  0
  3  4  1  0
  1  5  2  0
  4  5  1  0
  4  6  2  0
  5  7  1  0
  7  8  2  0
  6  9  1  0
  3 10  1  0
  9 11  2  0
 10 11  1  0
  7 12  1  0
 12 13  2  0
  9 14  1  0
 11 15  1  0
 14 16  1  0
 13 17  1  0
 16 18  1  0
 14 19  2  0
 15 20  2  0
 19 20  1  0
 19 21  1  0
 21 22  2  0
  8 23  1  0
 17 23  2  0
 21 24  1  0
 24 25  1  0
 18 26  2  0
 25 27  1  0
 18 28  1  0
 27 29  2  0
 27 30  1  0
 22 31  1  0
 25 31  2  0
 30 32  1  0
 29 33  1  0
 33 34  1  6
 31 35  1  0
 34 35  1  0
 29 36  1  0
 33 37  1  0
 36 38  2  0
 30 39  2  0
 38 39  1  0
 37 40  1  0
 37 41  1  0
 36 42  1  0
 37 42  1  0
 32 43  1  0
 28 44  1  0
 43 44  2  3
M  END
$$$$
O14757_Pocket2Mol_idx-in-all-generaetd-434
     RDKit          3D

 33 36  0  0  0  0  0  0  0  0999 V2000
    4.5142    0.3543   42.7132 N   0  0  0  0  0  0  0  0  0  0  0  0
    3.5107   -0.4860   42.6298 C   0  0  0  0  0  0  0  0  0  0  0  0
    3.5891   -1.7637   43.2512 N   0  0  0  0  0  0  0  0  0  0  0  0
    5.5470   -0.0112   43.3539 C   0  0  0  0  0  0  0  0  0  0  0  0
    2.1469   -0.1899   41.9512 C   0  0  0  0  0  0  0  0  0  0  0  0
    4.6725   -2.0734   43.8606 C   0  0  0  0  0  0  0  0  0  0  0  0
    5.7749   -1.1829   43.9325 C   0  0  0  0  0  0  0  0  0  0  0  0
    4.7150   -3.3068   44.6440 C   0  0  0  0  0  0  0  0  0  0  0  0
    6.9086   -1.5797   44.6919 C   0  0  0  0  0  0  0  0  0  0  0  0
    3.5691   -4.2517   44.6407 C   0  0  0  0  0  0  0  0  0  0  0  0
    2.3573   -4.0060   44.5430 C   0  0  0  0  0  0  0  0  0  0  0  0
    6.9170   -2.8018   45.4663 C   0  0  0  0  0  0  0  0  0  0  0  0
    5.8006   -3.6152   45.4297 C   0  0  0  0  0  0  0  0  0  0  0  0
    8.0903   -3.1108   46.2193 C   0  0  0  0  0  0  0  0  0  0  0  0
    4.0064   -5.4798   44.1304 O   0  0  0  0  0  0  0  0  0  0  0  0
    1.3499   -4.4927   43.7488 C   0  0  0  0  0  0  0  0  0  0  0  0
    8.9407   -2.1153   46.7855 N   0  0  0  0  0  0  0  0  0  0  0  0
    9.9131   -2.4307   47.6296 C   0  0  0  0  0  0  0  0  0  0  0  0
    9.9401   -2.1931   48.7722 O   0  0  0  0  0  0  0  0  0  0  0  0
    1.6925   -3.8787   45.7737 C   0  0  0  0  0  0  0  0  0  0  0  0
    0.0956   -4.4506   43.8726 C   0  0  0  0  0  0  0  0  0  0  0  0
   -0.4743   -4.1254   44.9651 C   0  0  0  0  0  0  0  0  0  0  0  0
   11.1474   -2.9718   46.9683 C   0  0  0  0  0  0  0  0  0  0  0  0
    0.1760   -3.8909   45.9333 C   0  0  0  0  0  0  0  0  0  0  0  0
   11.1208   -4.2039   46.7415 C   0  0  0  0  0  0  0  0  0  0  0  0
   12.2252   -2.1376   46.6926 C   0  0  0  0  0  0  0  0  0  0  0  0
   12.2265   -0.6255   46.8102 C   0  0  0  0  0  0  0  0  0  0  0  0
   12.3000   -4.8926   46.1733 C   0  0  0  0  0  0  0  0  0  0  0  0
   13.1584   -0.0728   46.0706 O   0  0  0  0  0  0  0  0  0  0  0  0
   13.4242   -4.1385   46.0333 C   0  0  0  0  0  0  0  0  0  0  0  0
   11.1564   -0.0997   47.0747 O   0  0  0  0  0  0  0  0  0  0  0  0
   14.6028   -4.7459   45.5606 F   0  0  0  0  0  0  0  0  0  0  0  0
   13.4304   -2.7064   46.1359 C   0  0  0  0  0  0  0  0  0  0  0  0
  1  2  2  0
  2  3  1  0
  1  4  1  0
  2  5  1  0
  3  6  2  0
  4  7  2  0
  6  7  1  0
  6  8  1  0
  7  9  1  0
  8 10  1  0
 10 11  1  0
  9 12  2  0
  8 13  2  0
 12 13  1  0
 12 14  1  0
 10 15  2  0
 11 16  2  0
 14 17  1  0
 17 18  1  0
 18 19  2  0
 11 20  1  0
 16 21  1  0
 21 22  2  0
 18 23  1  0
 20 24  2  0
 22 24  1  0
 23 25  2  0
 23 26  1  0
 26 27  1  0
 25 28  1  0
 27 29  2  0
 28 30  2  0
 27 31  1  0
 30 32  1  0
 26 33  2  0
 30 33  1  0
M  END
$$$$
O14757_Pocket2Mol_idx-in-all-generaetd-435
     RDKit          3D

 42 50  0  0  0  0  0  0  0  0999 V2000
    1.5482   -0.3111   41.9233 C   0  0  0  0  0  0  0  0  0  0  0  0
    2.7284    0.2018   42.1525 N   0  0  0  0  0  0  0  0  0  0  0  0
    3.7893   -0.3016   42.7005 C   0  0  0  0  0  0  0  0  0  0  0  0
    3.3781   -1.7350   43.0000 C   0  0  0  0  0  0  0  0  0  0  0  0
    2.0339   -1.9619   42.6217 C   0  0  0  0  0  0  0  0  0  0  0  0
    5.0090    0.1219   42.9340 N   0  0  0  0  0  0  0  0  0  0  0  0
    4.2895   -2.4979   43.6707 C   0  0  0  0  0  0  0  0  0  0  0  0
    5.8391   -0.6675   43.6343 C   0  0  0  0  0  0  0  0  0  0  0  0
    6.9849   -0.2377   44.0028 N   0  0  0  0  0  0  0  0  0  0  0  0
    4.0426   -3.8794   44.0832 C   0  0  0  0  0  0  0  0  0  0  0  0
    7.6796   -0.8734   44.9326 C   0  0  0  0  0  0  0  0  0  0  0  0
    1.1064   -2.9576   42.4211 C   0  0  0  0  0  0  0  0  0  0  0  0
    5.5298   -1.9496   44.0315 C   0  0  0  0  0  0  0  0  0  0  0  0
    3.8954   -4.1817   45.4718 C   0  0  0  0  0  0  0  0  0  0  0  0
    0.6765   -3.5480   43.4006 C   0  0  1  0  0  0  0  0  0  0  0  0
    0.5804   -3.2191   41.1635 C   0  0  0  0  0  0  0  0  0  0  0  0
    2.8083   -4.8227   45.9203 N   0  0  0  0  0  0  0  0  0  0  0  0
   -0.1574   -4.5754   42.9329 N   0  0  0  0  0  0  0  0  0  0  0  0
    6.5271   -2.5531   44.9677 C   0  0  0  0  0  0  0  0  0  0  0  0
   -0.2272   -4.3703   41.5137 C   0  0  0  0  0  0  0  0  0  0  0  0
    7.5095   -2.0029   45.3993 C   0  0  0  0  0  0  0  0  0  0  0  0
    8.2550   -2.6982   46.3988 C   0  0  0  0  0  0  0  0  0  0  0  0
    8.8975   -0.3029   45.3267 O   0  0  0  0  0  0  0  0  0  0  0  0
    4.8299   -4.4637   46.4212 C   0  0  0  0  0  0  0  0  0  0  0  0
    4.2707   -4.9248   47.6295 N   0  0  0  0  0  0  0  0  0  0  0  0
    3.2045   -5.2092   47.1521 C   0  0  0  0  0  0  0  0  0  0  0  0
    1.4482   -4.6186   45.4134 C   0  0  1  0  0  0  0  0  0  0  0  0
    1.2398   -3.5043   44.6236 O   0  0  0  0  0  0  0  0  0  0  0  0
    6.3317   -3.9297   46.0870 C   0  0  2  0  0  0  0  0  0  0  0  0
    9.5296   -2.5449   46.9776 C   0  0  0  0  0  0  0  0  0  0  0  0
    9.7921   -1.7530   47.9018 O   0  0  0  0  0  0  0  0  0  0  0  0
    7.3972   -3.8130   46.7939 C   0  0  0  0  0  0  0  0  0  0  0  0
    1.2392   -5.7793   44.5610 C   0  0  0  0  0  0  0  0  0  0  0  0
   10.4934   -3.0755   46.3117 N   0  0  0  0  0  0  0  0  0  0  0  0
   10.3750   -4.1130   45.4302 C   0  0  0  0  0  0  0  0  0  0  0  0
   11.8947   -2.7998   46.7984 C   0  0  0  0  0  0  0  0  0  0  0  0
   12.8362   -2.7998   45.7275 C   0  0  1  0  0  0  0  0  0  0  0  0
   11.7375   -4.7913   45.1817 C   0  0  0  0  0  0  0  0  0  0  0  0
   14.0236   -2.1316   45.9685 C   0  0  0  0  0  0  0  0  0  0  0  0
   12.8716   -4.3586   45.7377 C   0  0  0  0  0  0  0  0  0  0  0  0
   14.8027   -2.6063   46.7738 O   0  0  0  0  0  0  0  0  0  0  0  0
   14.4637   -1.2719   45.0557 O   0  0  0  0  0  0  0  0  0  0  0  0
  1  2  1  0
  2  3  2  0
  3  4  1  0
  1  5  2  0
  4  5  1  0
  3  6  1  0
  4  7  2  0
  6  8  1  0
  8  9  1  0
  7 10  1  0
  9 11  1  0
  5 12  1  0
  7 13  1  0
  8 13  2  0
 10 14  1  0
 12 15  1  0
 12 16  2  0
 14 17  1  0
 15 18  1  0
 13 19  1  0
 16 20  1  0
 18 20  2  0
 11 21  1  0
 19 21  2  0
 21 22  1  0
 11 23  2  0
 14 24  2  0
 24 25  1  0
 17 26  1  0
 25 26  2  0
 17 27  1  0
 15 28  1  6
 27 28  1  0
 19 29  1  0
 24 29  1  0
 22 30  1  0
 30 31  2  0
 22 32  2  0
 29 32  1  1
 27 33  1  6
 30 34  1  0
 34 35  1  0
 34 36  1  0
 36 37  1  0
 35 38  1  0
 37 39  1  1
 37 40  1  0
 38 40  1  0
 39 41  2  0
 39 42  1  0
M  END
$$$$
O14757_Pocket2Mol_idx-in-all-generaetd-436
     RDKit          3D

 30 34  0  0  0  0  0  0  0  0999 V2000
    5.3420    0.2589   42.8836 O   0  0  0  0  0  0  0  0  0  0  0  0
    5.1627   -0.7554   43.4753 C   0  0  0  0  0  0  0  0  0  0  0  0
    4.0509   -1.4657   43.4177 N   0  0  0  0  0  0  0  0  0  0  0  0
    5.9969   -1.2317   44.6840 C   0  0  0  0  0  0  0  0  0  0  0  0
    2.9618   -1.1021   42.5918 C   0  0  0  0  0  0  0  0  0  0  0  0
    7.3392   -0.8596   44.8412 C   0  0  0  0  0  0  0  0  0  0  0  0
    1.9754   -2.0820   42.2741 C   0  0  0  0  0  0  0  0  0  0  0  0
    5.5910   -2.4282   45.3439 C   0  0  0  0  0  0  0  0  0  0  0  0
    6.5874   -2.9636   46.1581 C   0  0  0  0  0  0  0  0  0  0  0  0
    4.2763   -3.0680   45.0493 N   0  0  0  0  0  0  0  0  0  0  0  0
    3.6188   -2.5886   44.2024 C   0  0  0  0  0  0  0  0  0  0  0  0
    8.1921   -1.4071   45.7505 C   0  0  0  0  0  0  0  0  0  0  0  0
    1.0154   -1.8839   41.2980 C   0  0  0  0  0  0  0  0  0  0  0  0
    2.5720   -3.3564   43.9063 C   0  0  0  0  0  0  0  0  0  0  0  0
    0.2502   -2.8976   41.0751 C   0  0  0  0  0  0  0  0  0  0  0  0
    0.2230   -3.9124   42.0516 C   0  0  0  0  0  0  0  0  0  0  0  0
    2.2879   -4.6260   44.7113 N   0  0  0  0  0  0  0  0  0  0  0  0
    6.1659   -4.2025   47.0113 C   0  0  0  0  0  0  0  0  0  0  0  0
    7.7956   -2.4608   46.4615 C   0  0  0  0  0  0  0  0  0  0  0  0
    2.9712    0.0201   42.0096 O   0  0  0  0  0  0  0  0  0  0  0  0
    1.7132   -3.1838   42.9787 C   0  0  2  0  0  0  0  0  0  0  0  0
    8.6828   -3.0330   47.4960 O   0  0  0  0  0  0  0  0  0  0  0  0
    1.1703   -5.2709   44.7618 O   0  0  0  0  0  0  0  0  0  0  0  0
    9.9111   -3.2041   47.1216 C   0  0  0  0  0  0  0  0  0  0  0  0
    0.5515   -5.1401   45.9479 C   0  0  0  0  0  0  0  0  0  0  0  0
   10.2088   -4.3574   46.5630 C   0  0  0  0  0  0  0  0  0  0  0  0
   10.8619   -2.2052   47.3191 C   0  0  0  0  0  0  0  0  0  0  0  0
   11.5450   -4.6712   46.2149 C   0  0  0  0  0  0  0  0  0  0  0  0
   12.5441   -3.5081   46.5242 C   0  0  0  0  0  0  0  0  0  0  0  0
   12.2051   -2.4588   46.9582 C   0  0  0  0  0  0  0  0  0  0  0  0
  1  2  2  0
  2  3  1  0
  2  4  1  0
  3  5  1  0
  4  6  2  0
  5  7  1  0
  4  8  1  0
  8  9  2  0
  8 10  1  0
  3 11  1  0
 10 11  2  0
  6 12  1  0
  7 13  2  0
 11 14  1  0
 13 15  1  0
 15 16  2  0
 14 17  2  3
  9 18  1  0
  9 19  1  0
 12 19  2  0
  5 20  2  0
  7 21  1  0
 14 21  1  0
 21 16  1  6
 19 22  1  0
 17 23  1  0
 22 24  1  0
 23 25  1  0
 24 26  2  0
 24 27  1  0
 26 28  1  0
 28 29  2  0
 27 30  2  0
 29 30  1  0
M  END
$$$$
O14757_Pocket2Mol_idx-in-all-generaetd-437
     RDKit          3D

 28 32  0  0  0  0  0  0  0  0999 V2000
    1.5482   -0.3111   41.9233 C   0  0  0  0  0  0  0  0  0  0  0  0
    2.7284    0.2018   42.1525 N   0  0  0  0  0  0  0  0  0  0  0  0
    3.7893   -0.3016   42.7005 C   0  0  0  0  0  0  0  0  0  0  0  0
    3.3781   -1.7350   43.0000 C   0  0  0  0  0  0  0  0  0  0  0  0
    2.0339   -1.9619   42.6217 C   0  0  0  0  0  0  0  0  0  0  0  0
    4.1166   -2.4997   43.8458 C   0  0  0  0  0  0  0  0  0  0  0  0
    1.1731   -3.0051   42.5773 C   0  0  0  0  0  0  0  0  0  0  0  0
    0.4701   -3.2344   41.4901 C   0  0  0  0  0  0  0  0  0  0  0  0
    5.3799   -1.7814   44.2691 C   0  0  0  0  0  0  0  0  0  0  0  0
    5.0159   -0.0180   43.1201 N   0  0  0  0  0  0  0  0  0  0  0  0
    5.7693   -0.6937   43.8418 C   0  0  0  0  0  0  0  0  0  0  0  0
    0.8078   -3.6166   43.6782 C   0  0  0  0  0  0  0  0  0  0  0  0
    0.0663   -4.7011   43.7415 N   0  0  0  0  0  0  0  0  0  0  0  0
    6.2223   -2.6843   45.1565 C   0  0  0  0  0  0  0  0  0  0  0  0
    6.9599   -0.2351   44.2608 N   0  0  0  0  0  0  0  0  0  0  0  0
    5.9065   -3.9037   45.7499 N   0  0  0  0  0  0  0  0  0  0  0  0
   -0.5459   -5.1185   42.5870 C   0  0  0  0  0  0  0  0  0  0  0  0
    5.7480   -4.0340   46.9810 C   0  0  0  0  0  0  0  0  0  0  0  0
    7.4448   -1.8511   45.4198 C   0  0  0  0  0  0  0  0  0  0  0  0
    7.7572   -0.7827   45.0128 C   0  0  0  0  0  0  0  0  0  0  0  0
    8.4076   -2.7217   46.4541 C   0  0  0  0  0  0  0  0  0  0  0  0
    9.3167   -2.0988   47.1049 N   0  0  0  0  0  0  0  0  0  0  0  0
   -0.4719   -4.3893   41.5406 C   0  0  0  0  0  0  0  0  0  0  0  0
    5.0887   -3.4849   47.7878 O   0  0  0  0  0  0  0  0  0  0  0  0
    6.6862   -5.0913   47.4809 C   0  0  0  0  0  0  0  0  0  0  0  0
    8.0012   -4.4642   47.9733 C   0  0  0  0  0  0  0  0  0  0  0  0
    8.2449   -4.0894   46.5985 N   0  0  0  0  0  0  0  0  0  0  0  0
    9.2981   -0.7013   47.3214 O   0  0  0  0  0  0  0  0  0  0  0  0
  1  2  1  0
  2  3  2  0
  3  4  1  0
  1  5  2  0
  4  5  1  0
  4  6  2  0
  5  7  1  0
  7  8  2  0
  6  9  1  0
  3 10  1  0
  9 11  2  0
 10 11  1  0
  7 12  1  0
 12 13  2  0
  9 14  1  0
 11 15  1  0
 14 16  1  0
 13 17  1  0
 16 18  1  0
 14 19  2  0
 15 20  2  0
 19 20  1  0
 19 21  1  0
 21 22  2  3
  8 23  1  0
 17 23  2  0
 18 24  2  0
 18 25  1  0
 25 26  1  0
 21 27  1  0
 26 27  1  0
 22 28  1  0
M  END
$$$$
O14757_Pocket2Mol_idx-in-all-generaetd-438
     RDKit          3D

 35 43  0  0  0  0  0  0  0  0999 V2000
    1.5482   -0.3111   41.9233 C   0  0  0  0  0  0  0  0  0  0  0  0
    2.7284    0.2018   42.1525 N   0  0  0  0  0  0  0  0  0  0  0  0
    3.7893   -0.3016   42.7005 C   0  0  0  0  0  0  0  0  0  0  0  0
    3.3781   -1.7350   43.0000 C   0  0  0  0  0  0  0  0  0  0  0  0
    2.0339   -1.9619   42.6217 C   0  0  0  0  0  0  0  0  0  0  0  0
    5.0090    0.1219   42.9340 N   0  0  0  0  0  0  0  0  0  0  0  0
    4.2895   -2.4979   43.6707 C   0  0  0  0  0  0  0  0  0  0  0  0
    5.8391   -0.6675   43.6343 C   0  0  0  0  0  0  0  0  0  0  0  0
    6.9849   -0.2377   44.0028 N   0  0  0  0  0  0  0  0  0  0  0  0
    4.0426   -3.8794   44.0832 C   0  0  0  0  0  0  0  0  0  0  0  0
    7.6796   -0.8734   44.9326 C   0  0  0  0  0  0  0  0  0  0  0  0
    1.1064   -2.9576   42.4211 C   0  0  0  0  0  0  0  0  0  0  0  0
    5.5298   -1.9496   44.0315 C   0  0  0  0  0  0  0  0  0  0  0  0
    3.8954   -4.1817   45.4718 C   0  0  0  0  0  0  0  0  0  0  0  0
    0.6765   -3.5480   43.4006 C   0  0  1  0  0  0  0  0  0  0  0  0
    0.5804   -3.2191   41.1635 C   0  0  0  0  0  0  0  0  0  0  0  0
    2.8083   -4.8227   45.9203 N   0  0  0  0  0  0  0  0  0  0  0  0
   -0.1574   -4.5754   42.9329 N   0  0  0  0  0  0  0  0  0  0  0  0
    6.5271   -2.5531   44.9677 C   0  0  0  0  0  0  0  0  0  0  0  0
   -0.2272   -4.3703   41.5137 C   0  0  0  0  0  0  0  0  0  0  0  0
    7.5095   -2.0029   45.3993 C   0  0  0  0  0  0  0  0  0  0  0  0
    8.2550   -2.6982   46.3988 C   0  0  1  0  0  0  0  0  0  0  0  0
    8.8975   -0.3029   45.3267 O   0  0  0  0  0  0  0  0  0  0  0  0
    4.8299   -4.4637   46.4212 C   0  0  0  0  0  0  0  0  0  0  0  0
    4.2707   -4.9248   47.6295 N   0  0  0  0  0  0  0  0  0  0  0  0
    3.2045   -5.2092   47.1521 C   0  0  0  0  0  0  0  0  0  0  0  0
    1.4482   -4.6186   45.4134 C   0  0  0  0  0  0  0  0  0  0  0  0
    1.3256   -3.7660   44.6394 N   0  0  0  0  0  0  0  0  0  0  0  0
    9.2816   -2.1418   47.1273 N   0  0  0  0  0  0  0  0  0  0  0  0
   10.0629   -3.1324   47.8508 C   0  0  0  0  0  0  0  0  0  0  0  0
    9.4721   -4.3755   47.9890 C   0  0  0  0  0  0  0  0  0  0  0  0
    6.3561   -3.8825   46.1164 C   0  0  2  0  0  0  0  0  0  0  0  0
    7.4333   -3.6015   46.9030 C   0  0  1  0  0  0  0  0  0  0  0  0
    8.0732   -4.8345   47.6096 C   0  0  0  0  0  0  0  0  0  0  0  0
    0.6334   -5.4582   45.7310 O   0  0  0  0  0  0  0  0  0  0  0  0
  1  2  1  0
  2  3  2  0
  3  4  1  0
  1  5  2  0
  4  5  1  0
  3  6  1  0
  4  7  2  0
  6  8  1  0
  8  9  1  0
  7 10  1  0
  9 11  1  0
  5 12  1  0
  7 13  1  0
  8 13  2  0
 10 14  1  0
 12 15  1  0
 12 16  2  0
 14 17  1  0
 15 18  1  0
 13 19  1  0
 16 20  1  0
 18 20  2  0
 11 21  1  0
 19 21  2  0
 21 22  1  0
 11 23  2  0
 14 24  2  0
 24 25  1  0
 17 26  1  0
 25 26  2  0
 17 27  1  0
 15 28  1  6
 27 28  1  0
 22 29  1  1
 29 30  1  0
 30 31  1  0
 19 32  1  0
 32 24  1  1
 22 33  1  0
 32 33  1  0
 31 34  1  0
 33 34  1  6
 27 35  2  0
M  END
$$$$
O14757_Pocket2Mol_idx-in-all-generaetd-439
     RDKit          3D

 35 40  0  0  0  0  0  0  0  0999 V2000
    5.3420    0.2589   42.8836 O   0  0  0  0  0  0  0  0  0  0  0  0
    5.1627   -0.7554   43.4753 C   0  0  0  0  0  0  0  0  0  0  0  0
    4.0509   -1.4657   43.4177 N   0  0  0  0  0  0  0  0  0  0  0  0
    5.9969   -1.2317   44.6840 C   0  0  0  0  0  0  0  0  0  0  0  0
    2.9618   -1.1021   42.5918 C   0  0  1  0  0  0  0  0  0  0  0  0
    7.3392   -0.8596   44.8412 C   0  0  0  0  0  0  0  0  0  0  0  0
    1.9754   -2.0820   42.2741 C   0  0  0  0  0  0  0  0  0  0  0  0
    5.5910   -2.4282   45.3439 C   0  0  0  0  0  0  0  0  0  0  0  0
    6.5874   -2.9636   46.1581 C   0  0  0  0  0  0  0  0  0  0  0  0
    4.2763   -3.0680   45.0493 N   0  0  0  0  0  0  0  0  0  0  0  0
    3.6188   -2.5886   44.2024 C   0  0  0  0  0  0  0  0  0  0  0  0
    8.1921   -1.4071   45.7505 C   0  0  0  0  0  0  0  0  0  0  0  0
    1.0154   -1.8839   41.2980 C   0  0  0  0  0  0  0  0  0  0  0  0
    2.5720   -3.3564   43.9063 C   0  0  0  0  0  0  0  0  0  0  0  0
    0.2502   -2.8976   41.0751 C   0  0  0  0  0  0  0  0  0  0  0  0
    6.1761   -4.1775   47.0209 C   0  0  0  0  0  0  0  0  0  0  0  0
    1.7266   -3.1047   43.0115 C   0  0  2  0  0  0  0  0  0  0  0  0
    2.3696   -4.5367   44.7536 N   0  0  0  0  0  0  0  0  0  0  0  0
    1.2264   -5.2346   44.4693 C   0  0  0  0  0  0  0  0  0  0  0  0
    0.7187   -3.8955   42.5465 C   0  0  0  0  0  0  0  0  0  0  0  0
    9.4576   -0.8949   46.0327 N   0  0  0  0  0  0  0  0  0  0  0  0
    0.8625   -6.3901   45.2462 C   0  0  0  0  0  0  0  0  0  0  0  0
    7.6467   -2.5139   46.4892 C   0  0  0  0  0  0  0  0  0  0  0  0
   10.4908   -1.5336   45.8242 C   0  0  0  0  0  0  0  0  0  0  0  0
    0.3057   -4.9299   43.2909 C   0  0  0  0  0  0  0  0  0  0  0  0
   11.5916   -1.4291   46.7436 C   0  0  0  0  0  0  0  0  0  0  0  0
   10.5566   -2.3672   44.8649 O   0  0  0  0  0  0  0  0  0  0  0  0
   12.8421   -1.9355   46.2823 C   0  0  0  0  0  0  0  0  0  0  0  0
   13.4833   -2.8582   46.9841 C   0  0  0  0  0  0  0  0  0  0  0  0
   11.4002   -1.1447   48.0540 C   0  0  0  0  0  0  0  0  0  0  0  0
   10.2867   -0.4569   48.4999 O   0  0  0  0  0  0  0  0  0  0  0  0
   12.3094   -1.7121   48.9511 C   0  0  0  0  0  0  0  0  0  0  0  0
   10.2972   -0.1972   49.8514 C   0  0  0  0  0  0  0  0  0  0  0  0
    2.4586    0.2110   42.8496 C   0  0  0  0  0  0  0  0  0  0  0  0
   13.3149   -2.4528   48.6081 C   0  0  0  0  0  0  0  0  0  0  0  0
  1  2  2  0
  2  3  1  0
  2  4  1  0
  3  5  1  0
  4  6  2  0
  5  7  1  0
  4  8  1  0
  8  9  2  0
  8 10  1  0
  3 11  1  0
 10 11  2  0
  6 12  1  0
  7 13  2  0
 11 14  1  0
 13 15  1  0
  9 16  1  0
 17  7  1  6
 14 17  1  0
 14 18  2  0
 18 19  1  0
 15 20  2  0
 17 20  1  0
 12 21  1  0
 19 22  1  0
  9 23  1  0
 12 23  2  0
 21 24  1  0
 19 25  2  0
 20 25  1  0
 24 26  1  0
 24 27  2  0
 26 28  2  0
 28 29  1  0
 26 30  1  0
 30 31  1  0
 30 32  2  0
 31 33  1  0
  5 34  1  1
 29 35  2  0
 32 35  1  0
M  END
$$$$
O14757_Pocket2Mol_idx-in-all-generaetd-440
     RDKit          3D

 32 37  0  0  0  0  0  0  0  0999 V2000
    5.3420    0.2589   42.8836 O   0  0  0  0  0  0  0  0  0  0  0  0
    5.1627   -0.7554   43.4753 C   0  0  0  0  0  0  0  0  0  0  0  0
    4.0509   -1.4657   43.4177 N   0  0  0  0  0  0  0  0  0  0  0  0
    5.9969   -1.2317   44.6840 C   0  0  0  0  0  0  0  0  0  0  0  0
    2.9618   -1.1021   42.5918 C   0  0  0  0  0  0  0  0  0  0  0  0
    7.3392   -0.8596   44.8412 C   0  0  0  0  0  0  0  0  0  0  0  0
    1.9754   -2.0820   42.2741 C   0  0  0  0  0  0  0  0  0  0  0  0
    5.5910   -2.4282   45.3439 C   0  0  0  0  0  0  0  0  0  0  0  0
    6.5874   -2.9636   46.1581 C   0  0  0  0  0  0  0  0  0  0  0  0
    4.2763   -3.0680   45.0493 N   0  0  0  0  0  0  0  0  0  0  0  0
    3.6188   -2.5886   44.2024 C   0  0  0  0  0  0  0  0  0  0  0  0
    8.1921   -1.4071   45.7505 C   0  0  0  0  0  0  0  0  0  0  0  0
    1.0154   -1.8839   41.2980 C   0  0  0  0  0  0  0  0  0  0  0  0
    2.5720   -3.3564   43.9063 C   0  0  0  0  0  0  0  0  0  0  0  0
    0.2502   -2.8976   41.0751 C   0  0  0  0  0  0  0  0  0  0  0  0
    0.2230   -3.9124   42.0516 C   0  0  0  0  0  0  0  0  0  0  0  0
    2.2879   -4.6260   44.7113 N   0  0  0  0  0  0  0  0  0  0  0  0
    1.7585   -3.1585   42.9749 N   0  0  0  0  0  0  0  0  0  0  0  0
    7.7776   -2.5440   46.4766 C   0  0  0  0  0  0  0  0  0  0  0  0
    0.8620   -4.0153   42.9214 C   0  0  0  0  0  0  0  0  0  0  0  0
    2.9942   -0.0014   41.9856 O   0  0  0  0  0  0  0  0  0  0  0  0
    8.6110   -3.0684   47.3244 O   0  0  0  0  0  0  0  0  0  0  0  0
    9.7976   -3.4246   46.8484 C   0  0  1  0  0  0  0  0  0  0  0  0
   10.8224   -2.4283   47.1956 C   0  0  0  0  0  0  0  0  0  0  0  0
    0.9965   -5.0741   43.9477 C   0  0  0  0  0  0  0  0  0  0  0  0
   10.2995   -4.6400   47.3839 C   0  0  0  0  0  0  0  0  0  0  0  0
   12.1422   -2.5515   46.4710 C   0  0  1  0  0  0  0  0  0  0  0  0
   11.5967   -5.1065   46.7160 C   0  0  0  0  0  0  0  0  0  0  0  0
   13.1045   -1.5154   46.5236 C   0  0  0  0  0  0  0  0  0  0  0  0
   12.6376   -3.9754   46.9109 C   0  0  0  0  0  0  0  0  0  0  0  0
   13.1062   -0.9552   47.5146 O   0  0  0  0  0  0  0  0  0  0  0  0
   13.7721   -1.2394   45.4104 N   0  0  0  0  0  0  0  0  0  0  0  0
  1  2  2  0
  2  3  1  0
  2  4  1  0
  3  5  1  0
  4  6  2  0
  5  7  1  0
  4  8  1  0
  8  9  2  0
  8 10  1  0
  3 11  1  0
 10 11  2  0
  6 12  1  0
  7 13  2  0
 11 14  1  0
 13 15  1  0
 15 16  2  0
 14 17  2  0
  7 18  1  0
 14 18  1  0
  9 19  1  0
 12 19  2  0
 16 20  1  0
 18 20  1  0
  5 21  2  0
 19 22  1  0
 23 22  1  1
 23 24  1  0
 17 25  1  0
 20 25  2  0
 23 26  1  0
 24 27  1  0
 26 28  1  0
 27 29  1  1
 27 30  1  0
 28 30  1  0
 29 31  2  0
 29 32  1  0
M  END
$$$$
O14757_Pocket2Mol_idx-in-all-generaetd-441
     RDKit          3D

 49 57  0  0  0  0  0  0  0  0999 V2000
    5.3420    0.2589   42.8836 O   0  0  0  0  0  0  0  0  0  0  0  0
    5.1627   -0.7554   43.4753 C   0  0  0  0  0  0  0  0  0  0  0  0
    4.0509   -1.4657   43.4177 N   0  0  0  0  0  0  0  0  0  0  0  0
    5.9969   -1.2317   44.6840 C   0  0  0  0  0  0  0  0  0  0  0  0
    2.9618   -1.1021   42.5918 C   0  0  1  0  0  0  0  0  0  0  0  0
    7.3392   -0.8596   44.8412 C   0  0  0  0  0  0  0  0  0  0  0  0
    1.9754   -2.0820   42.2741 C   0  0  0  0  0  0  0  0  0  0  0  0
    5.5910   -2.4282   45.3439 C   0  0  0  0  0  0  0  0  0  0  0  0
    6.5874   -2.9636   46.1581 C   0  0  0  0  0  0  0  0  0  0  0  0
    4.2763   -3.0680   45.0493 N   0  0  0  0  0  0  0  0  0  0  0  0
    3.6188   -2.5886   44.2024 C   0  0  0  0  0  0  0  0  0  0  0  0
    8.1921   -1.4071   45.7505 C   0  0  0  0  0  0  0  0  0  0  0  0
    1.0154   -1.8839   41.2980 C   0  0  0  0  0  0  0  0  0  0  0  0
    2.5720   -3.3564   43.9063 C   0  0  0  0  0  0  0  0  0  0  0  0
    0.2502   -2.8976   41.0751 C   0  0  0  0  0  0  0  0  0  0  0  0
    6.1761   -4.1775   47.0209 C   0  0  0  0  0  0  0  0  0  0  0  0
    1.7266   -3.1047   43.0115 C   0  0  2  0  0  0  0  0  0  0  0  0
    2.3696   -4.5367   44.7536 N   0  0  0  0  0  0  0  0  0  0  0  0
    1.2264   -5.2346   44.4693 C   0  0  0  0  0  0  0  0  0  0  0  0
    0.7187   -3.8955   42.5465 C   0  0  0  0  0  0  0  0  0  0  0  0
    9.4576   -0.8949   46.0327 N   0  0  0  0  0  0  0  0  0  0  0  0
    0.8625   -6.3901   45.2462 C   0  0  0  0  0  0  0  0  0  0  0  0
    7.6467   -2.5139   46.4892 C   0  0  0  0  0  0  0  0  0  0  0  0
   10.4908   -1.5336   45.8242 C   0  0  0  0  0  0  0  0  0  0  0  0
    0.3057   -4.9299   43.2909 C   0  0  0  0  0  0  0  0  0  0  0  0
   11.5916   -1.4291   46.7436 C   0  0  0  0  0  0  0  0  0  0  0  0
   10.5566   -2.3672   44.8649 O   0  0  0  0  0  0  0  0  0  0  0  0
   12.8421   -1.9355   46.2823 C   0  0  0  0  0  0  0  0  0  0  0  0
   13.4833   -2.8582   46.9841 C   0  0  0  0  0  0  0  0  0  0  0  0
   11.4002   -1.1447   48.0540 C   0  0  0  0  0  0  0  0  0  0  0  0
   10.2867   -0.4569   48.4999 O   0  0  0  0  0  0  0  0  0  0  0  0
   12.3327   -1.4798   48.9564 C   0  0  1  0  0  0  0  0  0  0  0  0
   14.7901   -3.3162   46.6439 C   0  0  0  0  0  0  0  0  0  0  0  0
   12.1651   -1.3050   50.3239 O   0  0  0  0  0  0  0  0  0  0  0  0
   15.6765   -2.5740   46.0979 C   0  0  0  0  0  0  0  0  0  0  0  0
    2.4608    0.2106   42.8512 C   0  0  0  0  0  0  0  0  0  0  0  0
   15.5213   -1.2590   45.7606 C   0  0  0  0  0  0  0  0  0  0  0  0
   14.5349   -0.8899   44.8574 C   0  0  0  0  0  0  0  0  0  0  0  0
   12.9775   -3.3460   48.2127 C   0  0  0  0  0  0  0  0  0  0  0  0
   14.7129   -0.1943   43.8652 C   0  0  0  0  0  0  0  0  0  0  0  0
   13.1163   -1.3789   45.0490 O   0  0  0  0  0  0  0  0  0  0  0  0
   16.0442    0.3600   43.7609 C   0  0  0  0  0  0  0  0  0  0  0  0
   16.1715    1.3518   42.5787 C   0  0  0  0  0  0  0  0  0  0  0  0
   12.7697   -2.7291   49.2346 C   0  0  0  0  0  0  0  0  0  0  0  0
   15.1549    1.8289   42.1413 C   0  0  0  0  0  0  0  0  0  0  0  0
   13.8305    1.3655   42.6305 C   0  0  0  0  0  0  0  0  0  0  0  0
   16.8072   -0.7175   45.4469 C   0  0  0  0  0  0  0  0  0  0  0  0
   16.9009    0.2265   44.4443 C   0  0  0  0  0  0  0  0  0  0  0  0
   13.5936    0.5557   43.3581 C   0  0  0  0  0  0  0  0  0  0  0  0
  1  2  2  0
  2  3  1  0
  2  4  1  0
  3  5  1  0
  4  6  2  0
  5  7  1  0
  4  8  1  0
  8  9  2  0
  8 10  1  0
  3 11  1  0
 10 11  2  0
  6 12  1  0
  7 13  2  0
 11 14  1  0
 13 15  1  0
  9 16  1  0
 17  7  1  6
 14 17  1  0
 14 18  2  0
 18 19  1  0
 15 20  2  0
 17 20  1  0
 12 21  1  0
 19 22  1  0
  9 23  1  0
 12 23  2  0
 21 24  1  0
 19 25  2  0
 20 25  1  0
 24 26  1  0
 24 27  2  0
 26 28  1  0
 28 29  2  0
 26 30  2  0
 30 31  1  0
 30 32  1  0
 29 33  1  0
 32 34  1  1
 33 35  2  0
  5 36  1  1
 35 37  1  0
 37 38  2  0
 29 39  1  0
 38 40  1  0
 28 41  1  0
 38 41  1  0
 40 42  2  0
 42 43  1  0
 32 44  1  0
 39 44  1  0
 43 45  2  0
 45 46  1  0
 37 47  1  0
 42 48  1  0
 47 48  2  0
 40 49  1  0
 46 49  2  0
M  END
$$$$
O14757_Pocket2Mol_idx-in-all-generaetd-442
     RDKit          3D

 21 23  0  0  0  0  0  0  0  0999 V2000
    5.3420    0.2589   42.8836 N   0  0  0  0  0  0  0  0  0  0  0  0
    5.6740   -0.8311   43.5645 C   0  0  0  0  0  0  0  0  0  0  0  0
    3.9899   -0.0458   42.5141 N   0  0  0  0  0  0  0  0  0  0  0  0
    4.6606   -1.7163   43.6337 C   0  0  0  0  0  0  0  0  0  0  0  0
    3.6244   -1.2025   42.8928 C   0  0  0  0  0  0  0  0  0  0  0  0
    2.3780   -1.7713   42.6359 C   0  0  0  0  0  0  0  0  0  0  0  0
    4.5721   -3.0267   44.2590 C   0  0  0  0  0  0  0  0  0  0  0  0
    1.3110   -1.1954   41.9273 C   0  0  0  0  0  0  0  0  0  0  0  0
    2.2543   -3.0870   43.2441 C   0  0  0  0  0  0  0  0  0  0  0  0
    6.9740   -1.0607   44.3429 C   0  0  0  0  0  0  0  0  0  0  0  0
    7.0610   -1.7818   45.5894 C   0  0  0  0  0  0  0  0  0  0  0  0
    1.1168   -3.8699   43.0019 N   0  0  0  0  0  0  0  0  0  0  0  0
    0.2325   -3.4883   42.1009 C   0  0  0  0  0  0  0  0  0  0  0  0
    8.2535   -1.6908   46.3200 C   0  0  0  0  0  0  0  0  0  0  0  0
    1.1565   -5.2166   43.5264 C   0  0  0  0  0  0  0  0  0  0  0  0
    3.2621   -3.7763   44.1078 C   0  0  0  0  0  0  0  0  0  0  0  0
    0.2386   -2.0801   41.7164 C   0  0  0  0  0  0  0  0  0  0  0  0
   -0.7223   -4.1693   41.7949 O   0  0  0  0  0  0  0  0  0  0  0  0
    8.7747   -0.6001   46.6466 O   0  0  0  0  0  0  0  0  0  0  0  0
    8.6964   -2.8362   46.8852 O   0  0  0  0  0  0  0  0  0  0  0  0
    9.9405   -3.0191   47.2040 C   0  0  0  0  0  0  0  0  0  0  0  0
  1  2  2  0
  1  3  1  0
  2  4  1  0
  3  5  1  0
  4  5  2  0
  5  6  1  0
  4  7  1  0
  6  8  1  0
  6  9  2  0
  2 10  1  0
 10 11  1  0
  9 12  1  0
 12 13  1  0
 11 14  1  0
 12 15  1  0
  7 16  2  0
  9 16  1  0
  8 17  2  0
 13 17  1  0
 13 18  2  0
 14 19  2  0
 14 20  1  0
 20 21  1  0
M  END
$$$$
O14757_Pocket2Mol_idx-in-all-generaetd-443
     RDKit          3D

 48 57  0  0  0  0  0  0  0  0999 V2000
    1.5482   -0.3111   41.9233 C   0  0  0  0  0  0  0  0  0  0  0  0
    2.7284    0.2018   42.1525 N   0  0  0  0  0  0  0  0  0  0  0  0
    3.7893   -0.3016   42.7005 C   0  0  0  0  0  0  0  0  0  0  0  0
    3.3781   -1.7350   43.0000 C   0  0  0  0  0  0  0  0  0  0  0  0
    2.0339   -1.9619   42.6217 C   0  0  0  0  0  0  0  0  0  0  0  0
    5.0090    0.1219   42.9340 N   0  0  0  0  0  0  0  0  0  0  0  0
    4.2895   -2.4979   43.6707 C   0  0  0  0  0  0  0  0  0  0  0  0
    5.8391   -0.6675   43.6343 C   0  0  0  0  0  0  0  0  0  0  0  0
    6.9849   -0.2377   44.0028 N   0  0  0  0  0  0  0  0  0  0  0  0
    4.0426   -3.8794   44.0832 C   0  0  0  0  0  0  0  0  0  0  0  0
    7.6796   -0.8734   44.9326 C   0  0  0  0  0  0  0  0  0  0  0  0
    1.1064   -2.9576   42.4211 C   0  0  0  0  0  0  0  0  0  0  0  0
    5.5298   -1.9496   44.0315 C   0  0  0  0  0  0  0  0  0  0  0  0
    3.8954   -4.1817   45.4718 C   0  0  0  0  0  0  0  0  0  0  0  0
    0.6765   -3.5480   43.4006 C   0  0  1  0  0  0  0  0  0  0  0  0
    0.5804   -3.2191   41.1635 C   0  0  0  0  0  0  0  0  0  0  0  0
    2.8083   -4.8227   45.9203 N   0  0  0  0  0  0  0  0  0  0  0  0
   -0.1574   -4.5754   42.9329 N   0  0  0  0  0  0  0  0  0  0  0  0
    6.5271   -2.5531   44.9677 C   0  0  0  0  0  0  0  0  0  0  0  0
   -0.2272   -4.3703   41.5137 C   0  0  0  0  0  0  0  0  0  0  0  0
    7.5095   -2.0029   45.3993 C   0  0  0  0  0  0  0  0  0  0  0  0
    8.2550   -2.6982   46.3988 C   0  0  1  0  0  0  0  0  0  0  0  0
    8.8975   -0.3029   45.3267 O   0  0  0  0  0  0  0  0  0  0  0  0
    4.8299   -4.4637   46.4212 C   0  0  0  0  0  0  0  0  0  0  0  0
    4.2707   -4.9248   47.6295 N   0  0  0  0  0  0  0  0  0  0  0  0
    3.2045   -5.2092   47.1521 C   0  0  0  0  0  0  0  0  0  0  0  0
    1.4482   -4.6186   45.4134 C   0  0  0  0  0  0  0  0  0  0  0  0
    1.3256   -3.7660   44.6394 N   0  0  0  0  0  0  0  0  0  0  0  0
    9.2816   -2.1418   47.1273 N   0  0  0  0  0  0  0  0  0  0  0  0
   10.0629   -3.1324   47.8508 C   0  0  0  0  0  0  0  0  0  0  0  0
    6.3491   -3.8960   46.0844 C   0  0  2  0  0  0  0  0  0  0  0  0
    7.4349   -3.5889   46.9054 C   0  0  0  0  0  0  0  0  0  0  0  0
   10.3145   -2.7271   49.0818 O   0  0  0  0  0  0  0  0  0  0  0  0
    0.6213   -5.4445   45.7455 O   0  0  0  0  0  0  0  0  0  0  0  0
   11.0262   -3.8136   47.1050 C   0  0  0  0  0  0  0  0  0  0  0  0
   12.1704   -3.3854   46.7547 C   0  0  0  0  0  0  0  0  0  0  0  0
   13.1080   -4.1111   46.0053 C   0  0  0  0  0  0  0  0  0  0  0  0
   14.3489   -3.5966   45.7888 C   0  0  0  0  0  0  0  0  0  0  0  0
   12.7430   -5.2725   45.5056 C   0  0  0  0  0  0  0  0  0  0  0  0
   10.8315   -5.3520   46.8908 C   0  0  0  0  0  0  0  0  0  0  0  0
   11.5834   -5.8795   45.9965 C   0  0  0  0  0  0  0  0  0  0  0  0
   14.5673   -2.2844   45.3294 C   0  0  0  0  0  0  0  0  0  0  0  0
   15.6990   -1.9377   44.9307 C   0  0  0  0  0  0  0  0  0  0  0  0
   15.9777   -0.5351   44.4220 C   0  0  0  0  0  0  0  0  0  0  0  0
   15.4694   -4.3459   45.9452 C   0  0  0  0  0  0  0  0  0  0  0  0
   16.9310   -2.5950   45.1224 C   0  0  0  0  0  0  0  0  0  0  0  0
   18.1504   -2.1679   44.7585 O   0  0  0  0  0  0  0  0  0  0  0  0
   16.8777   -3.8841   45.6213 C   0  0  0  0  0  0  0  0  0  0  0  0
  1  2  1  0
  2  3  2  0
  3  4  1  0
  1  5  2  0
  4  5  1  0
  3  6  1  0
  4  7  2  0
  6  8  1  0
  8  9  1  0
  7 10  1  0
  9 11  1  0
  5 12  1  0
  7 13  1  0
  8 13  2  0
 10 14  1  0
 12 15  1  0
 12 16  2  0
 14 17  1  0
 15 18  1  0
 13 19  1  0
 16 20  1  0
 18 20  2  0
 11 21  1  0
 19 21  2  0
 21 22  1  0
 11 23  2  0
 14 24  2  0
 24 25  1  0
 17 26  1  0
 25 26  2  0
 17 27  1  0
 15 28  1  6
 27 28  1  0
 22 29  1  1
 29 30  1  0
 19 31  1  0
 24 31  1  0
 22 32  1  0
 31 32  1  1
 30 33  2  0
 27 34  2  0
 30 35  1  0
 35 36  2  0
 36 37  1  0
 37 38  1  0
 37 39  2  0
 35 40  1  0
 39 41  1  0
 40 41  2  0
 38 42  2  0
 42 43  1  0
 43 44  1  0
 38 45  1  0
 43 46  2  0
 46 47  1  0
 45 48  2  0
 46 48  1  0
M  END
$$$$
O14757_Pocket2Mol_idx-in-all-generaetd-444
     RDKit          3D

 30 34  0  0  0  0  0  0  0  0999 V2000
    1.5482   -0.3111   41.9233 C   0  0  0  0  0  0  0  0  0  0  0  0
    2.7284    0.2018   42.1525 N   0  0  0  0  0  0  0  0  0  0  0  0
    3.7893   -0.3016   42.7005 C   0  0  0  0  0  0  0  0  0  0  0  0
    3.3781   -1.7350   43.0000 C   0  0  0  0  0  0  0  0  0  0  0  0
    2.0339   -1.9619   42.6217 C   0  0  0  0  0  0  0  0  0  0  0  0
    4.1166   -2.4997   43.8458 C   0  0  0  0  0  0  0  0  0  0  0  0
    1.1731   -3.0051   42.5773 C   0  0  0  0  0  0  0  0  0  0  0  0
    0.4701   -3.2344   41.4901 C   0  0  0  0  0  0  0  0  0  0  0  0
    5.3799   -1.7814   44.2691 C   0  0  0  0  0  0  0  0  0  0  0  0
    5.0159   -0.0180   43.1201 N   0  0  0  0  0  0  0  0  0  0  0  0
    5.7693   -0.6937   43.8418 C   0  0  0  0  0  0  0  0  0  0  0  0
    0.8078   -3.6166   43.6782 C   0  0  0  0  0  0  0  0  0  0  0  0
    0.0663   -4.7011   43.7415 N   0  0  0  0  0  0  0  0  0  0  0  0
    6.2223   -2.6843   45.1565 C   0  0  0  0  0  0  0  0  0  0  0  0
    6.9599   -0.2351   44.2608 N   0  0  0  0  0  0  0  0  0  0  0  0
    5.9065   -3.9037   45.7499 N   0  0  0  0  0  0  0  0  0  0  0  0
   -0.5459   -5.1185   42.5870 C   0  0  0  0  0  0  0  0  0  0  0  0
    5.7480   -4.0340   46.9810 C   0  0  0  0  0  0  0  0  0  0  0  0
    7.4448   -1.8511   45.4198 C   0  0  0  0  0  0  0  0  0  0  0  0
    7.7572   -0.7827   45.0128 C   0  0  0  0  0  0  0  0  0  0  0  0
    8.4076   -2.7217   46.4541 C   0  0  0  0  0  0  0  0  0  0  0  0
    9.3167   -2.0988   47.1049 N   0  0  0  0  0  0  0  0  0  0  0  0
   -0.4719   -4.3893   41.5406 C   0  0  0  0  0  0  0  0  0  0  0  0
    8.3667   -4.0284   46.5743 N   0  0  0  0  0  0  0  0  0  0  0  0
   10.1532   -2.5726   47.9567 C   0  0  0  0  0  0  0  0  0  0  0  0
    7.1666   -4.7114   47.2915 C   0  0  0  0  0  0  0  0  0  0  0  0
   11.4560   -2.5376   47.5873 C   0  0  0  0  0  0  0  0  0  0  0  0
   11.8152   -3.5493   46.6694 C   0  0  0  0  0  0  0  0  0  0  0  0
   12.7174   -3.2253   45.6793 O   0  0  0  0  0  0  0  0  0  0  0  0
   11.6566   -4.8263   46.7281 O   0  0  0  0  0  0  0  0  0  0  0  0
  1  2  1  0
  2  3  2  0
  3  4  1  0
  1  5  2  0
  4  5  1  0
  4  6  2  0
  5  7  1  0
  7  8  2  0
  6  9  1  0
  3 10  1  0
  9 11  2  0
 10 11  1  0
  7 12  1  0
 12 13  2  0
  9 14  1  0
 11 15  1  0
 14 16  1  0
 13 17  1  0
 16 18  1  0
 14 19  2  0
 15 20  2  0
 19 20  1  0
 19 21  1  0
 21 22  2  3
  8 23  1  0
 17 23  2  0
 21 24  1  0
 22 25  1  0
 18 26  1  0
 24 26  1  0
 25 27  1  0
 27 28  1  0
 28 29  2  0
 28 30  1  0
M  END
$$$$
O14757_Pocket2Mol_idx-in-all-generaetd-445
     RDKit          3D

 46 52  0  0  0  0  0  0  0  0999 V2000
    5.3420    0.2589   42.8836 O   0  0  0  0  0  0  0  0  0  0  0  0
    5.1627   -0.7554   43.4753 C   0  0  0  0  0  0  0  0  0  0  0  0
    4.0509   -1.4657   43.4177 N   0  0  0  0  0  0  0  0  0  0  0  0
    5.9969   -1.2317   44.6840 C   0  0  0  0  0  0  0  0  0  0  0  0
    2.9618   -1.1021   42.5918 C   0  0  1  0  0  0  0  0  0  0  0  0
    7.3392   -0.8596   44.8412 C   0  0  0  0  0  0  0  0  0  0  0  0
    1.9754   -2.0820   42.2741 C   0  0  0  0  0  0  0  0  0  0  0  0
    5.5910   -2.4282   45.3439 C   0  0  0  0  0  0  0  0  0  0  0  0
    6.5874   -2.9636   46.1581 C   0  0  0  0  0  0  0  0  0  0  0  0
    4.2763   -3.0680   45.0493 N   0  0  0  0  0  0  0  0  0  0  0  0
    3.6188   -2.5886   44.2024 C   0  0  0  0  0  0  0  0  0  0  0  0
    8.1921   -1.4071   45.7505 C   0  0  0  0  0  0  0  0  0  0  0  0
    1.0154   -1.8839   41.2980 C   0  0  0  0  0  0  0  0  0  0  0  0
    2.5720   -3.3564   43.9063 C   0  0  0  0  0  0  0  0  0  0  0  0
    0.2502   -2.8976   41.0751 C   0  0  0  0  0  0  0  0  0  0  0  0
    6.1761   -4.1775   47.0209 C   0  0  0  0  0  0  0  0  0  0  0  0
    1.7266   -3.1047   43.0115 C   0  0  2  0  0  0  0  0  0  0  0  0
    2.3696   -4.5367   44.7536 N   0  0  0  0  0  0  0  0  0  0  0  0
    1.2264   -5.2346   44.4693 C   0  0  0  0  0  0  0  0  0  0  0  0
    0.7187   -3.8955   42.5465 C   0  0  0  0  0  0  0  0  0  0  0  0
    9.4576   -0.8949   46.0327 N   0  0  0  0  0  0  0  0  0  0  0  0
    0.8625   -6.3901   45.2462 C   0  0  0  0  0  0  0  0  0  0  0  0
    7.6467   -2.5139   46.4892 C   0  0  0  0  0  0  0  0  0  0  0  0
   10.4908   -1.5336   45.8242 C   0  0  0  0  0  0  0  0  0  0  0  0
    0.3057   -4.9299   43.2909 C   0  0  0  0  0  0  0  0  0  0  0  0
   11.5916   -1.4291   46.7436 C   0  0  0  0  0  0  0  0  0  0  0  0
   10.5566   -2.3672   44.8649 O   0  0  0  0  0  0  0  0  0  0  0  0
   12.8421   -1.9355   46.2823 C   0  0  0  0  0  0  0  0  0  0  0  0
   13.4833   -2.8582   46.9841 C   0  0  0  0  0  0  0  0  0  0  0  0
   11.4002   -1.1447   48.0540 C   0  0  0  0  0  0  0  0  0  0  0  0
   10.2867   -0.4569   48.4999 O   0  0  0  0  0  0  0  0  0  0  0  0
   12.3327   -1.4798   48.9564 C   0  0  0  0  0  0  0  0  0  0  0  0
   14.7901   -3.3162   46.6439 C   0  0  0  0  0  0  0  0  0  0  0  0
   12.1651   -1.3050   50.3239 O   0  0  0  0  0  0  0  0  0  0  0  0
   15.6765   -2.5740   46.0979 C   0  0  0  0  0  0  0  0  0  0  0  0
   13.4417   -2.4710   48.5369 C   0  0  0  0  0  0  0  0  0  0  0  0
   15.5553   -1.2853   45.8338 C   0  0  0  0  0  0  0  0  0  0  0  0
   15.4119   -0.8806   44.5116 C   0  0  0  0  0  0  0  0  0  0  0  0
   15.4231    0.5245   44.1215 C   0  0  0  0  0  0  0  0  0  0  0  0
    2.4635    0.2112   42.8525 C   0  0  0  0  0  0  0  0  0  0  0  0
   15.1051    1.3384   44.9492 C   0  0  0  0  0  0  0  0  0  0  0  0
   14.8723    2.7962   44.5534 C   0  0  0  0  0  0  0  0  0  0  0  0
   16.1745   -0.1562   46.4809 C   0  0  0  0  0  0  0  0  0  0  0  0
   16.5190   -0.4117   47.9235 O   0  0  0  0  0  0  0  0  0  0  0  0
   15.7758    1.1521   46.2237 C   0  0  0  0  0  0  0  0  0  0  0  0
   13.4826    2.8476   44.2200 O   0  0  0  0  0  0  0  0  0  0  0  0
  1  2  2  0
  2  3  1  0
  2  4  1  0
  3  5  1  0
  4  6  2  0
  5  7  1  0
  4  8  1  0
  8  9  2  0
  8 10  1  0
  3 11  1  0
 10 11  2  0
  6 12  1  0
  7 13  2  0
 11 14  1  0
 13 15  1  0
  9 16  1  0
 17  7  1  6
 14 17  1  0
 14 18  2  0
 18 19  1  0
 15 20  2  0
 17 20  1  0
 12 21  1  0
 19 22  1  0
  9 23  1  0
 12 23  2  0
 21 24  1  0
 19 25  2  0
 20 25  1  0
 24 26  1  0
 24 27  2  0
 26 28  2  0
 28 29  1  0
 26 30  1  0
 30 31  1  0
 30 32  2  0
 29 33  1  0
 32 34  1  0
 33 35  2  3
 29 36  2  0
 32 36  1  0
 35 37  1  0
 37 38  2  0
 38 39  1  0
  5 40  1  1
 39 41  2  0
 41 42  1  0
 37 43  1  0
 43 44  1  0
 41 45  1  0
 43 45  2  0
 42 46  1  0
M  END
$$$$
O14757_Pocket2Mol_idx-in-all-generaetd-446
     RDKit          3D

 25 28  0  0  0  0  0  0  0  0999 V2000
    5.3420    0.2589   42.8836 O   0  0  0  0  0  0  0  0  0  0  0  0
    5.1627   -0.7554   43.4753 C   0  0  0  0  0  0  0  0  0  0  0  0
    4.0509   -1.4657   43.4177 N   0  0  0  0  0  0  0  0  0  0  0  0
    5.9969   -1.2317   44.6840 C   0  0  0  0  0  0  0  0  0  0  0  0
    2.9618   -1.1021   42.5918 C   0  0  0  0  0  0  0  0  0  0  0  0
    7.3392   -0.8596   44.8412 C   0  0  0  0  0  0  0  0  0  0  0  0
    1.9754   -2.0820   42.2741 C   0  0  0  0  0  0  0  0  0  0  0  0
    5.5910   -2.4282   45.3439 C   0  0  0  0  0  0  0  0  0  0  0  0
    6.5874   -2.9636   46.1581 C   0  0  0  0  0  0  0  0  0  0  0  0
    4.2763   -3.0680   45.0493 N   0  0  0  0  0  0  0  0  0  0  0  0
    3.6188   -2.5886   44.2024 C   0  0  0  0  0  0  0  0  0  0  0  0
    8.1921   -1.4071   45.7505 C   0  0  0  0  0  0  0  0  0  0  0  0
    1.0154   -1.8839   41.2980 C   0  0  0  0  0  0  0  0  0  0  0  0
    2.5720   -3.3564   43.9063 C   0  0  0  0  0  0  0  0  0  0  0  0
    0.2502   -2.8976   41.0751 C   0  0  0  0  0  0  0  0  0  0  0  0
    0.2230   -3.9124   42.0516 C   0  0  0  0  0  0  0  0  0  0  0  0
    7.8421   -2.5100   46.4973 C   0  0  0  0  0  0  0  0  0  0  0  0
    2.9880    0.0061   42.0124 O   0  0  0  0  0  0  0  0  0  0  0  0
    1.6964   -3.2441   42.9748 C   0  0  0  0  0  0  0  0  0  0  0  0
    8.6383   -3.0554   47.3633 O   0  0  0  0  0  0  0  0  0  0  0  0
    9.5930   -2.3344   47.9414 C   0  0  0  0  0  0  0  0  0  0  0  0
   10.7859   -2.4195   47.2748 C   0  0  0  0  0  0  0  0  0  0  0  0
   11.4401   -3.3741   47.0965 O   0  0  0  0  0  0  0  0  0  0  0  0
   11.4229   -1.1708   46.9978 O   0  0  0  0  0  0  0  0  0  0  0  0
   12.5742   -0.8932   47.4736 C   0  0  0  0  0  0  0  0  0  0  0  0
  1  2  2  0
  2  3  1  0
  2  4  1  0
  3  5  1  0
  4  6  2  0
  5  7  1  0
  4  8  1  0
  8  9  2  0
  8 10  1  0
  3 11  1  0
 10 11  2  0
  6 12  1  0
  7 13  2  0
 11 14  1  0
 13 15  1  0
 15 16  2  0
  9 17  1  0
 12 17  2  0
  5 18  2  0
  7 19  1  0
 14 19  2  0
 16 19  1  0
 17 20  1  0
 20 21  1  0
 21 22  1  0
 22 23  2  0
 22 24  1  0
 24 25  1  0
M  END
$$$$
O14757_Pocket2Mol_idx-in-all-generaetd-447
     RDKit          3D

 50 59  0  0  0  0  0  0  0  0999 V2000
    1.5482   -0.3111   41.9233 C   0  0  0  0  0  0  0  0  0  0  0  0
    2.7284    0.2018   42.1525 N   0  0  0  0  0  0  0  0  0  0  0  0
    3.7893   -0.3016   42.7005 C   0  0  0  0  0  0  0  0  0  0  0  0
    3.3781   -1.7350   43.0000 C   0  0  0  0  0  0  0  0  0  0  0  0
    2.0339   -1.9619   42.6217 C   0  0  0  0  0  0  0  0  0  0  0  0
    5.0090    0.1219   42.9340 N   0  0  0  0  0  0  0  0  0  0  0  0
    4.2895   -2.4979   43.6707 C   0  0  0  0  0  0  0  0  0  0  0  0
    5.8391   -0.6675   43.6343 C   0  0  0  0  0  0  0  0  0  0  0  0
    6.9849   -0.2377   44.0028 N   0  0  0  0  0  0  0  0  0  0  0  0
    4.0426   -3.8794   44.0832 C   0  0  0  0  0  0  0  0  0  0  0  0
    7.6796   -0.8734   44.9326 C   0  0  0  0  0  0  0  0  0  0  0  0
    1.1064   -2.9576   42.4211 C   0  0  0  0  0  0  0  0  0  0  0  0
    5.5298   -1.9496   44.0315 C   0  0  0  0  0  0  0  0  0  0  0  0
    3.8954   -4.1817   45.4718 C   0  0  0  0  0  0  0  0  0  0  0  0
    0.6765   -3.5480   43.4006 C   0  0  1  0  0  0  0  0  0  0  0  0
    0.5804   -3.2191   41.1635 C   0  0  0  0  0  0  0  0  0  0  0  0
    2.8083   -4.8227   45.9203 N   0  0  0  0  0  0  0  0  0  0  0  0
   -0.1574   -4.5754   42.9329 N   0  0  0  0  0  0  0  0  0  0  0  0
    6.5271   -2.5531   44.9677 C   0  0  0  0  0  0  0  0  0  0  0  0
   -0.2272   -4.3703   41.5137 C   0  0  0  0  0  0  0  0  0  0  0  0
    7.5095   -2.0029   45.3993 C   0  0  0  0  0  0  0  0  0  0  0  0
    8.2550   -2.6982   46.3988 C   0  0  0  0  0  0  0  0  0  0  0  0
    8.8975   -0.3029   45.3267 O   0  0  0  0  0  0  0  0  0  0  0  0
    4.8299   -4.4637   46.4212 C   0  0  0  0  0  0  0  0  0  0  0  0
    4.2707   -4.9248   47.6295 N   0  0  0  0  0  0  0  0  0  0  0  0
    3.2045   -5.2092   47.1521 C   0  0  0  0  0  0  0  0  0  0  0  0
    1.4482   -4.6186   45.4134 C   0  0  1  0  0  0  0  0  0  0  0  0
    1.2398   -3.5043   44.6236 O   0  0  0  0  0  0  0  0  0  0  0  0
    7.8521   -3.9584   46.8773 C   0  0  0  0  0  0  0  0  0  0  0  0
    8.4079   -4.7553   47.7407 C   0  0  0  0  0  0  0  0  0  0  0  0
    5.9516   -3.8110   45.9146 C   0  0  0  0  0  0  0  0  0  0  0  0
    6.6436   -4.3892   46.6649 C   0  0  0  0  0  0  0  0  0  0  0  0
    9.5111   -5.5246   47.2994 O   0  0  0  0  0  0  0  0  0  0  0  0
   10.6238   -5.0197   46.8534 C   0  0  0  0  0  0  0  0  0  0  0  0
   11.5866   -4.7361   47.6189 C   0  0  0  0  0  0  0  0  0  0  0  0
    1.2153   -5.7944   44.5753 C   0  0  0  0  0  0  0  0  0  0  0  0
   10.7023   -4.6532   45.4361 C   0  0  0  0  0  0  0  0  0  0  0  0
   12.8078   -4.2193   47.0828 C   0  0  0  0  0  0  0  0  0  0  0  0
   11.7380   -4.2754   44.9534 C   0  0  0  0  0  0  0  0  0  0  0  0
   12.8684   -3.9910   45.7319 C   0  0  0  0  0  0  0  0  0  0  0  0
   14.2116   -3.3329   45.2244 C   0  0  0  0  0  0  0  0  0  0  0  0
   14.0022   -2.1177   44.7208 C   0  0  0  0  0  0  0  0  0  0  0  0
   15.0837   -1.5164   44.2726 C   0  0  0  0  0  0  0  0  0  0  0  0
   15.3109   -3.8707   45.4449 C   0  0  0  0  0  0  0  0  0  0  0  0
   15.5305   -5.1460   46.0716 O   0  0  0  0  0  0  0  0  0  0  0  0
   14.9448   -0.1315   43.6082 C   0  0  0  0  0  0  0  0  0  0  0  0
   13.8106    0.1109   43.1213 O   0  0  0  0  0  0  0  0  0  0  0  0
   16.3649   -2.0988   44.4534 C   0  0  0  0  0  0  0  0  0  0  0  0
   16.4767   -3.1637   45.0145 C   0  0  0  0  0  0  0  0  0  0  0  0
   15.7286    0.7695   43.8950 O   0  0  0  0  0  0  0  0  0  0  0  0
  1  2  1  0
  2  3  2  0
  3  4  1  0
  1  5  2  0
  4  5  1  0
  3  6  1  0
  4  7  2  0
  6  8  1  0
  8  9  1  0
  7 10  1  0
  9 11  1  0
  5 12  1  0
  7 13  1  0
  8 13  2  0
 10 14  1  0
 12 15  1  0
 12 16  2  0
 14 17  1  0
 15 18  1  0
 13 19  1  0
 16 20  1  0
 18 20  2  0
 11 21  1  0
 19 21  2  0
 21 22  1  0
 11 23  2  0
 14 24  2  0
 24 25  1  0
 17 26  1  0
 25 26  2  0
 17 27  1  0
 15 28  1  6
 27 28  1  0
 22 29  2  0
 29 30  1  0
 19 31  1  0
 24 31  1  0
 29 32  1  0
 31 32  2  0
 30 33  1  0
 33 34  1  0
 34 35  2  0
 27 36  1  6
 34 37  1  0
 35 38  1  0
 37 39  2  0
 38 40  2  0
 39 40  1  0
 40 41  1  0
 41 42  2  0
 42 43  1  0
 41 44  1  0
 44 45  1  0
 43 46  1  0
 46 47  2  0
 43 48  2  0
 44 49  2  0
 48 49  1  0
 46 50  1  0
M  END
$$$$
O14757_Pocket2Mol_idx-in-all-generaetd-448
     RDKit          3D

 33 36  0  0  0  0  0  0  0  0999 V2000
    4.5142    0.3543   42.7132 N   0  0  0  0  0  0  0  0  0  0  0  0
    3.5107   -0.4860   42.6298 C   0  0  0  0  0  0  0  0  0  0  0  0
    3.5891   -1.7637   43.2512 N   0  0  0  0  0  0  0  0  0  0  0  0
    5.5470   -0.0112   43.3539 C   0  0  0  0  0  0  0  0  0  0  0  0
    2.1469   -0.1899   41.9512 C   0  0  0  0  0  0  0  0  0  0  0  0
    4.6725   -2.0734   43.8606 C   0  0  0  0  0  0  0  0  0  0  0  0
    5.7749   -1.1829   43.9325 C   0  0  0  0  0  0  0  0  0  0  0  0
    4.7150   -3.3068   44.6440 C   0  0  0  0  0  0  0  0  0  0  0  0
    6.9086   -1.5797   44.6919 C   0  0  0  0  0  0  0  0  0  0  0  0
    3.5691   -4.2517   44.6407 C   0  0  0  0  0  0  0  0  0  0  0  0
    2.3573   -4.0060   44.5430 C   0  0  0  0  0  0  0  0  0  0  0  0
    6.9170   -2.8018   45.4663 C   0  0  0  0  0  0  0  0  0  0  0  0
    5.8006   -3.6152   45.4297 C   0  0  0  0  0  0  0  0  0  0  0  0
    8.0903   -3.1108   46.2193 C   0  0  0  0  0  0  0  0  0  0  0  0
    4.0064   -5.4798   44.1304 O   0  0  0  0  0  0  0  0  0  0  0  0
    1.3499   -4.4927   43.7488 C   0  0  0  0  0  0  0  0  0  0  0  0
    8.9407   -2.1153   46.7855 N   0  0  0  0  0  0  0  0  0  0  0  0
    9.9131   -2.4307   47.6296 C   0  0  0  0  0  0  0  0  0  0  0  0
    9.9401   -2.1931   48.7722 O   0  0  0  0  0  0  0  0  0  0  0  0
    1.6925   -3.8787   45.7737 C   0  0  0  0  0  0  0  0  0  0  0  0
    0.0956   -4.4506   43.8726 C   0  0  0  0  0  0  0  0  0  0  0  0
   -0.4743   -4.1254   44.9651 C   0  0  0  0  0  0  0  0  0  0  0  0
    0.3478   -3.8227   46.0202 C   0  0  0  0  0  0  0  0  0  0  0  0
   10.9717   -3.3044   47.0291 C   0  0  2  0  0  0  0  0  0  0  0  0
   10.8168   -4.5181   46.8298 C   0  0  0  0  0  0  0  0  0  0  0  0
   12.2889   -2.9891   47.7404 N   0  0  0  0  0  0  0  0  0  0  0  0
   13.0416   -1.8355   47.4586 C   0  0  0  0  0  0  0  0  0  0  0  0
   12.2336   -3.1930   49.1667 C   0  0  0  0  0  0  0  0  0  0  0  0
   11.0242   -5.1627   45.6000 C   0  0  0  0  0  0  0  0  0  0  0  0
   10.3651   -5.5894   47.7228 C   0  0  0  0  0  0  0  0  0  0  0  0
   10.9511   -6.4450   45.2741 C   0  0  0  0  0  0  0  0  0  0  0  0
   10.2304   -6.9421   47.5469 C   0  0  0  0  0  0  0  0  0  0  0  0
   10.4972   -7.3434   46.2697 C   0  0  0  0  0  0  0  0  0  0  0  0
  1  2  2  0
  2  3  1  0
  1  4  1  0
  2  5  1  0
  3  6  2  0
  4  7  2  0
  6  7  1  0
  6  8  1  0
  7  9  1  0
  8 10  1  0
 10 11  1  0
  9 12  2  0
  8 13  2  0
 12 13  1  0
 12 14  1  0
 10 15  2  0
 11 16  2  0
 14 17  1  0
 17 18  1  0
 18 19  2  0
 11 20  1  0
 16 21  1  0
 21 22  2  0
 20 23  2  0
 22 23  1  0
 18 24  1  0
 24 25  1  0
 24 26  1  1
 26 27  1  0
 26 28  1  0
 25 29  2  0
 25 30  1  0
 29 31  1  0
 30 32  2  0
 31 33  2  0
 32 33  1  0
M  END
$$$$
O14757_Pocket2Mol_idx-in-all-generaetd-449
     RDKit          3D

 38 44  0  0  0  0  0  0  0  0999 V2000
    4.5156    0.0550   42.9895 N   0  0  0  0  0  0  0  0  0  0  0  0
    5.0618   -0.8645   43.5295 C   0  0  0  0  0  0  0  0  0  0  0  0
    4.4350   -2.0604   43.7783 C   0  0  0  0  0  0  0  0  0  0  0  0
    4.9987   -3.0994   44.5839 C   0  0  0  0  0  0  0  0  0  0  0  0
    3.2714   -1.8664   43.0632 C   0  0  0  0  0  0  0  0  0  0  0  0
    6.4064   -0.5942   44.3204 N   0  0  0  0  0  0  0  0  0  0  0  0
    4.3422   -4.3256   44.7203 C   0  0  0  0  0  0  0  0  0  0  0  0
    2.1845   -2.6668   42.8270 N   0  0  0  0  0  0  0  0  0  0  0  0
    3.3305   -0.5395   42.5465 N   0  0  0  0  0  0  0  0  0  0  0  0
    1.9502   -3.8972   43.4076 C   0  0  0  0  0  0  0  0  0  0  0  0
    2.7156   -4.1184   44.6954 N   0  0  0  0  0  0  0  0  0  0  0  0
    6.8581   -1.5862   45.1101 C   0  0  0  0  0  0  0  0  0  0  0  0
    6.1801   -2.8430   45.2383 C   0  0  0  0  0  0  0  0  0  0  0  0
    2.1454   -5.1901   45.5771 C   0  0  0  0  0  0  0  0  0  0  0  0
    8.0137   -1.3946   45.8526 C   0  0  0  0  0  0  0  0  0  0  0  0
    0.9733   -4.5725   43.2066 O   0  0  0  0  0  0  0  0  0  0  0  0
    2.2437    0.0035   41.8733 C   0  0  0  0  0  0  0  0  0  0  0  0
    1.3210   -2.2077   41.7009 C   0  0  0  0  0  0  0  0  0  0  0  0
    8.6047   -2.2876   46.6923 C   0  0  0  0  0  0  0  0  0  0  0  0
    7.9141   -3.5157   46.8869 C   0  0  0  0  0  0  0  0  0  0  0  0
    1.0501   -0.8658   41.6612 C   0  0  0  0  0  0  0  0  0  0  0  0
    6.7278   -3.7718   46.2525 C   0  0  0  0  0  0  0  0  0  0  0  0
    9.8280   -2.0492   47.3361 C   0  0  0  0  0  0  0  0  0  0  0  0
    9.8262   -1.5735   48.5432 C   0  0  0  0  0  0  0  0  0  0  0  0
   11.0745   -2.0905   46.6735 C   0  0  0  0  0  0  0  0  0  0  0  0
    8.5798   -1.4294   49.3788 F   0  0  0  0  0  0  0  0  0  0  0  0
   10.9754   -1.2454   49.3173 C   0  0  0  0  0  0  0  0  0  0  0  0
   12.2431   -1.7844   47.3194 C   0  0  0  0  0  0  0  0  0  0  0  0
   12.3027   -1.4029   48.7252 C   0  0  0  0  0  0  0  0  0  0  0  0
   13.5212   -1.8824   46.5853 C   0  0  0  0  0  0  0  0  0  0  0  0
    1.0433   -4.5208   46.3540 C   0  0  0  0  0  0  0  0  0  0  0  0
   13.6066   -1.3002   45.3939 C   0  0  0  0  0  0  0  0  0  0  0  0
   14.5955   -2.4639   47.1696 C   0  0  0  0  0  0  0  0  0  0  0  0
   15.7508   -2.4647   46.2573 C   0  0  0  0  0  0  0  0  0  0  0  0
   16.9135   -3.2079   46.8311 O   0  0  0  0  0  0  0  0  0  0  0  0
   15.8487   -1.9691   45.0735 C   0  0  0  0  0  0  0  0  0  0  0  0
   16.9923   -2.0431   44.3154 O   0  0  0  0  0  0  0  0  0  0  0  0
   14.7018   -1.3200   44.5974 C   0  0  0  0  0  0  0  0  0  0  0  0
  1  2  2  0
  2  3  1  0
  3  4  1  0
  3  5  2  0
  2  6  1  0
  4  7  1  0
  5  8  1  0
  1  9  1  0
  5  9  1  0
  8 10  1  0
  7 11  1  0
 10 11  1  0
  6 12  2  0
  4 13  2  0
 12 13  1  0
 11 14  1  0
 12 15  1  0
 10 16  2  0
  9 17  1  0
  8 18  1  0
 15 19  2  0
 19 20  1  0
 17 21  1  0
 18 21  1  0
 13 22  1  0
 20 22  2  0
 19 23  1  0
 23 24  2  0
 23 25  1  0
 24 26  1  0
 24 27  1  0
 25 28  2  0
 27 29  2  0
 28 29  1  0
 28 30  1  0
 14 31  1  0
 30 32  2  0
 30 33  1  0
 33 34  2  0
 34 35  1  0
 34 36  1  0
 36 37  1  0
 32 38  1  0
 36 38  2  0
M  END
$$$$
O14757_Pocket2Mol_idx-in-all-generaetd-450
     RDKit          3D

 44 52  0  0  0  0  0  0  0  0999 V2000
    1.5482   -0.3111   41.9233 C   0  0  0  0  0  0  0  0  0  0  0  0
    2.7284    0.2018   42.1525 N   0  0  0  0  0  0  0  0  0  0  0  0
    3.7893   -0.3016   42.7005 C   0  0  0  0  0  0  0  0  0  0  0  0
    3.3781   -1.7350   43.0000 C   0  0  0  0  0  0  0  0  0  0  0  0
    2.0339   -1.9619   42.6217 C   0  0  0  0  0  0  0  0  0  0  0  0
    5.0090    0.1219   42.9340 N   0  0  0  0  0  0  0  0  0  0  0  0
    4.2895   -2.4979   43.6707 C   0  0  0  0  0  0  0  0  0  0  0  0
    5.8391   -0.6675   43.6343 C   0  0  0  0  0  0  0  0  0  0  0  0
    6.9849   -0.2377   44.0028 N   0  0  0  0  0  0  0  0  0  0  0  0
    4.0426   -3.8794   44.0832 C   0  0  0  0  0  0  0  0  0  0  0  0
    7.6796   -0.8734   44.9326 C   0  0  0  0  0  0  0  0  0  0  0  0
    1.1064   -2.9576   42.4211 C   0  0  0  0  0  0  0  0  0  0  0  0
    5.5298   -1.9496   44.0315 C   0  0  0  0  0  0  0  0  0  0  0  0
    3.8954   -4.1817   45.4718 C   0  0  0  0  0  0  0  0  0  0  0  0
    0.6765   -3.5480   43.4006 C   0  0  1  0  0  0  0  0  0  0  0  0
    0.5804   -3.2191   41.1635 C   0  0  0  0  0  0  0  0  0  0  0  0
    2.8083   -4.8227   45.9203 N   0  0  0  0  0  0  0  0  0  0  0  0
   -0.1574   -4.5754   42.9329 N   0  0  0  0  0  0  0  0  0  0  0  0
    6.5271   -2.5531   44.9677 C   0  0  0  0  0  0  0  0  0  0  0  0
   -0.2272   -4.3703   41.5137 C   0  0  0  0  0  0  0  0  0  0  0  0
    7.5095   -2.0029   45.3993 C   0  0  0  0  0  0  0  0  0  0  0  0
    8.2550   -2.6982   46.3988 C   0  0  1  0  0  0  0  0  0  0  0  0
    8.8975   -0.3029   45.3267 O   0  0  0  0  0  0  0  0  0  0  0  0
    4.8299   -4.4637   46.4212 C   0  0  0  0  0  0  0  0  0  0  0  0
    4.2707   -4.9248   47.6295 N   0  0  0  0  0  0  0  0  0  0  0  0
    3.2045   -5.2092   47.1521 C   0  0  0  0  0  0  0  0  0  0  0  0
    1.4482   -4.6186   45.4134 C   0  0  0  0  0  0  0  0  0  0  0  0
    1.3256   -3.7660   44.6394 N   0  0  0  0  0  0  0  0  0  0  0  0
    9.2816   -2.1418   47.1273 N   0  0  0  0  0  0  0  0  0  0  0  0
   10.0629   -3.1324   47.8508 C   0  0  0  0  0  0  0  0  0  0  0  0
    6.3491   -3.8960   46.0844 C   0  0  2  0  0  0  0  0  0  0  0  0
    7.4349   -3.5889   46.9054 C   0  0  0  0  0  0  0  0  0  0  0  0
   10.3145   -2.7271   49.0818 O   0  0  0  0  0  0  0  0  0  0  0  0
   11.0221   -3.8171   47.1052 C   0  0  0  0  0  0  0  0  0  0  0  0
    0.8710   -5.7412   45.2074 O   0  0  0  0  0  0  0  0  0  0  0  0
   12.1654   -3.3890   46.7468 C   0  0  0  0  0  0  0  0  0  0  0  0
   10.8862   -5.2442   47.2797 C   0  0  0  0  0  0  0  0  0  0  0  0
   11.6445   -5.8923   46.6301 C   0  0  0  0  0  0  0  0  0  0  0  0
   11.5586   -7.4203   46.6373 O   0  0  0  0  0  0  0  0  0  0  0  0
   12.9082   -5.4386   46.1277 C   0  0  0  0  0  0  0  0  0  0  0  0
   13.8179   -6.2873   45.5731 O   0  0  0  0  0  0  0  0  0  0  0  0
   13.1193   -4.0660   46.1645 C   0  0  0  0  0  0  0  0  0  0  0  0
   10.3471   -7.8754   46.8517 C   0  0  0  0  0  0  0  0  0  0  0  0
   13.5078   -7.5004   45.1863 C   0  0  0  0  0  0  0  0  0  0  0  0
  1  2  1  0
  2  3  2  0
  3  4  1  0
  1  5  2  0
  4  5  1  0
  3  6  1  0
  4  7  2  0
  6  8  1  0
  8  9  1  0
  7 10  1  0
  9 11  1  0
  5 12  1  0
  7 13  1  0
  8 13  2  0
 10 14  1  0
 12 15  1  0
 12 16  2  0
 14 17  1  0
 15 18  1  0
 13 19  1  0
 16 20  1  0
 18 20  2  0
 11 21  1  0
 19 21  2  0
 21 22  1  0
 11 23  2  0
 14 24  2  0
 24 25  1  0
 17 26  1  0
 25 26  2  0
 17 27  1  0
 15 28  1  6
 27 28  1  0
 22 29  1  1
 29 30  1  0
 19 31  1  0
 24 31  1  0
 22 32  1  0
 31 32  1  1
 30 33  2  0
 30 34  1  0
 27 35  2  0
 34 36  2  0
 34 37  1  0
 37 38  2  0
 38 39  1  0
 38 40  1  0
 40 41  1  0
 36 42  1  0
 40 42  2  0
 39 43  1  0
 41 44  1  0
M  END
$$$$
O14757_Pocket2Mol_idx-in-all-generaetd-451
     RDKit          3D

 30 35  0  0  0  0  0  0  0  0999 V2000
    4.5156    0.0550   42.9895 N   0  0  0  0  0  0  0  0  0  0  0  0
    5.0618   -0.8645   43.5295 C   0  0  0  0  0  0  0  0  0  0  0  0
    4.4350   -2.0604   43.7783 C   0  0  0  0  0  0  0  0  0  0  0  0
    4.9987   -3.0994   44.5839 C   0  0  0  0  0  0  0  0  0  0  0  0
    3.2714   -1.8664   43.0632 C   0  0  0  0  0  0  0  0  0  0  0  0
    6.4064   -0.5942   44.3204 N   0  0  0  0  0  0  0  0  0  0  0  0
    4.3422   -4.3256   44.7203 C   0  0  0  0  0  0  0  0  0  0  0  0
    2.1845   -2.6668   42.8270 N   0  0  0  0  0  0  0  0  0  0  0  0
    3.3305   -0.5395   42.5465 N   0  0  0  0  0  0  0  0  0  0  0  0
    1.9502   -3.8972   43.4076 C   0  0  0  0  0  0  0  0  0  0  0  0
    2.7156   -4.1184   44.6954 N   0  0  0  0  0  0  0  0  0  0  0  0
    6.8581   -1.5862   45.1101 C   0  0  0  0  0  0  0  0  0  0  0  0
    6.1801   -2.8430   45.2383 C   0  0  0  0  0  0  0  0  0  0  0  0
    2.1454   -5.1901   45.5771 C   0  0  0  0  0  0  0  0  0  0  0  0
    8.0137   -1.3946   45.8526 C   0  0  0  0  0  0  0  0  0  0  0  0
    0.9733   -4.5725   43.2066 O   0  0  0  0  0  0  0  0  0  0  0  0
    2.2437    0.0035   41.8733 C   0  0  0  0  0  0  0  0  0  0  0  0
    1.3210   -2.2077   41.7009 C   0  0  0  0  0  0  0  0  0  0  0  0
    8.6047   -2.2876   46.6923 C   0  0  0  0  0  0  0  0  0  0  0  0
    7.9141   -3.5157   46.8869 C   0  0  0  0  0  0  0  0  0  0  0  0
    1.0501   -0.8658   41.6612 C   0  0  0  0  0  0  0  0  0  0  0  0
    6.7473   -3.8283   46.2372 C   0  0  0  0  0  0  0  0  0  0  0  0
    1.0568   -4.5170   46.3522 C   0  0  0  0  0  0  0  0  0  0  0  0
    9.8008   -2.0643   47.3760 C   0  0  0  0  0  0  0  0  0  0  0  0
   10.9776   -2.0111   46.7028 N   0  0  0  0  0  0  0  0  0  0  0  0
   12.1432   -1.7842   47.1175 C   0  0  0  0  0  0  0  0  0  0  0  0
   10.8676   -2.6764   45.3153 C   0  0  0  0  0  0  0  0  0  0  0  0
   13.0919   -1.4670   46.1379 C   0  0  0  0  0  0  0  0  0  0  0  0
   13.0750   -2.0945   44.9815 O   0  0  0  0  0  0  0  0  0  0  0  0
   11.9214   -2.0320   44.4548 C   0  0  0  0  0  0  0  0  0  0  0  0
  1  2  2  0
  2  3  1  0
  3  4  1  0
  3  5  2  0
  2  6  1  0
  4  7  1  0
  5  8  1  0
  1  9  1  0
  5  9  1  0
  8 10  1  0
  7 11  1  0
 10 11  1  0
  6 12  2  0
  4 13  2  0
 12 13  1  0
 11 14  1  0
 12 15  1  0
 10 16  2  0
  9 17  1  0
  8 18  1  0
 15 19  2  0
 19 20  1  0
 17 21  1  0
 18 21  1  0
 13 22  1  0
 20 22  2  0
 14 23  1  0
 19 24  1  0
 24 25  1  0
 25 26  1  0
 25 27  1  0
 26 28  1  0
 28 29  1  0
 27 30  1  0
 29 30  1  0
M  END
$$$$
O14757_Pocket2Mol_idx-in-all-generaetd-452
     RDKit          3D

 42 50  0  0  0  0  0  0  0  0999 V2000
    1.5482   -0.3111   41.9233 C   0  0  0  0  0  0  0  0  0  0  0  0
    2.7284    0.2018   42.1525 N   0  0  0  0  0  0  0  0  0  0  0  0
    3.7893   -0.3016   42.7005 C   0  0  0  0  0  0  0  0  0  0  0  0
    3.3781   -1.7350   43.0000 C   0  0  0  0  0  0  0  0  0  0  0  0
    2.0339   -1.9619   42.6217 C   0  0  0  0  0  0  0  0  0  0  0  0
    4.1166   -2.4997   43.8458 C   0  0  0  0  0  0  0  0  0  0  0  0
    1.1731   -3.0051   42.5773 C   0  0  0  0  0  0  0  0  0  0  0  0
    0.4701   -3.2344   41.4901 C   0  0  0  0  0  0  0  0  0  0  0  0
    5.3799   -1.7814   44.2691 C   0  0  0  0  0  0  0  0  0  0  0  0
    5.0159   -0.0180   43.1201 N   0  0  0  0  0  0  0  0  0  0  0  0
    5.7693   -0.6937   43.8418 C   0  0  0  0  0  0  0  0  0  0  0  0
    0.8078   -3.6166   43.6782 C   0  0  0  0  0  0  0  0  0  0  0  0
    0.0663   -4.7011   43.7415 N   0  0  0  0  0  0  0  0  0  0  0  0
    6.2223   -2.6843   45.1565 C   0  0  0  0  0  0  0  0  0  0  0  0
    6.9599   -0.2351   44.2608 N   0  0  0  0  0  0  0  0  0  0  0  0
    5.9065   -3.9037   45.7499 N   0  0  0  0  0  0  0  0  0  0  0  0
   -0.5459   -5.1185   42.5870 C   0  0  0  0  0  0  0  0  0  0  0  0
    5.7480   -4.0340   46.9810 C   0  0  0  0  0  0  0  0  0  0  0  0
    7.4448   -1.8511   45.4198 C   0  0  0  0  0  0  0  0  0  0  0  0
    7.7572   -0.7827   45.0128 C   0  0  0  0  0  0  0  0  0  0  0  0
    8.4076   -2.7217   46.4541 C   0  0  0  0  0  0  0  0  0  0  0  0
    9.3167   -2.0988   47.1049 N   0  0  0  0  0  0  0  0  0  0  0  0
   -0.4719   -4.3893   41.5406 C   0  0  0  0  0  0  0  0  0  0  0  0
    8.3667   -4.0284   46.5743 N   0  0  0  0  0  0  0  0  0  0  0  0
    9.5309   -4.3147   47.3094 C   0  0  0  0  0  0  0  0  0  0  0  0
    5.3113   -3.3789   47.8005 O   0  0  0  0  0  0  0  0  0  0  0  0
    9.9022   -5.6301   47.7684 C   0  0  0  0  0  0  0  0  0  0  0  0
    5.4470   -5.5868   47.2096 C   0  0  0  0  0  0  0  0  0  0  0  0
   11.2254   -5.8679   48.0402 C   0  0  0  0  0  0  0  0  0  0  0  0
    8.9736   -6.6532   47.8548 C   0  0  0  0  0  0  0  0  0  0  0  0
   10.0616   -3.0670   47.6360 C   0  0  0  0  0  0  0  0  0  0  0  0
    7.5566   -6.3564   47.5477 N   0  0  0  0  0  0  0  0  0  0  0  0
    6.4157   -6.1721   48.0913 C   0  0  0  0  0  0  0  0  0  0  0  0
   12.3275   -4.8510   47.9324 C   0  0  1  0  0  0  0  0  0  0  0  0
    9.4585   -7.9662   48.0726 C   0  0  0  0  0  0  0  0  0  0  0  0
   11.5288   -2.7910   48.1740 C   0  0  0  0  0  0  0  0  0  0  0  0
   11.6989   -7.1590   48.3688 C   0  0  0  0  0  0  0  0  0  0  0  0
   12.2755   -3.6526   48.1917 N   0  0  0  0  0  0  0  0  0  0  0  0
   13.0611   -7.4253   48.6753 O   0  0  0  0  0  0  0  0  0  0  0  0
   13.8174   -6.4685   48.1995 C   0  0  0  0  0  0  0  0  0  0  0  0
   13.6809   -5.1683   48.2040 C   0  0  0  0  0  0  0  0  0  0  0  0
   10.7512   -8.1823   48.4435 C   0  0  0  0  0  0  0  0  0  0  0  0
  1  2  1  0
  2  3  2  0
  3  4  1  0
  1  5  2  0
  4  5  1  0
  4  6  2  0
  5  7  1  0
  7  8  2  0
  6  9  1  0
  3 10  1  0
  9 11  2  0
 10 11  1  0
  7 12  1  0
 12 13  2  0
  9 14  1  0
 11 15  1  0
 14 16  1  0
 13 17  1  0
 16 18  1  0
 14 19  2  0
 15 20  2  0
 19 20  1  0
 19 21  1  0
 21 22  2  0
  8 23  1  0
 17 23  2  0
 21 24  1  0
 24 25  1  0
 18 26  2  0
 25 27  1  0
 18 28  1  0
 27 29  2  0
 27 30  1  0
 22 31  1  0
 25 31  2  0
 30 32  1  0
 28 33  1  0
 32 33  1  0
 29 34  1  0
 30 35  2  0
 31 36  1  0
 29 37  1  0
 34 38  1  0
 36 38  2  0
 37 39  1  0
 39 40  1  0
 34 41  1  1
 40 41  1  0
 35 42  1  0
 37 42  2  0
M  END
$$$$
O14757_Pocket2Mol_idx-in-all-generaetd-453
     RDKit          3D

 41 47  0  0  0  0  0  0  0  0999 V2000
    1.5482   -0.3111   41.9233 C   0  0  0  0  0  0  0  0  0  0  0  0
    2.7284    0.2018   42.1525 N   0  0  0  0  0  0  0  0  0  0  0  0
    3.7893   -0.3016   42.7005 C   0  0  0  0  0  0  0  0  0  0  0  0
    3.3781   -1.7350   43.0000 C   0  0  0  0  0  0  0  0  0  0  0  0
    2.0339   -1.9619   42.6217 C   0  0  0  0  0  0  0  0  0  0  0  0
    4.1166   -2.4997   43.8458 C   0  0  0  0  0  0  0  0  0  0  0  0
    1.1731   -3.0051   42.5773 C   0  0  0  0  0  0  0  0  0  0  0  0
    0.4701   -3.2344   41.4901 C   0  0  0  0  0  0  0  0  0  0  0  0
    5.3799   -1.7814   44.2691 C   0  0  0  0  0  0  0  0  0  0  0  0
    5.0159   -0.0180   43.1201 N   0  0  0  0  0  0  0  0  0  0  0  0
    5.7693   -0.6937   43.8418 C   0  0  0  0  0  0  0  0  0  0  0  0
    0.8078   -3.6166   43.6782 C   0  0  0  0  0  0  0  0  0  0  0  0
    0.0663   -4.7011   43.7415 N   0  0  0  0  0  0  0  0  0  0  0  0
    6.2223   -2.6843   45.1565 C   0  0  0  0  0  0  0  0  0  0  0  0
    6.9599   -0.2351   44.2608 N   0  0  0  0  0  0  0  0  0  0  0  0
    5.9065   -3.9037   45.7499 N   0  0  0  0  0  0  0  0  0  0  0  0
   -0.5459   -5.1185   42.5870 C   0  0  0  0  0  0  0  0  0  0  0  0
    5.7480   -4.0340   46.9810 C   0  0  0  0  0  0  0  0  0  0  0  0
    7.4448   -1.8511   45.4198 C   0  0  0  0  0  0  0  0  0  0  0  0
    7.7572   -0.7827   45.0128 C   0  0  0  0  0  0  0  0  0  0  0  0
    8.4076   -2.7217   46.4541 C   0  0  0  0  0  0  0  0  0  0  0  0
    9.3167   -2.0988   47.1049 N   0  0  0  0  0  0  0  0  0  0  0  0
   -0.4719   -4.3893   41.5406 C   0  0  0  0  0  0  0  0  0  0  0  0
    8.3667   -4.0284   46.5743 N   0  0  0  0  0  0  0  0  0  0  0  0
    9.5309   -4.3147   47.3094 C   0  0  0  0  0  0  0  0  0  0  0  0
    5.3113   -3.3789   47.8005 O   0  0  0  0  0  0  0  0  0  0  0  0
    9.9022   -5.6301   47.7684 C   0  0  0  0  0  0  0  0  0  0  0  0
    5.4470   -5.5868   47.2096 C   0  0  0  0  0  0  0  0  0  0  0  0
   11.2254   -5.8679   48.0402 C   0  0  0  0  0  0  0  0  0  0  0  0
    8.9736   -6.6532   47.8548 C   0  0  0  0  0  0  0  0  0  0  0  0
   10.0616   -3.0670   47.6360 C   0  0  0  0  0  0  0  0  0  0  0  0
    7.5566   -6.3564   47.5477 N   0  0  0  0  0  0  0  0  0  0  0  0
    6.4157   -6.1721   48.0913 C   0  0  0  0  0  0  0  0  0  0  0  0
    9.3646   -7.8782   48.1671 C   0  0  0  0  0  0  0  0  0  0  0  0
   12.3073   -4.8526   47.9155 O   0  0  0  0  0  0  0  0  0  0  0  0
    8.3867   -8.9995   48.3228 O   0  0  0  0  0  0  0  0  0  0  0  0
   11.6317   -7.0760   48.3359 C   0  0  0  0  0  0  0  0  0  0  0  0
   12.8193   -4.6830   46.6638 C   0  0  0  0  0  0  0  0  0  0  0  0
   13.0376   -7.4410   48.7000 O   0  0  0  0  0  0  0  0  0  0  0  0
    8.2869   -9.6504   49.4698 C   0  0  0  0  0  0  0  0  0  0  0  0
   10.7552   -8.2453   48.5611 C   0  0  0  0  0  0  0  0  0  0  0  0
  1  2  1  0
  2  3  2  0
  3  4  1  0
  1  5  2  0
  4  5  1  0
  4  6  2  0
  5  7  1  0
  7  8  2  0
  6  9  1  0
  3 10  1  0
  9 11  2  0
 10 11  1  0
  7 12  1  0
 12 13  2  0
  9 14  1  0
 11 15  1  0
 14 16  1  0
 13 17  1  0
 16 18  1  0
 14 19  2  0
 15 20  2  0
 19 20  1  0
 19 21  1  0
 21 22  2  0
  8 23  1  0
 17 23  2  0
 21 24  1  0
 24 25  1  0
 18 26  2  0
 25 27  1  0
 18 28  1  0
 27 29  2  0
 27 30  1  0
 22 31  1  0
 25 31  2  0
 30 32  1  0
 28 33  1  0
 32 33  1  0
 30 34  2  0
 29 35  1  0
 34 36  1  0
 29 37  1  0
 35 38  1  0
 37 39  1  0
 36 40  1  0
 34 41  1  0
 37 41  2  0
M  END
$$$$
O14757_Pocket2Mol_idx-in-all-generaetd-454
     RDKit          3D

 38 46  0  0  0  0  0  0  0  0999 V2000
    4.8037   -0.1366   42.7100 N   0  0  0  0  0  0  0  0  0  0  0  0
    3.6577   -0.7759   42.7186 C   0  0  0  0  0  0  0  0  0  0  0  0
    3.6660   -1.8665   43.4760 C   0  0  0  0  0  0  0  0  0  0  0  0
    2.7271   -2.8718   43.6599 C   0  0  0  0  0  0  0  0  0  0  0  0
    2.4846   -0.2994   42.1254 N   0  0  0  0  0  0  0  0  0  0  0  0
    5.0524   -1.7697   43.9367 C   0  0  0  0  0  0  0  0  0  0  0  0
    1.4917   -2.9000   43.0914 C   0  0  0  0  0  0  0  0  0  0  0  0
    3.1274   -3.9503   44.5163 C   0  0  0  0  0  0  0  0  0  0  0  0
    1.0744   -1.9066   42.1491 C   0  0  2  0  0  0  0  0  0  0  0  0
    5.6624   -0.7003   43.4895 C   0  0  0  0  0  0  0  0  0  0  0  0
    5.5753   -2.5784   45.0324 C   0  0  0  0  0  0  0  0  0  0  0  0
    0.4030   -3.6297   43.4883 N   0  0  0  0  0  0  0  0  0  0  0  0
    1.5052   -0.8077   41.7519 C   0  0  0  0  0  0  0  0  0  0  0  0
   -0.5645   -3.4039   42.5585 N   0  0  0  0  0  0  0  0  0  0  0  0
    2.5059   -5.1012   44.7935 C   0  0  0  0  0  0  0  0  0  0  0  0
    4.4581   -3.8218   45.2947 C   0  0  0  0  0  0  0  0  0  0  0  0
   -0.3089   -2.3979   41.8128 C   0  0  0  0  0  0  0  0  0  0  0  0
    6.6435   -2.6577   45.6991 C   0  0  0  0  0  0  0  0  0  0  0  0
    7.0869   -3.7008   46.4717 C   0  0  0  0  0  0  0  0  0  0  0  0
    7.5912   -1.5296   45.5455 C   0  0  0  0  0  0  0  0  0  0  0  0
    8.7765   -1.4352   46.2248 C   0  0  0  0  0  0  0  0  0  0  0  0
    6.3069   -4.7944   46.6836 O   0  0  0  0  0  0  0  0  0  0  0  0
    4.8984   -4.5252   46.1302 C   0  0  0  0  0  0  0  0  0  0  0  0
    4.2122   -5.9932   46.2216 C   0  0  0  0  0  0  0  0  0  0  0  0
    3.0046   -6.0549   45.6421 C   0  0  0  0  0  0  0  0  0  0  0  0
    8.2374   -3.8078   47.1146 C   0  0  0  0  0  0  0  0  0  0  0  0
    9.1909   -2.6332   47.0292 C   0  0  0  0  0  0  0  0  0  0  0  0
   10.4575   -2.6198   47.6824 O   0  0  0  0  0  0  0  0  0  0  0  0
   11.4873   -2.2059   46.9341 C   0  0  0  0  0  0  0  0  0  0  0  0
   12.2817   -1.4398   47.4308 O   0  0  0  0  0  0  0  0  0  0  0  0
   13.2946   -1.0299   46.6543 C   0  0  0  0  0  0  0  0  0  0  0  0
   13.0925   -1.0831   45.3218 C   0  0  0  0  0  0  0  0  0  0  0  0
   11.8014   -2.7848   45.6647 C   0  0  0  0  0  0  0  0  0  0  0  0
   12.3675   -2.0988   44.8604 C   0  0  0  0  0  0  0  0  0  0  0  0
   14.1163    0.0513   47.2686 C   0  0  0  0  0  0  0  0  0  0  0  0
   14.9187    0.6641   46.4231 C   0  0  0  0  0  0  0  0  0  0  0  0
   14.1854   -0.4486   44.5518 C   0  0  0  0  0  0  0  0  0  0  0  0
   15.0052    0.4272   45.0768 C   0  0  0  0  0  0  0  0  0  0  0  0
  1  2  2  0
  2  3  1  0
  3  4  2  0
  2  5  1  0
  3  6  1  0
  4  7  1  0
  4  8  1  0
  7  9  1  0
  1 10  1  0
  6 10  1  0
  6 11  2  0
  7 12  2  0
  5 13  2  0
  9 13  1  1
 12 14  1  0
  8 15  2  0
  8 16  1  0
 11 16  1  0
  9 17  1  0
 14 17  2  0
 11 18  1  0
 18 19  2  0
 18 20  1  0
 20 21  2  0
 19 22  1  0
 16 23  2  0
 22 23  1  0
 23 24  1  0
 15 25  1  0
 24 25  2  0
 19 26  1  0
 21 27  1  0
 26 27  2  0
 27 28  1  0
 28 29  1  0
 29 30  1  0
 30 31  1  0
 31 32  2  0
 29 33  2  0
 32 34  1  0
 33 34  1  0
 31 35  1  0
 35 36  2  0
 32 37  1  0
 36 38  1  0
 37 38  2  0
M  END
$$$$
O14757_Pocket2Mol_idx-in-all-generaetd-455
     RDKit          3D

 43 51  0  0  0  0  0  0  0  0999 V2000
    1.5482   -0.3111   41.9233 C   0  0  0  0  0  0  0  0  0  0  0  0
    2.7284    0.2018   42.1525 N   0  0  0  0  0  0  0  0  0  0  0  0
    3.7893   -0.3016   42.7005 C   0  0  0  0  0  0  0  0  0  0  0  0
    3.3781   -1.7350   43.0000 C   0  0  0  0  0  0  0  0  0  0  0  0
    2.0339   -1.9619   42.6217 C   0  0  0  0  0  0  0  0  0  0  0  0
    5.0090    0.1219   42.9340 N   0  0  0  0  0  0  0  0  0  0  0  0
    4.2895   -2.4979   43.6707 C   0  0  0  0  0  0  0  0  0  0  0  0
    5.8391   -0.6675   43.6343 C   0  0  0  0  0  0  0  0  0  0  0  0
    6.9849   -0.2377   44.0028 N   0  0  0  0  0  0  0  0  0  0  0  0
    4.0426   -3.8794   44.0832 C   0  0  0  0  0  0  0  0  0  0  0  0
    7.6796   -0.8734   44.9326 C   0  0  0  0  0  0  0  0  0  0  0  0
    1.1064   -2.9576   42.4211 C   0  0  0  0  0  0  0  0  0  0  0  0
    5.5298   -1.9496   44.0315 C   0  0  0  0  0  0  0  0  0  0  0  0
    3.8954   -4.1817   45.4718 C   0  0  0  0  0  0  0  0  0  0  0  0
    0.6765   -3.5480   43.4006 C   0  0  1  0  0  0  0  0  0  0  0  0
    0.5804   -3.2191   41.1635 C   0  0  0  0  0  0  0  0  0  0  0  0
    2.8083   -4.8227   45.9203 N   0  0  0  0  0  0  0  0  0  0  0  0
   -0.1574   -4.5754   42.9329 N   0  0  0  0  0  0  0  0  0  0  0  0
    6.5271   -2.5531   44.9677 C   0  0  0  0  0  0  0  0  0  0  0  0
   -0.2272   -4.3703   41.5137 C   0  0  0  0  0  0  0  0  0  0  0  0
    7.5095   -2.0029   45.3993 C   0  0  0  0  0  0  0  0  0  0  0  0
    8.2550   -2.6982   46.3988 C   0  0  0  0  0  0  0  0  0  0  0  0
    8.8975   -0.3029   45.3267 O   0  0  0  0  0  0  0  0  0  0  0  0
    4.8299   -4.4637   46.4212 C   0  0  0  0  0  0  0  0  0  0  0  0
    4.2707   -4.9248   47.6295 N   0  0  0  0  0  0  0  0  0  0  0  0
    3.2045   -5.2092   47.1521 C   0  0  0  0  0  0  0  0  0  0  0  0
    1.4482   -4.6186   45.4134 C   0  0  2  0  0  0  0  0  0  0  0  0
    1.2398   -3.5043   44.6236 O   0  0  0  0  0  0  0  0  0  0  0  0
    6.3317   -3.9297   46.0870 C   0  0  2  0  0  0  0  0  0  0  0  0
    9.5296   -2.5449   46.9776 C   0  0  0  0  0  0  0  0  0  0  0  0
    9.7921   -1.7530   47.9018 O   0  0  0  0  0  0  0  0  0  0  0  0
    7.3972   -3.8130   46.7939 C   0  0  0  0  0  0  0  0  0  0  0  0
   10.4154   -3.4217   46.6883 O   0  0  0  0  0  0  0  0  0  0  0  0
    0.5555   -4.7535   46.5674 C   0  0  0  0  0  0  0  0  0  0  0  0
   11.6497   -3.0596   47.0439 C   0  0  0  0  0  0  0  0  0  0  0  0
   12.3878   -4.1125   47.6990 C   0  0  1  0  0  0  0  0  0  0  0  0
   11.8800   -5.2760   47.5659 O   0  0  0  0  0  0  0  0  0  0  0  0
   12.1402   -1.9273   46.5416 C   0  0  0  0  0  0  0  0  0  0  0  0
   13.7566   -3.9428   47.4635 C   0  0  0  0  0  0  0  0  0  0  0  0
   11.3924   -5.9178   48.7514 C   0  0  0  0  0  0  0  0  0  0  0  0
   14.4126   -2.7430   47.0678 C   0  0  0  0  0  0  0  0  0  0  0  0
   13.5341   -1.7327   46.5713 C   0  0  0  0  0  0  0  0  0  0  0  0
   14.1259   -0.6164   46.1501 O   0  0  0  0  0  0  0  0  0  0  0  0
  1  2  1  0
  2  3  2  0
  3  4  1  0
  1  5  2  0
  4  5  1  0
  3  6  1  0
  4  7  2  0
  6  8  1  0
  8  9  1  0
  7 10  1  0
  9 11  1  0
  5 12  1  0
  7 13  1  0
  8 13  2  0
 10 14  1  0
 12 15  1  0
 12 16  2  0
 14 17  1  0
 15 18  1  0
 13 19  1  0
 16 20  1  0
 18 20  2  0
 11 21  1  0
 19 21  2  0
 21 22  1  0
 11 23  2  0
 14 24  2  0
 24 25  1  0
 17 26  1  0
 25 26  2  0
 17 27  1  0
 15 28  1  6
 27 28  1  0
 19 29  1  0
 24 29  1  0
 22 30  1  0
 30 31  2  0
 22 32  2  0
 29 32  1  1
 30 33  1  0
 27 34  1  1
 33 35  1  0
 35 36  1  0
 36 37  1  6
 35 38  2  0
 36 39  1  0
 37 40  1  0
 39 41  2  0
 38 42  1  0
 41 42  1  0
 42 43  2  0
M  END
$$$$
O14757_Pocket2Mol_idx-in-all-generaetd-456
     RDKit          3D

 26 30  0  0  0  0  0  0  0  0999 V2000
    5.1775    0.2381   42.7925 N   0  0  0  0  0  0  0  0  0  0  0  0
    3.8485    0.3515   42.4285 N   0  0  0  0  0  0  0  0  0  0  0  0
    5.5201   -0.8216   43.5188 C   0  0  0  0  0  0  0  0  0  0  0  0
    4.5575   -1.7838   43.9113 C   0  0  0  0  0  0  0  0  0  0  0  0
    2.9777   -0.5504   42.6073 C   0  0  0  0  0  0  0  0  0  0  0  0
    4.8521   -2.9209   44.7316 C   0  0  0  0  0  0  0  0  0  0  0  0
    3.2351   -1.5675   43.1903 C   0  0  0  0  0  0  0  0  0  0  0  0
    1.6955   -0.2711   41.8967 C   0  0  0  0  0  0  0  0  0  0  0  0
    0.8864   -1.3663   42.0618 C   0  0  0  0  0  0  0  0  0  0  0  0
    2.3187   -2.7500   43.4543 C   0  0  0  0  0  0  0  0  0  0  0  0
    1.1071   -2.5907   42.7445 C   0  0  0  0  0  0  0  0  0  0  0  0
    6.0979   -2.8249   45.5633 C   0  0  0  0  0  0  0  0  0  0  0  0
    0.0423   -3.6939   42.8205 C   0  0  0  0  0  0  0  0  0  0  0  0
    4.2011   -4.0423   44.9363 C   0  0  0  0  0  0  0  0  0  0  0  0
    4.5424   -5.0339   45.7893 C   0  0  0  0  0  0  0  0  0  0  0  0
   -0.0110   -4.4040   41.6463 N   0  0  0  0  0  0  0  0  0  0  0  0
    2.8431   -3.9954   44.0809 C   0  0  0  0  0  0  0  0  0  0  0  0
    7.0703   -1.6758   45.5388 C   0  0  0  0  0  0  0  0  0  0  0  0
    8.0247   -1.5814   46.7140 C   0  0  2  0  0  0  0  0  0  0  0  0
    9.0826   -0.8566   46.5840 C   0  0  0  0  0  0  0  0  0  0  0  0
   10.0432   -1.4137   45.7942 O   0  0  0  0  0  0  0  0  0  0  0  0
    6.4721   -3.8694   46.3870 C   0  0  0  0  0  0  0  0  0  0  0  0
    7.6672   -3.7615   47.1972 C   0  0  0  0  0  0  0  0  0  0  0  0
    7.9473   -4.9113   47.9898 O   0  0  0  0  0  0  0  0  0  0  0  0
    8.3378   -2.6995   47.2777 N   0  0  0  0  0  0  0  0  0  0  0  0
    5.5877   -4.9551   46.5482 C   0  0  0  0  0  0  0  0  0  0  0  0
  1  2  2  0
  1  3  1  0
  3  4  2  0
  2  5  1  0
  4  6  1  0
  4  7  1  0
  5  7  2  0
  5  8  1  0
  8  9  2  0
  7 10  1  0
  9 11  1  0
 10 11  2  0
  6 12  2  0
 11 13  1  0
  6 14  1  0
 14 15  2  0
 13 16  1  0
 10 17  1  0
 14 17  1  0
 12 18  1  0
 18 19  1  0
 19 20  1  6
 20 21  1  0
 12 22  1  0
 22 23  1  0
 23 24  2  0
 19 25  1  0
 23 25  1  0
 15 26  1  0
 22 26  2  0
M  END
$$$$
O14757_Pocket2Mol_idx-in-all-generaetd-457
     RDKit          3D

 42 48  0  0  0  0  0  0  0  0999 V2000
    5.3420    0.2589   42.8836 O   0  0  0  0  0  0  0  0  0  0  0  0
    5.1627   -0.7554   43.4753 C   0  0  0  0  0  0  0  0  0  0  0  0
    4.0509   -1.4657   43.4177 N   0  0  0  0  0  0  0  0  0  0  0  0
    5.9969   -1.2317   44.6840 C   0  0  0  0  0  0  0  0  0  0  0  0
    2.9618   -1.1021   42.5918 C   0  0  1  0  0  0  0  0  0  0  0  0
    7.3392   -0.8596   44.8412 C   0  0  0  0  0  0  0  0  0  0  0  0
    1.9754   -2.0820   42.2741 C   0  0  0  0  0  0  0  0  0  0  0  0
    5.5910   -2.4282   45.3439 C   0  0  0  0  0  0  0  0  0  0  0  0
    6.5874   -2.9636   46.1581 C   0  0  0  0  0  0  0  0  0  0  0  0
    4.2763   -3.0680   45.0493 N   0  0  0  0  0  0  0  0  0  0  0  0
    3.6188   -2.5886   44.2024 C   0  0  0  0  0  0  0  0  0  0  0  0
    8.1921   -1.4071   45.7505 C   0  0  0  0  0  0  0  0  0  0  0  0
    1.0154   -1.8839   41.2980 C   0  0  0  0  0  0  0  0  0  0  0  0
    2.5720   -3.3564   43.9063 C   0  0  0  0  0  0  0  0  0  0  0  0
    0.2502   -2.8976   41.0751 C   0  0  0  0  0  0  0  0  0  0  0  0
    6.1761   -4.1775   47.0209 C   0  0  0  0  0  0  0  0  0  0  0  0
    1.7266   -3.1047   43.0115 C   0  0  2  0  0  0  0  0  0  0  0  0
    2.3696   -4.5367   44.7536 N   0  0  0  0  0  0  0  0  0  0  0  0
    1.2264   -5.2346   44.4693 C   0  0  0  0  0  0  0  0  0  0  0  0
    0.7187   -3.8955   42.5465 C   0  0  0  0  0  0  0  0  0  0  0  0
    9.4576   -0.8949   46.0327 N   0  0  0  0  0  0  0  0  0  0  0  0
    0.8625   -6.3901   45.2462 C   0  0  0  0  0  0  0  0  0  0  0  0
    7.6467   -2.5139   46.4892 C   0  0  0  0  0  0  0  0  0  0  0  0
   10.4908   -1.5336   45.8242 C   0  0  0  0  0  0  0  0  0  0  0  0
    0.3057   -4.9299   43.2909 C   0  0  0  0  0  0  0  0  0  0  0  0
   11.5916   -1.4291   46.7436 C   0  0  0  0  0  0  0  0  0  0  0  0
   10.5566   -2.3672   44.8649 O   0  0  0  0  0  0  0  0  0  0  0  0
    2.4730    0.2084   42.8389 O   0  0  0  0  0  0  0  0  0  0  0  0
   11.6027   -2.2081   47.7725 N   0  0  0  0  0  0  0  0  0  0  0  0
   12.6189   -0.5862   46.5415 C   0  0  0  0  0  0  0  0  0  0  0  0
   13.6413   -0.4484   47.4129 C   0  0  0  0  0  0  0  0  0  0  0  0
   10.4764   -3.1097   48.1134 C   0  0  0  0  0  0  0  0  0  0  0  0
    9.5762   -2.4717   49.0753 C   0  0  0  0  0  0  0  0  0  0  0  0
    9.7761   -1.2394   49.5167 C   0  0  0  0  0  0  0  0  0  0  0  0
    8.6397   -3.3252   49.7339 C   0  0  0  0  0  0  0  0  0  0  0  0
    8.9861   -0.7034   50.5819 C   0  0  0  0  0  0  0  0  0  0  0  0
   14.7137    0.5128   47.0925 C   0  0  0  0  0  0  0  0  0  0  0  0
    8.1815   -1.5423   51.2387 C   0  0  0  0  0  0  0  0  0  0  0  0
    7.9420   -2.8799   50.7336 C   0  0  0  0  0  0  0  0  0  0  0  0
   12.7448   -2.0625   48.3931 C   0  0  0  0  0  0  0  0  0  0  0  0
   12.8359   -3.1095   49.5421 O   0  0  0  0  0  0  0  0  0  0  0  0
   13.7442   -1.3046   48.3660 C   0  0  0  0  0  0  0  0  0  0  0  0
  1  2  2  0
  2  3  1  0
  2  4  1  0
  3  5  1  0
  4  6  2  0
  5  7  1  0
  4  8  1  0
  8  9  2  0
  8 10  1  0
  3 11  1  0
 10 11  2  0
  6 12  1  0
  7 13  2  0
 11 14  1  0
 13 15  1  0
  9 16  1  0
 17  7  1  6
 14 17  1  0
 14 18  2  0
 18 19  1  0
 15 20  2  0
 17 20  1  0
 12 21  1  0
 19 22  1  0
  9 23  1  0
 12 23  2  0
 21 24  1  0
 19 25  2  0
 20 25  1  0
 24 26  1  0
 24 27  2  0
  5 28  1  1
 26 29  1  0
 26 30  2  0
 30 31  1  0
 29 32  1  0
 32 33  1  0
 33 34  2  0
 33 35  1  0
 34 36  1  0
 31 37  1  0
 36 38  2  0
 35 39  2  0
 38 39  1  0
 29 40  1  0
 40 41  2  0
 31 42  2  0
 40 42  1  0
M  END
$$$$
O14757_Pocket2Mol_idx-in-all-generaetd-458
     RDKit          3D

 43 50  0  0  0  0  0  0  0  0999 V2000
    5.3420    0.2589   42.8836 O   0  0  0  0  0  0  0  0  0  0  0  0
    5.1627   -0.7554   43.4753 C   0  0  0  0  0  0  0  0  0  0  0  0
    4.0509   -1.4657   43.4177 N   0  0  0  0  0  0  0  0  0  0  0  0
    5.9969   -1.2317   44.6840 C   0  0  0  0  0  0  0  0  0  0  0  0
    2.9618   -1.1021   42.5918 C   0  0  1  0  0  0  0  0  0  0  0  0
    7.3392   -0.8596   44.8412 C   0  0  0  0  0  0  0  0  0  0  0  0
    1.9754   -2.0820   42.2741 C   0  0  0  0  0  0  0  0  0  0  0  0
    5.5910   -2.4282   45.3439 C   0  0  0  0  0  0  0  0  0  0  0  0
    6.5874   -2.9636   46.1581 C   0  0  0  0  0  0  0  0  0  0  0  0
    4.2763   -3.0680   45.0493 N   0  0  0  0  0  0  0  0  0  0  0  0
    3.6188   -2.5886   44.2024 C   0  0  0  0  0  0  0  0  0  0  0  0
    8.1921   -1.4071   45.7505 C   0  0  0  0  0  0  0  0  0  0  0  0
    1.0154   -1.8839   41.2980 C   0  0  0  0  0  0  0  0  0  0  0  0
    2.5720   -3.3564   43.9063 C   0  0  0  0  0  0  0  0  0  0  0  0
    0.2502   -2.8976   41.0751 C   0  0  0  0  0  0  0  0  0  0  0  0
    6.1761   -4.1775   47.0209 C   0  0  0  0  0  0  0  0  0  0  0  0
    1.7266   -3.1047   43.0115 C   0  0  2  0  0  0  0  0  0  0  0  0
    2.3696   -4.5367   44.7536 N   0  0  0  0  0  0  0  0  0  0  0  0
    1.2264   -5.2346   44.4693 C   0  0  0  0  0  0  0  0  0  0  0  0
    0.7187   -3.8955   42.5465 C   0  0  0  0  0  0  0  0  0  0  0  0
    9.4576   -0.8949   46.0327 N   0  0  0  0  0  0  0  0  0  0  0  0
    0.8625   -6.3901   45.2462 C   0  0  0  0  0  0  0  0  0  0  0  0
    7.6467   -2.5139   46.4892 C   0  0  0  0  0  0  0  0  0  0  0  0
   10.4908   -1.5336   45.8242 C   0  0  0  0  0  0  0  0  0  0  0  0
    0.3057   -4.9299   43.2909 C   0  0  0  0  0  0  0  0  0  0  0  0
   11.5916   -1.4291   46.7436 C   0  0  0  0  0  0  0  0  0  0  0  0
   10.5566   -2.3672   44.8649 O   0  0  0  0  0  0  0  0  0  0  0  0
    2.4730    0.2084   42.8389 O   0  0  0  0  0  0  0  0  0  0  0  0
   11.6027   -2.2081   47.7725 N   0  0  0  0  0  0  0  0  0  0  0  0
   12.6189   -0.5862   46.5415 C   0  0  0  0  0  0  0  0  0  0  0  0
   13.6413   -0.4484   47.4129 C   0  0  0  0  0  0  0  0  0  0  0  0
   10.4764   -3.1097   48.1134 C   0  0  0  0  0  0  0  0  0  0  0  0
    9.5762   -2.4717   49.0753 C   0  0  0  0  0  0  0  0  0  0  0  0
    9.7761   -1.2394   49.5167 C   0  0  0  0  0  0  0  0  0  0  0  0
    8.6397   -3.3252   49.7339 C   0  0  0  0  0  0  0  0  0  0  0  0
    8.9861   -0.7034   50.5819 C   0  0  0  0  0  0  0  0  0  0  0  0
   12.7628   -2.0677   48.3467 C   0  0  0  0  0  0  0  0  0  0  0  0
    8.3925   -4.6975   49.1448 C   0  0  0  0  0  0  0  0  0  0  0  0
    7.9456   -2.8198   50.7430 C   0  0  0  0  0  0  0  0  0  0  0  0
   13.7196   -1.3119   48.3536 C   0  0  0  0  0  0  0  0  0  0  0  0
    8.2024   -1.4471   51.1946 C   0  0  0  0  0  0  0  0  0  0  0  0
    6.9625   -4.9144   48.8979 N   0  0  0  0  0  0  0  0  0  0  0  0
    6.4423   -3.9527   48.3163 N   0  0  0  0  0  0  0  0  0  0  0  0
  1  2  2  0
  2  3  1  0
  2  4  1  0
  3  5  1  0
  4  6  2  0
  5  7  1  0
  4  8  1  0
  8  9  2  0
  8 10  1  0
  3 11  1  0
 10 11  2  0
  6 12  1  0
  7 13  2  0
 11 14  1  0
 13 15  1  0
  9 16  1  0
 17  7  1  6
 14 17  1  0
 14 18  2  0
 18 19  1  0
 15 20  2  0
 17 20  1  0
 12 21  1  0
 19 22  1  0
  9 23  1  0
 12 23  2  0
 21 24  1  0
 19 25  2  0
 20 25  1  0
 24 26  1  0
 24 27  2  0
  5 28  1  1
 26 29  1  0
 26 30  2  0
 30 31  1  0
 29 32  1  0
 32 33  1  0
 33 34  1  0
 33 35  2  0
 34 36  2  0
 29 37  1  0
 35 38  1  0
 35 39  1  0
 31 40  2  0
 37 40  1  0
 36 41  1  0
 39 41  2  0
 38 42  1  0
 16 43  1  0
 42 43  1  0
M  END
$$$$
O14757_Pocket2Mol_idx-in-all-generaetd-459
     RDKit          3D

 28 30  0  0  0  0  0  0  0  0999 V2000
    4.5142    0.3543   42.7132 N   0  0  0  0  0  0  0  0  0  0  0  0
    3.5107   -0.4860   42.6298 C   0  0  0  0  0  0  0  0  0  0  0  0
    3.5891   -1.7637   43.2512 N   0  0  0  0  0  0  0  0  0  0  0  0
    5.5470   -0.0112   43.3539 C   0  0  0  0  0  0  0  0  0  0  0  0
    2.1469   -0.1899   41.9512 C   0  0  0  0  0  0  0  0  0  0  0  0
    4.6725   -2.0734   43.8606 C   0  0  0  0  0  0  0  0  0  0  0  0
    5.7749   -1.1829   43.9325 C   0  0  0  0  0  0  0  0  0  0  0  0
    4.7150   -3.3068   44.6440 C   0  0  0  0  0  0  0  0  0  0  0  0
    6.9086   -1.5797   44.6919 C   0  0  0  0  0  0  0  0  0  0  0  0
    3.5691   -4.2517   44.6407 C   0  0  0  0  0  0  0  0  0  0  0  0
    2.3573   -4.0060   44.5430 C   0  0  0  0  0  0  0  0  0  0  0  0
    6.9170   -2.8018   45.4663 C   0  0  0  0  0  0  0  0  0  0  0  0
    5.8006   -3.6152   45.4297 C   0  0  0  0  0  0  0  0  0  0  0  0
    8.0903   -3.1108   46.2193 C   0  0  0  0  0  0  0  0  0  0  0  0
    4.0064   -5.4798   44.1304 O   0  0  0  0  0  0  0  0  0  0  0  0
    1.3499   -4.4927   43.7488 C   0  0  0  0  0  0  0  0  0  0  0  0
    8.9407   -2.1153   46.7855 N   0  0  0  0  0  0  0  0  0  0  0  0
    9.9131   -2.4307   47.6296 C   0  0  0  0  0  0  0  0  0  0  0  0
    9.9401   -2.1931   48.7722 O   0  0  0  0  0  0  0  0  0  0  0  0
    1.6925   -3.8787   45.7737 C   0  0  0  0  0  0  0  0  0  0  0  0
    0.0956   -4.4506   43.8726 C   0  0  0  0  0  0  0  0  0  0  0  0
   -0.4743   -4.1254   44.9651 C   0  0  0  0  0  0  0  0  0  0  0  0
    0.3478   -3.8227   46.0202 C   0  0  0  0  0  0  0  0  0  0  0  0
   11.2616   -2.5305   46.8592 C   0  0  0  0  0  0  0  0  0  0  0  0
    8.2380   -4.1903   46.9793 O   0  0  0  0  0  0  0  0  0  0  0  0
   11.8588   -1.4933   46.3365 C   0  0  0  0  0  0  0  0  0  0  0  0
   12.1275   -3.3025   47.8138 C   0  0  0  0  0  0  0  0  0  0  0  0
   10.9761   -3.6351   45.7169 C   0  0  0  0  0  0  0  0  0  0  0  0
  1  2  2  0
  2  3  1  0
  1  4  1  0
  2  5  1  0
  3  6  2  0
  4  7  2  0
  6  7  1  0
  6  8  1  0
  7  9  1  0
  8 10  1  0
 10 11  1  0
  9 12  2  0
  8 13  2  0
 12 13  1  0
 12 14  1  0
 10 15  2  0
 11 16  2  0
 14 17  1  0
 17 18  1  0
 18 19  2  0
 11 20  1  0
 16 21  1  0
 21 22  2  0
 20 23  2  0
 22 23  1  0
 18 24  1  0
 14 25  2  0
 24 26  1  0
 24 27  1  0
 24 28  1  0
M  END
$$$$
O14757_Pocket2Mol_idx-in-all-generaetd-460
     RDKit          3D

 44 52  0  0  0  0  0  0  0  0999 V2000
    1.5482   -0.3111   41.9233 C   0  0  0  0  0  0  0  0  0  0  0  0
    2.7284    0.2018   42.1525 N   0  0  0  0  0  0  0  0  0  0  0  0
    3.7893   -0.3016   42.7005 C   0  0  0  0  0  0  0  0  0  0  0  0
    3.3781   -1.7350   43.0000 C   0  0  0  0  0  0  0  0  0  0  0  0
    2.0339   -1.9619   42.6217 C   0  0  0  0  0  0  0  0  0  0  0  0
    5.0090    0.1219   42.9340 N   0  0  0  0  0  0  0  0  0  0  0  0
    4.2895   -2.4979   43.6707 C   0  0  0  0  0  0  0  0  0  0  0  0
    5.8391   -0.6675   43.6343 C   0  0  0  0  0  0  0  0  0  0  0  0
    6.9849   -0.2377   44.0028 N   0  0  0  0  0  0  0  0  0  0  0  0
    4.0426   -3.8794   44.0832 C   0  0  0  0  0  0  0  0  0  0  0  0
    7.6796   -0.8734   44.9326 C   0  0  0  0  0  0  0  0  0  0  0  0
    1.1064   -2.9576   42.4211 C   0  0  0  0  0  0  0  0  0  0  0  0
    5.5298   -1.9496   44.0315 C   0  0  0  0  0  0  0  0  0  0  0  0
    3.8954   -4.1817   45.4718 C   0  0  0  0  0  0  0  0  0  0  0  0
    0.6765   -3.5480   43.4006 C   0  0  1  0  0  0  0  0  0  0  0  0
    0.5804   -3.2191   41.1635 C   0  0  0  0  0  0  0  0  0  0  0  0
    2.8083   -4.8227   45.9203 N   0  0  0  0  0  0  0  0  0  0  0  0
   -0.1574   -4.5754   42.9329 N   0  0  0  0  0  0  0  0  0  0  0  0
    6.5271   -2.5531   44.9677 C   0  0  0  0  0  0  0  0  0  0  0  0
   -0.2272   -4.3703   41.5137 C   0  0  0  0  0  0  0  0  0  0  0  0
    7.5095   -2.0029   45.3993 C   0  0  0  0  0  0  0  0  0  0  0  0
    8.2550   -2.6982   46.3988 C   0  0  0  0  0  0  0  0  0  0  0  0
    8.8975   -0.3029   45.3267 O   0  0  0  0  0  0  0  0  0  0  0  0
    4.8299   -4.4637   46.4212 C   0  0  0  0  0  0  0  0  0  0  0  0
    4.2707   -4.9248   47.6295 N   0  0  0  0  0  0  0  0  0  0  0  0
    3.2045   -5.2092   47.1521 C   0  0  0  0  0  0  0  0  0  0  0  0
    1.4482   -4.6186   45.4134 C   0  0  1  0  0  0  0  0  0  0  0  0
    1.2398   -3.5043   44.6236 O   0  0  0  0  0  0  0  0  0  0  0  0
    7.8521   -3.9584   46.8773 C   0  0  0  0  0  0  0  0  0  0  0  0
    8.4079   -4.7553   47.7407 C   0  0  0  0  0  0  0  0  0  0  0  0
    5.9516   -3.8110   45.9146 C   0  0  0  0  0  0  0  0  0  0  0  0
    6.6436   -4.3892   46.6649 C   0  0  0  0  0  0  0  0  0  0  0  0
    9.5111   -5.5246   47.2994 O   0  0  0  0  0  0  0  0  0  0  0  0
   10.6238   -5.0197   46.8534 C   0  0  0  0  0  0  0  0  0  0  0  0
   11.5866   -4.7361   47.6189 C   0  0  0  0  0  0  0  0  0  0  0  0
    1.2153   -5.7944   44.5753 C   0  0  0  0  0  0  0  0  0  0  0  0
   10.7023   -4.6532   45.4361 C   0  0  0  0  0  0  0  0  0  0  0  0
   11.7209   -4.2457   45.0565 C   0  0  0  0  0  0  0  0  0  0  0  0
   11.5467   -4.9832   49.1186 O   0  0  0  0  0  0  0  0  0  0  0  0
   12.3505   -5.8268   49.5929 C   0  0  0  0  0  0  0  0  0  0  0  0
   12.8150   -3.9071   45.8420 C   0  0  0  0  0  0  0  0  0  0  0  0
   12.7609   -4.0921   47.1778 C   0  0  0  0  0  0  0  0  0  0  0  0
   13.8853   -3.1040   45.5386 O   0  0  0  0  0  0  0  0  0  0  0  0
   15.0893   -3.2001   46.0530 C   0  0  0  0  0  0  0  0  0  0  0  0
  1  2  1  0
  2  3  2  0
  3  4  1  0
  1  5  2  0
  4  5  1  0
  3  6  1  0
  4  7  2  0
  6  8  1  0
  8  9  1  0
  7 10  1  0
  9 11  1  0
  5 12  1  0
  7 13  1  0
  8 13  2  0
 10 14  1  0
 12 15  1  0
 12 16  2  0
 14 17  1  0
 15 18  1  0
 13 19  1  0
 16 20  1  0
 18 20  2  0
 11 21  1  0
 19 21  2  0
 21 22  1  0
 11 23  2  0
 14 24  2  0
 24 25  1  0
 17 26  1  0
 25 26  2  0
 17 27  1  0
 15 28  1  6
 27 28  1  0
 22 29  2  0
 29 30  1  0
 19 31  1  0
 24 31  1  0
 29 32  1  0
 31 32  2  0
 30 33  1  0
 33 34  1  0
 34 35  2  0
 27 36  1  6
 34 37  1  0
 37 38  2  0
 35 39  1  0
 39 40  1  0
 38 41  1  0
 35 42  1  0
 41 42  2  0
 41 43  1  0
 43 44  1  0
M  END
$$$$
O14757_Pocket2Mol_idx-in-all-generaetd-461
     RDKit          3D

 29 34  0  0  0  0  0  0  0  0999 V2000
    5.3420    0.2589   42.8836 O   0  0  0  0  0  0  0  0  0  0  0  0
    5.1627   -0.7554   43.4753 C   0  0  0  0  0  0  0  0  0  0  0  0
    4.0509   -1.4657   43.4177 N   0  0  0  0  0  0  0  0  0  0  0  0
    5.9969   -1.2317   44.6840 C   0  0  0  0  0  0  0  0  0  0  0  0
    2.9618   -1.1021   42.5918 C   0  0  0  0  0  0  0  0  0  0  0  0
    7.3392   -0.8596   44.8412 C   0  0  0  0  0  0  0  0  0  0  0  0
    1.9754   -2.0820   42.2741 C   0  0  0  0  0  0  0  0  0  0  0  0
    5.5910   -2.4282   45.3439 C   0  0  0  0  0  0  0  0  0  0  0  0
    6.5874   -2.9636   46.1581 C   0  0  0  0  0  0  0  0  0  0  0  0
    4.2763   -3.0680   45.0493 N   0  0  0  0  0  0  0  0  0  0  0  0
    3.6188   -2.5886   44.2024 C   0  0  0  0  0  0  0  0  0  0  0  0
    8.1921   -1.4071   45.7505 C   0  0  0  0  0  0  0  0  0  0  0  0
    1.0154   -1.8839   41.2980 C   0  0  0  0  0  0  0  0  0  0  0  0
    2.5720   -3.3564   43.9063 C   0  0  0  0  0  0  0  0  0  0  0  0
    0.2502   -2.8976   41.0751 C   0  0  0  0  0  0  0  0  0  0  0  0
    0.2230   -3.9124   42.0516 C   0  0  0  0  0  0  0  0  0  0  0  0
    2.2879   -4.6260   44.7113 N   0  0  0  0  0  0  0  0  0  0  0  0
    1.7585   -3.1585   42.9749 N   0  0  0  0  0  0  0  0  0  0  0  0
    7.7776   -2.5440   46.4766 C   0  0  0  0  0  0  0  0  0  0  0  0
    0.8620   -4.0153   42.9214 C   0  0  0  0  0  0  0  0  0  0  0  0
    2.9942   -0.0014   41.9856 O   0  0  0  0  0  0  0  0  0  0  0  0
    8.6110   -3.0684   47.3244 O   0  0  0  0  0  0  0  0  0  0  0  0
    9.7976   -3.4246   46.8484 C   0  0  0  0  0  0  0  0  0  0  0  0
   10.8224   -2.4283   47.1956 C   0  0  0  0  0  0  0  0  0  0  0  0
    0.9965   -5.0741   43.9477 C   0  0  0  0  0  0  0  0  0  0  0  0
   10.2995   -4.6400   47.3839 C   0  0  0  0  0  0  0  0  0  0  0  0
   11.6249   -4.9154   47.1642 C   0  0  0  0  0  0  0  0  0  0  0  0
   12.5679   -3.9288   47.6096 O   0  0  0  0  0  0  0  0  0  0  0  0
   12.2492   -2.7984   46.8685 C   0  0  0  0  0  0  0  0  0  0  0  0
  1  2  2  0
  2  3  1  0
  2  4  1  0
  3  5  1  0
  4  6  2  0
  5  7  1  0
  4  8  1  0
  8  9  2  0
  8 10  1  0
  3 11  1  0
 10 11  2  0
  6 12  1  0
  7 13  2  0
 11 14  1  0
 13 15  1  0
 15 16  2  0
 14 17  2  0
  7 18  1  0
 14 18  1  0
  9 19  1  0
 12 19  2  0
 16 20  1  0
 18 20  1  0
  5 21  2  0
 19 22  1  0
 22 23  1  0
 23 24  1  0
 17 25  1  0
 20 25  2  0
 23 26  1  0
 26 27  1  0
 27 28  1  0
 24 29  1  0
 28 29  1  0
M  END
$$$$
O14757_Pocket2Mol_idx-in-all-generaetd-462
     RDKit          3D

 24 27  0  0  0  0  0  0  0  0999 V2000
    3.7044    0.1389   42.5158 N   0  0  0  0  0  0  0  0  0  0  0  0
    3.0206   -1.0018   42.4929 C   0  0  0  0  0  0  0  0  0  0  0  0
    3.4791   -2.0817   43.2077 C   0  0  0  0  0  0  0  0  0  0  0  0
    4.8540    0.3862   43.0582 N   0  0  0  0  0  0  0  0  0  0  0  0
    5.1377   -0.9552   43.7144 C   0  0  0  0  0  0  0  0  0  0  0  0
    1.5846   -1.0753   41.7644 C   0  0  0  0  0  0  0  0  0  0  0  0
    2.6127   -3.2469   43.2056 C   0  0  0  0  0  0  0  0  0  0  0  0
    4.6372   -2.0125   43.8200 C   0  0  0  0  0  0  0  0  0  0  0  0
    2.9973   -4.3132   44.0699 C   0  0  0  0  0  0  0  0  0  0  0  0
    5.2490   -3.1260   44.5377 C   0  0  0  0  0  0  0  0  0  0  0  0
    2.3220   -5.3356   44.3123 O   0  0  0  0  0  0  0  0  0  0  0  0
    1.3893   -3.2604   42.5359 C   0  0  0  0  0  0  0  0  0  0  0  0
    0.9530   -2.1738   41.8390 C   0  0  0  0  0  0  0  0  0  0  0  0
    6.3785   -3.0087   45.3464 C   0  0  0  0  0  0  0  0  0  0  0  0
    4.2669   -4.1697   44.8110 C   0  0  0  0  0  0  0  0  0  0  0  0
    6.8132   -3.9057   46.1504 C   0  0  0  0  0  0  0  0  0  0  0  0
    7.9207   -3.5940   46.8627 C   0  0  0  0  0  0  0  0  0  0  0  0
    7.1196   -1.7285   45.2735 C   0  0  0  0  0  0  0  0  0  0  0  0
    8.5265   -4.7254   47.7458 O   0  0  0  0  0  0  0  0  0  0  0  0
    8.7318   -2.5513   46.7357 C   0  0  0  0  0  0  0  0  0  0  0  0
    8.2828   -1.5690   45.9413 C   0  0  0  0  0  0  0  0  0  0  0  0
    9.9351   -2.4117   47.4964 O   0  0  0  0  0  0  0  0  0  0  0  0
   10.9285   -1.8231   46.9266 C   0  0  0  0  0  0  0  0  0  0  0  0
    8.1865   -5.9296   47.7357 C   0  0  0  0  0  0  0  0  0  0  0  0
  1  2  2  0
  2  3  1  0
  1  4  1  0
  4  5  2  0
  2  6  1  0
  3  7  1  0
  3  8  2  0
  5  8  1  0
  7  9  1  0
  8 10  1  0
  9 11  2  0
  7 12  2  0
  6 13  2  0
 12 13  1  0
 10 14  1  0
  9 15  1  0
 10 15  2  0
 14 16  2  0
 16 17  1  0
 14 18  1  0
 17 19  1  0
 17 20  2  0
 18 21  2  0
 20 21  1  0
 20 22  1  0
 22 23  1  0
 19 24  1  0
M  END
$$$$
O14757_Pocket2Mol_idx-in-all-generaetd-463
     RDKit          3D

 40 47  0  0  0  0  0  0  0  0999 V2000
    1.5482   -0.3111   41.9233 C   0  0  0  0  0  0  0  0  0  0  0  0
    2.7284    0.2018   42.1525 N   0  0  0  0  0  0  0  0  0  0  0  0
    3.7893   -0.3016   42.7005 C   0  0  0  0  0  0  0  0  0  0  0  0
    3.3781   -1.7350   43.0000 C   0  0  0  0  0  0  0  0  0  0  0  0
    2.0339   -1.9619   42.6217 C   0  0  0  0  0  0  0  0  0  0  0  0
    5.0090    0.1219   42.9340 N   0  0  0  0  0  0  0  0  0  0  0  0
    4.2895   -2.4979   43.6707 C   0  0  0  0  0  0  0  0  0  0  0  0
    5.8391   -0.6675   43.6343 C   0  0  0  0  0  0  0  0  0  0  0  0
    6.9849   -0.2377   44.0028 N   0  0  0  0  0  0  0  0  0  0  0  0
    4.0426   -3.8794   44.0832 C   0  0  0  0  0  0  0  0  0  0  0  0
    7.6796   -0.8734   44.9326 C   0  0  0  0  0  0  0  0  0  0  0  0
    1.1064   -2.9576   42.4211 C   0  0  0  0  0  0  0  0  0  0  0  0
    5.5298   -1.9496   44.0315 C   0  0  0  0  0  0  0  0  0  0  0  0
    3.8954   -4.1817   45.4718 C   0  0  0  0  0  0  0  0  0  0  0  0
    0.6765   -3.5480   43.4006 C   0  0  1  0  0  0  0  0  0  0  0  0
    0.5804   -3.2191   41.1635 C   0  0  0  0  0  0  0  0  0  0  0  0
    2.8083   -4.8227   45.9203 N   0  0  0  0  0  0  0  0  0  0  0  0
   -0.1574   -4.5754   42.9329 N   0  0  0  0  0  0  0  0  0  0  0  0
    6.5271   -2.5531   44.9677 C   0  0  0  0  0  0  0  0  0  0  0  0
   -0.2272   -4.3703   41.5137 C   0  0  0  0  0  0  0  0  0  0  0  0
    7.5095   -2.0029   45.3993 C   0  0  0  0  0  0  0  0  0  0  0  0
    8.2550   -2.6982   46.3988 C   0  0  0  0  0  0  0  0  0  0  0  0
    8.8975   -0.3029   45.3267 O   0  0  0  0  0  0  0  0  0  0  0  0
    4.8299   -4.4637   46.4212 C   0  0  0  0  0  0  0  0  0  0  0  0
    4.2707   -4.9248   47.6295 N   0  0  0  0  0  0  0  0  0  0  0  0
    3.2045   -5.2092   47.1521 C   0  0  0  0  0  0  0  0  0  0  0  0
    1.4482   -4.6186   45.4134 C   0  0  1  0  0  0  0  0  0  0  0  0
    1.2398   -3.5043   44.6236 O   0  0  0  0  0  0  0  0  0  0  0  0
    6.3317   -3.9297   46.0870 C   0  0  2  0  0  0  0  0  0  0  0  0
    9.5296   -2.5449   46.9776 C   0  0  0  0  0  0  0  0  0  0  0  0
    9.7921   -1.7530   47.9018 O   0  0  0  0  0  0  0  0  0  0  0  0
    7.3972   -3.8130   46.7939 C   0  0  0  0  0  0  0  0  0  0  0  0
    1.2392   -5.7793   44.5610 C   0  0  0  0  0  0  0  0  0  0  0  0
   10.4982   -3.2564   46.4837 N   0  0  0  0  0  0  0  0  0  0  0  0
   10.3664   -4.3024   45.6489 C   0  0  0  0  0  0  0  0  0  0  0  0
   11.8563   -2.7253   46.7001 C   0  0  0  0  0  0  0  0  0  0  0  0
   12.5920   -2.4093   45.4967 C   0  0  0  0  0  0  0  0  0  0  0  0
   10.3017   -5.6302   46.4426 C   0  0  0  0  0  0  0  0  0  0  0  0
   11.9752   -1.7495   44.4951 O   0  0  0  0  0  0  0  0  0  0  0  0
   13.8312   -2.2163   45.4763 O   0  0  0  0  0  0  0  0  0  0  0  0
  1  2  1  0
  2  3  2  0
  3  4  1  0
  1  5  2  0
  4  5  1  0
  3  6  1  0
  4  7  2  0
  6  8  1  0
  8  9  1  0
  7 10  1  0
  9 11  1  0
  5 12  1  0
  7 13  1  0
  8 13  2  0
 10 14  1  0
 12 15  1  0
 12 16  2  0
 14 17  1  0
 15 18  1  0
 13 19  1  0
 16 20  1  0
 18 20  2  0
 11 21  1  0
 19 21  2  0
 21 22  1  0
 11 23  2  0
 14 24  2  0
 24 25  1  0
 17 26  1  0
 25 26  2  0
 17 27  1  0
 15 28  1  6
 27 28  1  0
 19 29  1  0
 24 29  1  0
 22 30  1  0
 30 31  2  0
 22 32  2  0
 29 32  1  1
 27 33  1  6
 30 34  1  0
 34 35  1  0
 34 36  1  0
 36 37  1  0
 35 38  1  0
 37 39  2  0
 37 40  1  0
M  END
$$$$
O14757_Pocket2Mol_idx-in-all-generaetd-464
     RDKit          3D

 22 24  0  0  0  0  0  0  0  0999 V2000
    9.0086   -1.3050   46.9724 C   0  0  0  0  0  0  0  0  0  0  0  0
    8.2921   -1.9066   46.1648 C   0  0  0  0  0  0  0  0  0  0  0  0
    9.9515   -2.1146   47.6499 C   0  0  0  0  0  0  0  0  0  0  0  0
    9.6635   -3.5807   47.4108 C   0  0  0  0  0  0  0  0  0  0  0  0
    8.0144   -3.1372   46.0297 C   0  0  0  0  0  0  0  0  0  0  0  0
    6.8676   -3.6383   45.1242 O   0  0  0  0  0  0  0  0  0  0  0  0
   10.5430   -4.4969   48.2323 C   0  0  0  0  0  0  0  0  0  0  0  0
    5.5433   -3.3026   45.6745 C   0  0  2  0  0  0  0  0  0  0  0  0
    8.7121   -4.1844   46.7116 C   0  0  0  0  0  0  0  0  0  0  0  0
   10.8746   -4.3677   49.3452 O   0  0  0  0  0  0  0  0  0  0  0  0
   10.6503   -5.7324   47.6546 N   0  0  0  0  0  0  0  0  0  0  0  0
    4.9860   -4.3159   46.3964 C   0  0  0  0  0  0  0  0  0  0  0  0
    4.7300   -2.5068   44.8223 C   0  0  0  0  0  0  0  0  0  0  0  0
    3.6715   -4.6218   45.9355 C   0  0  0  0  0  0  0  0  0  0  0  0
    3.7110   -5.0178   44.4851 C   0  0  0  0  0  0  0  0  0  0  0  0
    4.2487   -2.9827   43.6396 N   0  0  0  0  0  0  0  0  0  0  0  0
    3.2696   -3.9168   43.6776 C   0  0  0  0  0  0  0  0  0  0  0  0
    3.7209   -1.7700   42.7824 C   0  0  0  0  0  0  0  0  0  0  0  0
    2.5784   -1.7046   42.3085 N   0  0  0  0  0  0  0  0  0  0  0  0
    4.7370   -0.6746   42.8133 N   0  0  0  0  0  0  0  0  0  0  0  0
    3.9825    0.3706   42.3133 N   0  0  0  0  0  0  0  0  0  0  0  0
    2.6491   -0.2349   41.9600 C   0  0  0  0  0  0  0  0  0  0  0  0
  1  2  2  0
  1  3  1  0
  3  4  2  0
  2  5  1  0
  5  6  1  0
  4  7  1  0
  8  6  1  6
  4  9  1  0
  5  9  2  0
  7 10  2  0
  7 11  1  0
  8 12  1  0
  8 13  1  0
 12 14  1  0
 14 15  1  0
 13 16  1  0
 15 17  1  0
 16 17  1  0
 16 18  1  0
 18 19  1  0
 18 20  2  0
 20 21  1  0
 19 22  2  0
 21 22  2  0
M  END
$$$$
O14757_Pocket2Mol_idx-in-all-generaetd-465
     RDKit          3D

 49 58  0  0  0  0  0  0  0  0999 V2000
    1.5482   -0.3111   41.9233 C   0  0  0  0  0  0  0  0  0  0  0  0
    2.7284    0.2018   42.1525 N   0  0  0  0  0  0  0  0  0  0  0  0
    3.7893   -0.3016   42.7005 C   0  0  0  0  0  0  0  0  0  0  0  0
    3.3781   -1.7350   43.0000 C   0  0  0  0  0  0  0  0  0  0  0  0
    2.0339   -1.9619   42.6217 C   0  0  0  0  0  0  0  0  0  0  0  0
    5.0090    0.1219   42.9340 N   0  0  0  0  0  0  0  0  0  0  0  0
    4.2895   -2.4979   43.6707 C   0  0  0  0  0  0  0  0  0  0  0  0
    5.8391   -0.6675   43.6343 C   0  0  0  0  0  0  0  0  0  0  0  0
    6.9849   -0.2377   44.0028 N   0  0  0  0  0  0  0  0  0  0  0  0
    4.0426   -3.8794   44.0832 C   0  0  0  0  0  0  0  0  0  0  0  0
    7.6796   -0.8734   44.9326 C   0  0  0  0  0  0  0  0  0  0  0  0
    1.1064   -2.9576   42.4211 C   0  0  0  0  0  0  0  0  0  0  0  0
    5.5298   -1.9496   44.0315 C   0  0  0  0  0  0  0  0  0  0  0  0
    3.8954   -4.1817   45.4718 C   0  0  0  0  0  0  0  0  0  0  0  0
    0.6765   -3.5480   43.4006 C   0  0  1  0  0  0  0  0  0  0  0  0
    0.5804   -3.2191   41.1635 C   0  0  0  0  0  0  0  0  0  0  0  0
    2.8083   -4.8227   45.9203 N   0  0  0  0  0  0  0  0  0  0  0  0
   -0.1574   -4.5754   42.9329 N   0  0  0  0  0  0  0  0  0  0  0  0
    6.5271   -2.5531   44.9677 C   0  0  0  0  0  0  0  0  0  0  0  0
   -0.2272   -4.3703   41.5137 C   0  0  0  0  0  0  0  0  0  0  0  0
    7.5095   -2.0029   45.3993 C   0  0  0  0  0  0  0  0  0  0  0  0
    8.2550   -2.6982   46.3988 C   0  0  1  0  0  0  0  0  0  0  0  0
    8.8975   -0.3029   45.3267 O   0  0  0  0  0  0  0  0  0  0  0  0
    4.8299   -4.4637   46.4212 C   0  0  0  0  0  0  0  0  0  0  0  0
    4.2707   -4.9248   47.6295 N   0  0  0  0  0  0  0  0  0  0  0  0
    3.2045   -5.2092   47.1521 C   0  0  0  0  0  0  0  0  0  0  0  0
    1.4482   -4.6186   45.4134 C   0  0  0  0  0  0  0  0  0  0  0  0
    1.3256   -3.7660   44.6394 N   0  0  0  0  0  0  0  0  0  0  0  0
    9.2816   -2.1418   47.1273 N   0  0  0  0  0  0  0  0  0  0  0  0
   10.0629   -3.1324   47.8508 C   0  0  0  0  0  0  0  0  0  0  0  0
    6.3491   -3.8960   46.0844 C   0  0  2  0  0  0  0  0  0  0  0  0
    7.4349   -3.5889   46.9054 C   0  0  0  0  0  0  0  0  0  0  0  0
   10.3145   -2.7271   49.0818 O   0  0  0  0  0  0  0  0  0  0  0  0
    0.6213   -5.4445   45.7455 O   0  0  0  0  0  0  0  0  0  0  0  0
   11.0262   -3.8136   47.1050 C   0  0  0  0  0  0  0  0  0  0  0  0
   12.1704   -3.3854   46.7547 C   0  0  0  0  0  0  0  0  0  0  0  0
   13.1080   -4.1111   46.0053 C   0  0  0  0  0  0  0  0  0  0  0  0
   14.3489   -3.5966   45.7888 C   0  0  0  0  0  0  0  0  0  0  0  0
   12.7430   -5.2725   45.5056 C   0  0  0  0  0  0  0  0  0  0  0  0
   14.6935   -2.2816   45.3353 C   0  0  0  0  0  0  0  0  0  0  0  0
   10.5583   -5.1175   46.7236 C   0  0  0  0  0  0  0  0  0  0  0  0
   15.8430   -1.9507   45.0515 C   0  0  0  0  0  0  0  0  0  0  0  0
   11.4646   -5.8285   45.8737 C   0  0  0  0  0  0  0  0  0  0  0  0
   16.1863   -0.5663   44.5680 C   0  0  0  0  0  0  0  0  0  0  0  0
   15.4655   -4.3742   45.9976 C   0  0  0  0  0  0  0  0  0  0  0  0
   17.0048   -2.6624   45.0915 C   0  0  0  0  0  0  0  0  0  0  0  0
   17.1919   -0.0384   44.6914 O   0  0  0  0  0  0  0  0  0  0  0  0
   15.1441    0.0492   43.9278 O   0  0  0  0  0  0  0  0  0  0  0  0
   16.7920   -3.9948   45.6282 C   0  0  0  0  0  0  0  0  0  0  0  0
  1  2  1  0
  2  3  2  0
  3  4  1  0
  1  5  2  0
  4  5  1  0
  3  6  1  0
  4  7  2  0
  6  8  1  0
  8  9  1  0
  7 10  1  0
  9 11  1  0
  5 12  1  0
  7 13  1  0
  8 13  2  0
 10 14  1  0
 12 15  1  0
 12 16  2  0
 14 17  1  0
 15 18  1  0
 13 19  1  0
 16 20  1  0
 18 20  2  0
 11 21  1  0
 19 21  2  0
 21 22  1  0
 11 23  2  0
 14 24  2  0
 24 25  1  0
 17 26  1  0
 25 26  2  0
 17 27  1  0
 15 28  1  6
 27 28  1  0
 22 29  1  1
 29 30  1  0
 19 31  1  0
 24 31  1  0
 22 32  1  0
 31 32  1  1
 30 33  2  0
 27 34  2  0
 30 35  1  0
 35 36  2  0
 36 37  1  0
 37 38  1  0
 37 39  2  0
 38 40  2  0
 35 41  1  0
 40 42  1  0
 39 43  1  0
 41 43  2  0
 42 44  1  0
 38 45  1  0
 42 46  2  0
 44 47  1  0
 44 48  2  0
 45 49  2  0
 46 49  1  0
M  END
$$$$
O14757_Pocket2Mol_idx-in-all-generaetd-466
     RDKit          3D

 35 38  0  0  0  0  0  0  0  0999 V2000
    3.7044    0.1389   42.5158 N   0  0  0  0  0  0  0  0  0  0  0  0
    3.0206   -1.0018   42.4929 C   0  0  0  0  0  0  0  0  0  0  0  0
    3.4791   -2.0817   43.2077 C   0  0  0  0  0  0  0  0  0  0  0  0
    4.8540    0.3862   43.0582 N   0  0  0  0  0  0  0  0  0  0  0  0
    5.1377   -0.9552   43.7144 C   0  0  0  0  0  0  0  0  0  0  0  0
    1.5846   -1.0753   41.7644 C   0  0  0  0  0  0  0  0  0  0  0  0
    4.6026   -2.0358   43.8129 C   0  0  0  0  0  0  0  0  0  0  0  0
    5.1584   -3.1511   44.6069 C   0  0  0  0  0  0  0  0  0  0  0  0
    6.6094   -0.7911   44.3696 N   0  0  0  0  0  0  0  0  0  0  0  0
    4.4744   -4.3270   44.8472 C   0  0  0  0  0  0  0  0  0  0  0  0
    6.9275   -1.8713   45.2437 C   0  0  0  0  0  0  0  0  0  0  0  0
    8.2702   -1.7750   45.8768 C   0  0  0  0  0  0  0  0  0  0  0  0
    0.9365   -0.0867   41.7346 O   0  0  0  0  0  0  0  0  0  0  0  0
    6.2322   -3.0484   45.3118 C   0  0  0  0  0  0  0  0  0  0  0  0
    6.7747   -4.0433   46.1202 N   0  0  0  0  0  0  0  0  0  0  0  0
    1.2161   -2.2739   41.2518 N   0  0  0  0  0  0  0  0  0  0  0  0
    9.0373   -0.5649   45.9132 O   0  0  0  0  0  0  0  0  0  0  0  0
    3.8907   -5.0906   43.9511 O   0  0  0  0  0  0  0  0  0  0  0  0
    4.3454   -4.8388   46.1621 N   0  0  0  0  0  0  0  0  0  0  0  0
    3.4531   -5.8952   46.4159 C   0  0  0  0  0  0  0  0  0  0  0  0
    8.6904   -2.8983   46.6073 N   0  0  0  0  0  0  0  0  0  0  0  0
    7.9257   -3.9393   46.7384 C   0  0  0  0  0  0  0  0  0  0  0  0
    8.4765   -4.8975   47.5307 O   0  0  0  0  0  0  0  0  0  0  0  0
   10.0100   -2.6771   47.3464 C   0  0  0  0  0  0  0  0  0  0  0  0
   10.0326   -1.8380   48.3764 C   0  0  0  0  0  0  0  0  0  0  0  0
   11.1123   -3.0851   46.6870 C   0  0  0  0  0  0  0  0  0  0  0  0
   11.1072   -3.8213   45.4597 C   0  0  0  0  0  0  0  0  0  0  0  0
   11.0296   -5.0092   45.4509 C   0  0  0  0  0  0  0  0  0  0  0  0
   12.3326   -2.5048   47.0028 C   0  0  0  0  0  0  0  0  0  0  0  0
   13.5735   -2.8551   46.3066 C   0  0  0  0  0  0  0  0  0  0  0  0
   12.4256   -1.8909   48.2805 C   0  0  0  0  0  0  0  0  0  0  0  0
   11.1065   -5.8602   44.2346 C   0  0  0  0  0  0  0  0  0  0  0  0
   14.3854   -3.7377   46.7285 O   0  0  0  0  0  0  0  0  0  0  0  0
   13.7104   -1.4974   48.7603 O   0  0  0  0  0  0  0  0  0  0  0  0
   11.2532   -1.5101   49.0160 C   0  0  0  0  0  0  0  0  0  0  0  0
  1  2  2  0
  2  3  1  0
  1  4  1  0
  4  5  2  0
  2  6  1  0
  3  7  2  0
  5  7  1  0
  7  8  1  0
  5  9  1  0
  8 10  1  0
  9 11  2  0
 11 12  1  0
  6 13  2  0
  8 14  2  0
 11 14  1  0
 14 15  1  0
  6 16  1  0
 12 17  2  0
 10 18  2  0
 10 19  1  0
 19 20  1  0
 12 21  1  0
 15 22  1  0
 21 22  1  0
 22 23  2  0
 21 24  1  0
 24 25  2  0
 24 26  1  0
 26 27  1  0
 27 28  2  3
 26 29  2  0
 29 30  1  0
 29 31  1  0
 28 32  1  0
 30 33  1  0
 31 34  1  0
 25 35  1  0
 31 35  2  0
M  END
$$$$
O14757_Pocket2Mol_idx-in-all-generaetd-467
     RDKit          3D

 42 50  0  0  0  0  0  0  0  0999 V2000
    1.5482   -0.3111   41.9233 C   0  0  0  0  0  0  0  0  0  0  0  0
    2.7284    0.2018   42.1525 N   0  0  0  0  0  0  0  0  0  0  0  0
    3.7893   -0.3016   42.7005 C   0  0  0  0  0  0  0  0  0  0  0  0
    3.3781   -1.7350   43.0000 C   0  0  0  0  0  0  0  0  0  0  0  0
    2.0339   -1.9619   42.6217 C   0  0  0  0  0  0  0  0  0  0  0  0
    5.0090    0.1219   42.9340 N   0  0  0  0  0  0  0  0  0  0  0  0
    4.2895   -2.4979   43.6707 C   0  0  0  0  0  0  0  0  0  0  0  0
    5.8391   -0.6675   43.6343 C   0  0  0  0  0  0  0  0  0  0  0  0
    6.9849   -0.2377   44.0028 N   0  0  0  0  0  0  0  0  0  0  0  0
    4.0426   -3.8794   44.0832 C   0  0  0  0  0  0  0  0  0  0  0  0
    7.6796   -0.8734   44.9326 C   0  0  0  0  0  0  0  0  0  0  0  0
    1.1064   -2.9576   42.4211 C   0  0  0  0  0  0  0  0  0  0  0  0
    5.5298   -1.9496   44.0315 C   0  0  0  0  0  0  0  0  0  0  0  0
    3.8954   -4.1817   45.4718 C   0  0  0  0  0  0  0  0  0  0  0  0
    0.6765   -3.5480   43.4006 C   0  0  1  0  0  0  0  0  0  0  0  0
    0.5804   -3.2191   41.1635 C   0  0  0  0  0  0  0  0  0  0  0  0
    2.8083   -4.8227   45.9203 N   0  0  0  0  0  0  0  0  0  0  0  0
   -0.1574   -4.5754   42.9329 N   0  0  0  0  0  0  0  0  0  0  0  0
    6.5271   -2.5531   44.9677 C   0  0  0  0  0  0  0  0  0  0  0  0
   -0.2272   -4.3703   41.5137 C   0  0  0  0  0  0  0  0  0  0  0  0
    7.5095   -2.0029   45.3993 C   0  0  0  0  0  0  0  0  0  0  0  0
    8.2550   -2.6982   46.3988 C   0  0  0  0  0  0  0  0  0  0  0  0
    8.8975   -0.3029   45.3267 O   0  0  0  0  0  0  0  0  0  0  0  0
    4.8299   -4.4637   46.4212 C   0  0  0  0  0  0  0  0  0  0  0  0
    4.2707   -4.9248   47.6295 N   0  0  0  0  0  0  0  0  0  0  0  0
    3.2045   -5.2092   47.1521 C   0  0  0  0  0  0  0  0  0  0  0  0
    1.4482   -4.6186   45.4134 C   0  0  1  0  0  0  0  0  0  0  0  0
    1.2398   -3.5043   44.6236 O   0  0  0  0  0  0  0  0  0  0  0  0
    7.8521   -3.9584   46.8773 C   0  0  0  0  0  0  0  0  0  0  0  0
    8.4079   -4.7553   47.7407 C   0  0  0  0  0  0  0  0  0  0  0  0
    5.9516   -3.8110   45.9146 C   0  0  0  0  0  0  0  0  0  0  0  0
    6.6436   -4.3892   46.6649 C   0  0  0  0  0  0  0  0  0  0  0  0
    9.5111   -5.5246   47.2994 O   0  0  0  0  0  0  0  0  0  0  0  0
   10.6238   -5.0197   46.8534 C   0  0  0  0  0  0  0  0  0  0  0  0
   11.5866   -4.7361   47.6189 C   0  0  0  0  0  0  0  0  0  0  0  0
    1.2153   -5.7944   44.5753 C   0  0  0  0  0  0  0  0  0  0  0  0
   10.7023   -4.6532   45.4361 C   0  0  0  0  0  0  0  0  0  0  0  0
   12.8078   -4.2193   47.0828 C   0  0  0  0  0  0  0  0  0  0  0  0
   11.7380   -4.2754   44.9534 C   0  0  0  0  0  0  0  0  0  0  0  0
   12.8675   -3.9423   45.7806 C   0  0  0  0  0  0  0  0  0  0  0  0
   14.0566   -3.3639   45.2876 O   0  0  0  0  0  0  0  0  0  0  0  0
   13.9925   -2.0653   44.7556 C   0  0  0  0  0  0  0  0  0  0  0  0
  1  2  1  0
  2  3  2  0
  3  4  1  0
  1  5  2  0
  4  5  1  0
  3  6  1  0
  4  7  2  0
  6  8  1  0
  8  9  1  0
  7 10  1  0
  9 11  1  0
  5 12  1  0
  7 13  1  0
  8 13  2  0
 10 14  1  0
 12 15  1  0
 12 16  2  0
 14 17  1  0
 15 18  1  0
 13 19  1  0
 16 20  1  0
 18 20  2  0
 11 21  1  0
 19 21  2  0
 21 22  1  0
 11 23  2  0
 14 24  2  0
 24 25  1  0
 17 26  1  0
 25 26  2  0
 17 27  1  0
 15 28  1  6
 27 28  1  0
 22 29  2  0
 29 30  1  0
 19 31  1  0
 24 31  1  0
 29 32  1  0
 31 32  2  0
 30 33  1  0
 33 34  1  0
 34 35  2  0
 27 36  1  6
 34 37  1  0
 35 38  1  0
 37 39  2  0
 38 40  2  0
 39 40  1  0
 40 41  1  0
 41 42  1  0
M  END
$$$$
O14757_Pocket2Mol_idx-in-all-generaetd-468
     RDKit          3D

 36 39  0  0  0  0  0  0  0  0999 V2000
    3.7044    0.1389   42.5158 N   0  0  0  0  0  0  0  0  0  0  0  0
    3.0206   -1.0018   42.4929 C   0  0  0  0  0  0  0  0  0  0  0  0
    3.4791   -2.0817   43.2077 C   0  0  0  0  0  0  0  0  0  0  0  0
    4.8540    0.3862   43.0582 N   0  0  0  0  0  0  0  0  0  0  0  0
    5.1377   -0.9552   43.7144 C   0  0  0  0  0  0  0  0  0  0  0  0
    1.5846   -1.0753   41.7644 C   0  0  0  0  0  0  0  0  0  0  0  0
    4.6026   -2.0358   43.8129 C   0  0  0  0  0  0  0  0  0  0  0  0
    5.1584   -3.1511   44.6069 C   0  0  0  0  0  0  0  0  0  0  0  0
    6.6094   -0.7911   44.3696 N   0  0  0  0  0  0  0  0  0  0  0  0
    4.4744   -4.3270   44.8472 C   0  0  0  0  0  0  0  0  0  0  0  0
    6.9275   -1.8713   45.2437 C   0  0  0  0  0  0  0  0  0  0  0  0
    8.2702   -1.7750   45.8768 C   0  0  0  0  0  0  0  0  0  0  0  0
    0.9365   -0.0867   41.7346 O   0  0  0  0  0  0  0  0  0  0  0  0
    6.2322   -3.0484   45.3118 C   0  0  0  0  0  0  0  0  0  0  0  0
    6.7747   -4.0433   46.1202 N   0  0  0  0  0  0  0  0  0  0  0  0
    1.2161   -2.2739   41.2518 N   0  0  0  0  0  0  0  0  0  0  0  0
    9.0373   -0.5649   45.9132 O   0  0  0  0  0  0  0  0  0  0  0  0
    3.8907   -5.0906   43.9511 O   0  0  0  0  0  0  0  0  0  0  0  0
    4.3454   -4.8388   46.1621 N   0  0  0  0  0  0  0  0  0  0  0  0
    3.4531   -5.8952   46.4159 C   0  0  0  0  0  0  0  0  0  0  0  0
    8.6904   -2.8983   46.6073 N   0  0  0  0  0  0  0  0  0  0  0  0
    7.9257   -3.9393   46.7384 C   0  0  0  0  0  0  0  0  0  0  0  0
    8.4765   -4.8975   47.5307 O   0  0  0  0  0  0  0  0  0  0  0  0
   10.0100   -2.6771   47.3464 C   0  0  0  0  0  0  0  0  0  0  0  0
   10.0326   -1.8380   48.3764 C   0  0  0  0  0  0  0  0  0  0  0  0
   11.1123   -3.0851   46.6870 C   0  0  0  0  0  0  0  0  0  0  0  0
   11.1072   -3.8213   45.4597 C   0  0  0  0  0  0  0  0  0  0  0  0
   11.0296   -5.0092   45.4509 C   0  0  0  0  0  0  0  0  0  0  0  0
   12.3326   -2.5048   47.0028 C   0  0  0  0  0  0  0  0  0  0  0  0
   13.5735   -2.8551   46.3066 C   0  0  0  0  0  0  0  0  0  0  0  0
   12.4256   -1.8909   48.2805 C   0  0  0  0  0  0  0  0  0  0  0  0
   14.2729   -1.7734   45.7615 C   0  0  0  0  0  0  0  0  0  0  0  0
   11.2610   -1.5364   48.9357 C   0  0  0  0  0  0  0  0  0  0  0  0
   13.5877   -0.9400   44.9530 O   0  0  0  0  0  0  0  0  0  0  0  0
   14.1608   -0.1266   44.0449 C   0  0  0  0  0  0  0  0  0  0  0  0
   15.5742   -1.7839   45.5183 O   0  0  0  0  0  0  0  0  0  0  0  0
  1  2  2  0
  2  3  1  0
  1  4  1  0
  4  5  2  0
  2  6  1  0
  3  7  2  0
  5  7  1  0
  7  8  1  0
  5  9  1  0
  8 10  1  0
  9 11  2  0
 11 12  1  0
  6 13  2  0
  8 14  2  0
 11 14  1  0
 14 15  1  0
  6 16  1  0
 12 17  2  0
 10 18  2  0
 10 19  1  0
 19 20  1  0
 12 21  1  0
 15 22  1  0
 21 22  1  0
 22 23  2  0
 21 24  1  0
 24 25  2  0
 24 26  1  0
 26 27  1  0
 27 28  2  0
 26 29  2  0
 29 30  1  0
 29 31  1  0
 30 32  1  0
 25 33  1  0
 31 33  2  0
 32 34  1  0
 34 35  1  0
 32 36  2  0
M  END
$$$$
O14757_Pocket2Mol_idx-in-all-generaetd-469
     RDKit          3D

 43 49  0  0  0  0  0  0  0  0999 V2000
    5.3420    0.2589   42.8836 O   0  0  0  0  0  0  0  0  0  0  0  0
    5.1627   -0.7554   43.4753 C   0  0  0  0  0  0  0  0  0  0  0  0
    4.0509   -1.4657   43.4177 N   0  0  0  0  0  0  0  0  0  0  0  0
    5.9969   -1.2317   44.6840 C   0  0  0  0  0  0  0  0  0  0  0  0
    2.9618   -1.1021   42.5918 C   0  0  1  0  0  0  0  0  0  0  0  0
    7.3392   -0.8596   44.8412 C   0  0  0  0  0  0  0  0  0  0  0  0
    1.9754   -2.0820   42.2741 C   0  0  0  0  0  0  0  0  0  0  0  0
    5.5910   -2.4282   45.3439 C   0  0  0  0  0  0  0  0  0  0  0  0
    6.5874   -2.9636   46.1581 C   0  0  0  0  0  0  0  0  0  0  0  0
    4.2763   -3.0680   45.0493 N   0  0  0  0  0  0  0  0  0  0  0  0
    3.6188   -2.5886   44.2024 C   0  0  0  0  0  0  0  0  0  0  0  0
    8.1921   -1.4071   45.7505 C   0  0  0  0  0  0  0  0  0  0  0  0
    1.0154   -1.8839   41.2980 C   0  0  0  0  0  0  0  0  0  0  0  0
    2.5720   -3.3564   43.9063 C   0  0  0  0  0  0  0  0  0  0  0  0
    0.2502   -2.8976   41.0751 C   0  0  0  0  0  0  0  0  0  0  0  0
    6.1761   -4.1775   47.0209 C   0  0  0  0  0  0  0  0  0  0  0  0
    1.7266   -3.1047   43.0115 C   0  0  2  0  0  0  0  0  0  0  0  0
    2.3696   -4.5367   44.7536 N   0  0  0  0  0  0  0  0  0  0  0  0
    1.2264   -5.2346   44.4693 C   0  0  0  0  0  0  0  0  0  0  0  0
    0.7187   -3.8955   42.5465 C   0  0  0  0  0  0  0  0  0  0  0  0
    9.4576   -0.8949   46.0327 N   0  0  0  0  0  0  0  0  0  0  0  0
    0.8625   -6.3901   45.2462 C   0  0  0  0  0  0  0  0  0  0  0  0
    7.6467   -2.5139   46.4892 C   0  0  0  0  0  0  0  0  0  0  0  0
   10.4908   -1.5336   45.8242 C   0  0  0  0  0  0  0  0  0  0  0  0
    0.3057   -4.9299   43.2909 C   0  0  0  0  0  0  0  0  0  0  0  0
   11.5916   -1.4291   46.7436 C   0  0  0  0  0  0  0  0  0  0  0  0
   10.5566   -2.3672   44.8649 O   0  0  0  0  0  0  0  0  0  0  0  0
    2.4730    0.2084   42.8389 O   0  0  0  0  0  0  0  0  0  0  0  0
   11.6027   -2.2081   47.7725 N   0  0  0  0  0  0  0  0  0  0  0  0
   12.6189   -0.5862   46.5415 C   0  0  0  0  0  0  0  0  0  0  0  0
   13.6413   -0.4484   47.4129 C   0  0  0  0  0  0  0  0  0  0  0  0
   10.4764   -3.1097   48.1134 C   0  0  0  0  0  0  0  0  0  0  0  0
    9.5762   -2.4717   49.0753 C   0  0  0  0  0  0  0  0  0  0  0  0
    9.7761   -1.2394   49.5167 C   0  0  0  0  0  0  0  0  0  0  0  0
    8.6397   -3.3252   49.7339 C   0  0  0  0  0  0  0  0  0  0  0  0
    8.9861   -0.7034   50.5819 C   0  0  0  0  0  0  0  0  0  0  0  0
   14.7137    0.5128   47.0925 C   0  0  0  0  0  0  0  0  0  0  0  0
    8.1815   -1.5423   51.2387 C   0  0  0  0  0  0  0  0  0  0  0  0
    8.4156   -4.7176   49.2102 O   0  0  0  0  0  0  0  0  0  0  0  0
    7.9436   -2.8856   50.8102 C   0  0  0  0  0  0  0  0  0  0  0  0
   12.6675   -2.1100   48.6466 C   0  0  0  0  0  0  0  0  0  0  0  0
    8.1466   -5.6065   49.9515 C   0  0  0  0  0  0  0  0  0  0  0  0
   13.5218   -1.3560   48.3859 C   0  0  0  0  0  0  0  0  0  0  0  0
  1  2  2  0
  2  3  1  0
  2  4  1  0
  3  5  1  0
  4  6  2  0
  5  7  1  0
  4  8  1  0
  8  9  2  0
  8 10  1  0
  3 11  1  0
 10 11  2  0
  6 12  1  0
  7 13  2  0
 11 14  1  0
 13 15  1  0
  9 16  1  0
 17  7  1  6
 14 17  1  0
 14 18  2  0
 18 19  1  0
 15 20  2  0
 17 20  1  0
 12 21  1  0
 19 22  1  0
  9 23  1  0
 12 23  2  0
 21 24  1  0
 19 25  2  0
 20 25  1  0
 24 26  1  0
 24 27  2  0
  5 28  1  1
 26 29  1  0
 26 30  2  0
 30 31  1  0
 29 32  1  0
 32 33  1  0
 33 34  2  0
 33 35  1  0
 34 36  1  0
 31 37  1  0
 36 38  2  0
 35 39  1  0
 35 40  2  0
 38 40  1  0
 29 41  1  0
 39 42  1  0
 31 43  2  0
 41 43  1  0
M  END
$$$$
O14757_Pocket2Mol_idx-in-all-generaetd-470
     RDKit          3D

 47 55  0  0  0  0  0  0  0  0999 V2000
    5.3420    0.2589   42.8836 O   0  0  0  0  0  0  0  0  0  0  0  0
    5.1627   -0.7554   43.4753 C   0  0  0  0  0  0  0  0  0  0  0  0
    4.0509   -1.4657   43.4177 N   0  0  0  0  0  0  0  0  0  0  0  0
    5.9969   -1.2317   44.6840 C   0  0  0  0  0  0  0  0  0  0  0  0
    2.9618   -1.1021   42.5918 C   0  0  1  0  0  0  0  0  0  0  0  0
    7.3392   -0.8596   44.8412 C   0  0  0  0  0  0  0  0  0  0  0  0
    1.9754   -2.0820   42.2741 C   0  0  0  0  0  0  0  0  0  0  0  0
    5.5910   -2.4282   45.3439 C   0  0  0  0  0  0  0  0  0  0  0  0
    6.5874   -2.9636   46.1581 C   0  0  0  0  0  0  0  0  0  0  0  0
    4.2763   -3.0680   45.0493 N   0  0  0  0  0  0  0  0  0  0  0  0
    3.6188   -2.5886   44.2024 C   0  0  0  0  0  0  0  0  0  0  0  0
    8.1921   -1.4071   45.7505 C   0  0  0  0  0  0  0  0  0  0  0  0
    1.0154   -1.8839   41.2980 C   0  0  0  0  0  0  0  0  0  0  0  0
    2.5720   -3.3564   43.9063 C   0  0  0  0  0  0  0  0  0  0  0  0
    0.2502   -2.8976   41.0751 C   0  0  0  0  0  0  0  0  0  0  0  0
    6.1761   -4.1775   47.0209 C   0  0  0  0  0  0  0  0  0  0  0  0
    1.7266   -3.1047   43.0115 C   0  0  2  0  0  0  0  0  0  0  0  0
    2.3696   -4.5367   44.7536 N   0  0  0  0  0  0  0  0  0  0  0  0
    1.2264   -5.2346   44.4693 C   0  0  0  0  0  0  0  0  0  0  0  0
    0.7187   -3.8955   42.5465 C   0  0  0  0  0  0  0  0  0  0  0  0
    9.4576   -0.8949   46.0327 N   0  0  0  0  0  0  0  0  0  0  0  0
    0.8625   -6.3901   45.2462 C   0  0  0  0  0  0  0  0  0  0  0  0
    7.6467   -2.5139   46.4892 C   0  0  0  0  0  0  0  0  0  0  0  0
   10.4908   -1.5336   45.8242 C   0  0  0  0  0  0  0  0  0  0  0  0
    0.3057   -4.9299   43.2909 C   0  0  0  0  0  0  0  0  0  0  0  0
   11.5916   -1.4291   46.7436 C   0  0  0  0  0  0  0  0  0  0  0  0
   10.5566   -2.3672   44.8649 O   0  0  0  0  0  0  0  0  0  0  0  0
    2.4730    0.2084   42.8389 O   0  0  0  0  0  0  0  0  0  0  0  0
   11.6027   -2.2081   47.7725 N   0  0  0  0  0  0  0  0  0  0  0  0
   12.6189   -0.5862   46.5415 C   0  0  0  0  0  0  0  0  0  0  0  0
   13.6413   -0.4484   47.4129 C   0  0  0  0  0  0  0  0  0  0  0  0
   10.4764   -3.1097   48.1134 C   0  0  0  0  0  0  0  0  0  0  0  0
    9.5762   -2.4717   49.0753 C   0  0  0  0  0  0  0  0  0  0  0  0
    9.7761   -1.2394   49.5167 C   0  0  0  0  0  0  0  0  0  0  0  0
    8.6397   -3.3252   49.7339 C   0  0  0  0  0  0  0  0  0  0  0  0
    8.9861   -0.7034   50.5819 C   0  0  0  0  0  0  0  0  0  0  0  0
   14.7137    0.5128   47.0925 C   0  0  0  0  0  0  0  0  0  0  0  0
    8.1815   -1.5423   51.2387 C   0  0  0  0  0  0  0  0  0  0  0  0
    8.4156   -4.7176   49.2102 O   0  0  0  0  0  0  0  0  0  0  0  0
   13.6915   -1.2597   48.4795 C   0  0  0  0  0  0  0  0  0  0  0  0
   14.7842   -1.1839   49.3622 C   0  0  0  0  0  0  0  0  0  0  0  0
   15.7412    0.6156   47.9897 C   0  0  0  0  0  0  0  0  0  0  0  0
   12.6237   -2.1211   48.7484 C   0  0  0  0  0  0  0  0  0  0  0  0
    7.9445   -2.8715   50.7952 C   0  0  0  0  0  0  0  0  0  0  0  0
    7.1916   -5.2295   49.3738 C   0  0  0  0  0  0  0  0  0  0  0  0
    7.0689   -4.9489   47.7227 C   0  0  0  0  0  0  0  0  0  0  0  0
   15.8040   -0.2383   49.1105 C   0  0  0  0  0  0  0  0  0  0  0  0
  1  2  2  0
  2  3  1  0
  2  4  1  0
  3  5  1  0
  4  6  2  0
  5  7  1  0
  4  8  1  0
  8  9  2  0
  8 10  1  0
  3 11  1  0
 10 11  2  0
  6 12  1  0
  7 13  2  0
 11 14  1  0
 13 15  1  0
  9 16  1  0
 17  7  1  6
 14 17  1  0
 14 18  2  0
 18 19  1  0
 15 20  2  0
 17 20  1  0
 12 21  1  0
 19 22  1  0
  9 23  1  0
 12 23  2  0
 21 24  1  0
 19 25  2  0
 20 25  1  0
 24 26  1  0
 24 27  2  0
  5 28  1  1
 26 29  1  0
 26 30  2  0
 30 31  1  0
 29 32  1  0
 32 33  1  0
 33 34  1  0
 33 35  2  0
 34 36  2  0
 31 37  2  0
 36 38  1  0
 35 39  1  0
 31 40  1  0
 40 41  2  0
 37 42  1  0
 29 43  1  0
 40 43  1  0
 35 44  1  0
 38 44  2  0
 39 45  1  0
 16 46  1  0
 45 46  1  0
 41 47  1  0
 42 47  2  0
M  END
$$$$
O14757_Pocket2Mol_idx-in-all-generaetd-471
     RDKit          3D

 45 52  0  0  0  0  0  0  0  0999 V2000
    5.3420    0.2589   42.8836 O   0  0  0  0  0  0  0  0  0  0  0  0
    5.1627   -0.7554   43.4753 C   0  0  0  0  0  0  0  0  0  0  0  0
    4.0509   -1.4657   43.4177 N   0  0  0  0  0  0  0  0  0  0  0  0
    5.9969   -1.2317   44.6840 C   0  0  0  0  0  0  0  0  0  0  0  0
    2.9618   -1.1021   42.5918 C   0  0  1  0  0  0  0  0  0  0  0  0
    7.3392   -0.8596   44.8412 C   0  0  0  0  0  0  0  0  0  0  0  0
    1.9754   -2.0820   42.2741 C   0  0  0  0  0  0  0  0  0  0  0  0
    5.5910   -2.4282   45.3439 C   0  0  0  0  0  0  0  0  0  0  0  0
    6.5874   -2.9636   46.1581 C   0  0  0  0  0  0  0  0  0  0  0  0
    4.2763   -3.0680   45.0493 N   0  0  0  0  0  0  0  0  0  0  0  0
    3.6188   -2.5886   44.2024 C   0  0  0  0  0  0  0  0  0  0  0  0
    8.1921   -1.4071   45.7505 C   0  0  0  0  0  0  0  0  0  0  0  0
    1.0154   -1.8839   41.2980 C   0  0  0  0  0  0  0  0  0  0  0  0
    2.5720   -3.3564   43.9063 C   0  0  0  0  0  0  0  0  0  0  0  0
    0.2502   -2.8976   41.0751 C   0  0  0  0  0  0  0  0  0  0  0  0
    6.1761   -4.1775   47.0209 C   0  0  0  0  0  0  0  0  0  0  0  0
    1.7266   -3.1047   43.0115 C   0  0  2  0  0  0  0  0  0  0  0  0
    2.3696   -4.5367   44.7536 N   0  0  0  0  0  0  0  0  0  0  0  0
    1.2264   -5.2346   44.4693 C   0  0  0  0  0  0  0  0  0  0  0  0
    0.7187   -3.8955   42.5465 C   0  0  0  0  0  0  0  0  0  0  0  0
    9.4576   -0.8949   46.0327 N   0  0  0  0  0  0  0  0  0  0  0  0
    0.8625   -6.3901   45.2462 C   0  0  0  0  0  0  0  0  0  0  0  0
    7.6467   -2.5139   46.4892 C   0  0  0  0  0  0  0  0  0  0  0  0
   10.4908   -1.5336   45.8242 C   0  0  0  0  0  0  0  0  0  0  0  0
    0.3057   -4.9299   43.2909 C   0  0  0  0  0  0  0  0  0  0  0  0
   11.5916   -1.4291   46.7436 C   0  0  0  0  0  0  0  0  0  0  0  0
   10.5566   -2.3672   44.8649 O   0  0  0  0  0  0  0  0  0  0  0  0
   12.8421   -1.9355   46.2823 C   0  0  0  0  0  0  0  0  0  0  0  0
   13.4833   -2.8582   46.9841 C   0  0  0  0  0  0  0  0  0  0  0  0
   11.4002   -1.1447   48.0540 C   0  0  0  0  0  0  0  0  0  0  0  0
   10.2867   -0.4569   48.4999 O   0  0  0  0  0  0  0  0  0  0  0  0
   12.3327   -1.4798   48.9564 C   0  0  1  0  0  0  0  0  0  0  0  0
   14.7901   -3.3162   46.6439 C   0  0  0  0  0  0  0  0  0  0  0  0
   12.1651   -1.3050   50.3239 O   0  0  0  0  0  0  0  0  0  0  0  0
   15.6765   -2.5740   46.0979 C   0  0  0  0  0  0  0  0  0  0  0  0
    2.4608    0.2106   42.8512 C   0  0  0  0  0  0  0  0  0  0  0  0
   15.5213   -1.2590   45.7606 C   0  0  0  0  0  0  0  0  0  0  0  0
   14.5349   -0.8899   44.8574 C   0  0  0  0  0  0  0  0  0  0  0  0
   12.9775   -3.3460   48.2127 C   0  0  0  0  0  0  0  0  0  0  0  0
   14.7129   -0.1943   43.8652 C   0  0  0  0  0  0  0  0  0  0  0  0
   13.1163   -1.3789   45.0490 O   0  0  0  0  0  0  0  0  0  0  0  0
   16.0442    0.3600   43.7609 C   0  0  0  0  0  0  0  0  0  0  0  0
   12.9414   -2.5996   49.2994 C   0  0  0  0  0  0  0  0  0  0  0  0
   16.8735   -0.7939   45.4270 C   0  0  0  0  0  0  0  0  0  0  0  0
   17.0013    0.1866   44.4580 C   0  0  0  0  0  0  0  0  0  0  0  0
  1  2  2  0
  2  3  1  0
  2  4  1  0
  3  5  1  0
  4  6  2  0
  5  7  1  0
  4  8  1  0
  8  9  2  0
  8 10  1  0
  3 11  1  0
 10 11  2  0
  6 12  1  0
  7 13  2  0
 11 14  1  0
 13 15  1  0
  9 16  1  0
 17  7  1  6
 14 17  1  0
 14 18  2  0
 18 19  1  0
 15 20  2  0
 17 20  1  0
 12 21  1  0
 19 22  1  0
  9 23  1  0
 12 23  2  0
 21 24  1  0
 19 25  2  0
 20 25  1  0
 24 26  1  0
 24 27  2  0
 26 28  1  0
 28 29  2  0
 26 30  2  0
 30 31  1  0
 30 32  1  0
 29 33  1  0
 32 34  1  1
 33 35  2  0
  5 36  1  1
 35 37  1  0
 37 38  2  0
 29 39  1  0
 38 40  1  0
 28 41  1  0
 38 41  1  0
 40 42  2  0
 32 43  1  0
 39 43  1  0
 37 44  1  0
 42 45  1  0
 44 45  2  0
M  END
$$$$
O14757_Pocket2Mol_idx-in-all-generaetd-472
     RDKit          3D

 37 41  0  0  0  0  0  0  0  0999 V2000
    3.7044    0.1389   42.5158 N   0  0  0  0  0  0  0  0  0  0  0  0
    3.0206   -1.0018   42.4929 C   0  0  0  0  0  0  0  0  0  0  0  0
    3.4791   -2.0817   43.2077 C   0  0  0  0  0  0  0  0  0  0  0  0
    4.8540    0.3862   43.0582 N   0  0  0  0  0  0  0  0  0  0  0  0
    5.1377   -0.9552   43.7144 C   0  0  0  0  0  0  0  0  0  0  0  0
    1.5846   -1.0753   41.7644 C   0  0  0  0  0  0  0  0  0  0  0  0
    4.6026   -2.0358   43.8129 C   0  0  0  0  0  0  0  0  0  0  0  0
    5.1584   -3.1511   44.6069 C   0  0  0  0  0  0  0  0  0  0  0  0
    6.6094   -0.7911   44.3696 N   0  0  0  0  0  0  0  0  0  0  0  0
    4.4744   -4.3270   44.8472 C   0  0  0  0  0  0  0  0  0  0  0  0
    6.9275   -1.8713   45.2437 C   0  0  0  0  0  0  0  0  0  0  0  0
    8.2702   -1.7750   45.8768 C   0  0  0  0  0  0  0  0  0  0  0  0
    0.9365   -0.0867   41.7346 O   0  0  0  0  0  0  0  0  0  0  0  0
    6.2322   -3.0484   45.3118 C   0  0  0  0  0  0  0  0  0  0  0  0
    6.7747   -4.0433   46.1202 N   0  0  0  0  0  0  0  0  0  0  0  0
    1.2161   -2.2739   41.2518 N   0  0  0  0  0  0  0  0  0  0  0  0
    9.0373   -0.5649   45.9132 O   0  0  0  0  0  0  0  0  0  0  0  0
    3.8907   -5.0906   43.9511 O   0  0  0  0  0  0  0  0  0  0  0  0
    4.3454   -4.8388   46.1621 N   0  0  0  0  0  0  0  0  0  0  0  0
    3.4531   -5.8952   46.4159 C   0  0  0  0  0  0  0  0  0  0  0  0
    8.6904   -2.8983   46.6073 N   0  0  0  0  0  0  0  0  0  0  0  0
    7.9257   -3.9393   46.7384 C   0  0  0  0  0  0  0  0  0  0  0  0
    8.4765   -4.8975   47.5307 O   0  0  0  0  0  0  0  0  0  0  0  0
   10.0100   -2.6771   47.3464 C   0  0  0  0  0  0  0  0  0  0  0  0
   10.0326   -1.8380   48.3764 C   0  0  0  0  0  0  0  0  0  0  0  0
   11.1123   -3.0851   46.6870 C   0  0  0  0  0  0  0  0  0  0  0  0
   11.1072   -3.8213   45.4597 C   0  0  0  0  0  0  0  0  0  0  0  0
   11.0296   -5.0092   45.4509 C   0  0  0  0  0  0  0  0  0  0  0  0
   12.3326   -2.5048   47.0028 C   0  0  0  0  0  0  0  0  0  0  0  0
   13.5735   -2.8551   46.3066 C   0  0  0  0  0  0  0  0  0  0  0  0
   12.4256   -1.8909   48.2805 C   0  0  0  0  0  0  0  0  0  0  0  0
   11.1065   -5.8602   44.2346 C   0  0  0  0  0  0  0  0  0  0  0  0
   13.7113   -1.5168   48.7735 C   0  0  0  0  0  0  0  0  0  0  0  0
   14.8334   -2.4198   46.8061 C   0  0  0  0  0  0  0  0  0  0  0  0
   11.3163   -1.5396   49.0460 C   0  0  0  0  0  0  0  0  0  0  0  0
   16.0673   -2.6799   46.0859 C   0  0  0  0  0  0  0  0  0  0  0  0
   14.7442   -1.7436   47.8960 C   0  0  0  0  0  0  0  0  0  0  0  0
  1  2  2  0
  2  3  1  0
  1  4  1  0
  4  5  2  0
  2  6  1  0
  3  7  2  0
  5  7  1  0
  7  8  1  0
  5  9  1  0
  8 10  1  0
  9 11  2  0
 11 12  1  0
  6 13  2  0
  8 14  2  0
 11 14  1  0
 14 15  1  0
  6 16  1  0
 12 17  2  0
 10 18  2  0
 10 19  1  0
 19 20  1  0
 12 21  1  0
 15 22  1  0
 21 22  1  0
 22 23  2  0
 21 24  1  0
 24 25  2  0
 24 26  1  0
 26 27  1  0
 27 28  2  3
 26 29  2  0
 29 30  1  0
 29 31  1  0
 28 32  1  0
 31 33  1  0
 30 34  2  0
 25 35  1  0
 31 35  2  0
 34 36  1  0
 33 37  2  0
 34 37  1  0
M  END
$$$$
O14757_Pocket2Mol_idx-in-all-generaetd-473
     RDKit          3D

 42 50  0  0  0  0  0  0  0  0999 V2000
    1.5482   -0.3111   41.9233 C   0  0  0  0  0  0  0  0  0  0  0  0
    2.7284    0.2018   42.1525 N   0  0  0  0  0  0  0  0  0  0  0  0
    3.7893   -0.3016   42.7005 C   0  0  0  0  0  0  0  0  0  0  0  0
    3.3781   -1.7350   43.0000 C   0  0  0  0  0  0  0  0  0  0  0  0
    2.0339   -1.9619   42.6217 C   0  0  0  0  0  0  0  0  0  0  0  0
    5.0090    0.1219   42.9340 N   0  0  0  0  0  0  0  0  0  0  0  0
    4.2895   -2.4979   43.6707 C   0  0  0  0  0  0  0  0  0  0  0  0
    5.8391   -0.6675   43.6343 C   0  0  0  0  0  0  0  0  0  0  0  0
    6.9849   -0.2377   44.0028 N   0  0  0  0  0  0  0  0  0  0  0  0
    4.0426   -3.8794   44.0832 C   0  0  0  0  0  0  0  0  0  0  0  0
    7.6796   -0.8734   44.9326 C   0  0  0  0  0  0  0  0  0  0  0  0
    1.1064   -2.9576   42.4211 C   0  0  0  0  0  0  0  0  0  0  0  0
    5.5298   -1.9496   44.0315 C   0  0  0  0  0  0  0  0  0  0  0  0
    3.8954   -4.1817   45.4718 C   0  0  0  0  0  0  0  0  0  0  0  0
    0.6765   -3.5480   43.4006 C   0  0  1  0  0  0  0  0  0  0  0  0
    0.5804   -3.2191   41.1635 C   0  0  0  0  0  0  0  0  0  0  0  0
    2.8083   -4.8227   45.9203 N   0  0  0  0  0  0  0  0  0  0  0  0
   -0.1574   -4.5754   42.9329 N   0  0  0  0  0  0  0  0  0  0  0  0
    6.5271   -2.5531   44.9677 C   0  0  0  0  0  0  0  0  0  0  0  0
   -0.2272   -4.3703   41.5137 C   0  0  0  0  0  0  0  0  0  0  0  0
    7.5095   -2.0029   45.3993 C   0  0  0  0  0  0  0  0  0  0  0  0
    8.2550   -2.6982   46.3988 C   0  0  2  0  0  0  0  0  0  0  0  0
    8.8975   -0.3029   45.3267 O   0  0  0  0  0  0  0  0  0  0  0  0
    4.8299   -4.4637   46.4212 C   0  0  0  0  0  0  0  0  0  0  0  0
    4.2707   -4.9248   47.6295 N   0  0  0  0  0  0  0  0  0  0  0  0
    3.2045   -5.2092   47.1521 C   0  0  0  0  0  0  0  0  0  0  0  0
    1.4482   -4.6186   45.4134 C   0  0  2  0  0  0  0  0  0  0  0  0
    1.2398   -3.5043   44.6236 O   0  0  0  0  0  0  0  0  0  0  0  0
    6.3317   -3.9297   46.0870 C   0  0  2  0  0  0  0  0  0  0  0  0
    9.5296   -2.5449   46.9776 C   0  0  0  0  0  0  0  0  0  0  0  0
    9.7921   -1.7530   47.9018 O   0  0  0  0  0  0  0  0  0  0  0  0
    7.4454   -3.8344   46.8035 C   0  0  0  0  0  0  0  0  0  0  0  0
   10.5010   -3.0847   46.3190 O   0  0  0  0  0  0  0  0  0  0  0  0
    0.5569   -4.7693   46.5649 C   0  0  0  0  0  0  0  0  0  0  0  0
   11.7452   -2.8462   46.6234 C   0  0  1  0  0  0  0  0  0  0  0  0
   12.4186   -3.8680   47.1468 C   0  0  1  0  0  0  0  0  0  0  0  0
   11.9026   -5.0270   47.0501 O   0  0  0  0  0  0  0  0  0  0  0  0
   12.4007   -2.3595   45.2496 C   0  0  0  0  0  0  0  0  0  0  0  0
   11.9866   -5.9663   48.0884 C   0  0  0  0  0  0  0  0  0  0  0  0
   13.8038   -3.9309   46.8282 O   0  0  0  0  0  0  0  0  0  0  0  0
   14.4962   -2.6699   46.5519 C   0  0  0  0  0  0  0  0  0  0  0  0
   13.8040   -1.8754   45.4529 C   0  0  0  0  0  0  0  0  0  0  0  0
  1  2  1  0
  2  3  2  0
  3  4  1  0
  1  5  2  0
  4  5  1  0
  3  6  1  0
  4  7  2  0
  6  8  1  0
  8  9  1  0
  7 10  1  0
  9 11  1  0
  5 12  1  0
  7 13  1  0
  8 13  2  0
 10 14  1  0
 12 15  1  0
 12 16  2  0
 14 17  1  0
 15 18  1  0
 13 19  1  0
 16 20  1  0
 18 20  2  0
 11 21  1  0
 19 21  2  0
 21 22  1  0
 11 23  2  0
 14 24  2  0
 24 25  1  0
 17 26  1  0
 25 26  2  0
 17 27  1  0
 15 28  1  6
 27 28  1  0
 19 29  1  0
 24 29  1  0
 22 30  1  6
 30 31  2  0
 22 32  1  0
 29 32  1  1
 30 33  1  0
 27 34  1  1
 35 33  1  6
 35 36  1  0
 36 37  1  6
 35 38  1  0
 37 39  1  0
 36 40  1  0
 40 41  1  0
 38 42  1  0
 41 42  1  0
M  END
$$$$
O14757_Pocket2Mol_idx-in-all-generaetd-474
     RDKit          3D

 37 44  0  0  0  0  0  0  0  0999 V2000
    4.8173    0.2791   42.6993 N   0  0  0  0  0  0  0  0  0  0  0  0
    5.3297   -0.7477   43.3688 C   0  0  0  0  0  0  0  0  0  0  0  0
    3.4732   -0.2235   42.4530 C   0  0  0  0  0  0  0  0  0  0  0  0
    4.4984   -1.7876   43.6214 C   0  0  0  0  0  0  0  0  0  0  0  0
    3.3438   -1.5190   42.9379 C   0  0  0  0  0  0  0  0  0  0  0  0
    2.1381   -2.3401   42.8254 C   0  0  0  0  0  0  0  0  0  0  0  0
    2.3894    0.3572   41.9843 N   0  0  0  0  0  0  0  0  0  0  0  0
    4.9180   -3.0430   44.3829 C   0  0  0  0  0  0  0  0  0  0  0  0
    5.9444   -2.9314   45.3934 C   0  0  0  0  0  0  0  0  0  0  0  0
    4.2808   -4.1329   44.3252 C   0  0  0  0  0  0  0  0  0  0  0  0
    3.1588   -4.4221   43.4852 O   0  0  0  0  0  0  0  0  0  0  0  0
    4.5704   -5.2518   45.1995 C   0  0  0  0  0  0  0  0  0  0  0  0
    1.9853   -3.6792   43.3495 C   0  0  0  0  0  0  0  0  0  0  0  0
    0.9181   -4.3294   43.4638 C   0  0  0  0  0  0  0  0  0  0  0  0
    6.7403   -1.6226   45.5272 C   0  0  0  0  0  0  0  0  0  0  0  0
    0.9752   -1.7845   42.3366 C   0  0  0  0  0  0  0  0  0  0  0  0
    5.5543   -5.1294   46.1078 C   0  0  0  0  0  0  0  0  0  0  0  0
    7.9772   -1.5901   46.1526 C   0  0  0  0  0  0  0  0  0  0  0  0
    8.6171   -2.7180   46.2255 N   0  0  0  0  0  0  0  0  0  0  0  0
    6.5160   -0.7262   44.3482 C   0  0  0  0  0  0  0  0  0  0  0  0
    5.8670   -6.1665   47.0241 O   0  0  0  0  0  0  0  0  0  0  0  0
   -0.2437   -2.4672   42.2827 C   0  0  0  0  0  0  0  0  0  0  0  0
   -0.2692   -3.7414   42.8178 C   0  0  0  0  0  0  0  0  0  0  0  0
    6.3047   -3.9815   46.2287 C   0  0  0  0  0  0  0  0  0  0  0  0
    8.0291   -3.5777   47.1715 C   0  0  0  0  0  0  0  0  0  0  0  0
    7.2074   -4.2766   47.0234 C   0  0  0  0  0  0  0  0  0  0  0  0
    1.1879   -0.4281   41.8692 C   0  0  0  0  0  0  0  0  0  0  0  0
   10.1009   -2.3306   46.5895 C   0  0  0  0  0  0  0  0  0  0  0  0
   10.5049   -1.2887   46.4663 O   0  0  0  0  0  0  0  0  0  0  0  0
   10.9104   -3.4150   47.1173 C   0  0  0  0  0  0  0  0  0  0  0  0
   11.1982   -4.4016   46.2515 C   0  0  0  0  0  0  0  0  0  0  0  0
   11.7101   -3.1924   48.2324 C   0  0  0  0  0  0  0  0  0  0  0  0
   12.0522   -5.4329   46.5848 C   0  0  0  0  0  0  0  0  0  0  0  0
   12.7511   -5.3217   47.7489 C   0  0  0  0  0  0  0  0  0  0  0  0
   13.7475   -6.3603   48.1112 O   0  0  0  0  0  0  0  0  0  0  0  0
   14.8244   -6.4594   47.4312 C   0  0  0  0  0  0  0  0  0  0  0  0
   12.5958   -4.2168   48.6141 C   0  0  0  0  0  0  0  0  0  0  0  0
  1  2  2  0
  1  3  1  0
  2  4  1  0
  3  5  1  0
  4  5  2  0
  5  6  1  0
  3  7  2  0
  4  8  1  0
  8  9  2  0
  8 10  1  0
 10 11  1  0
 10 12  2  0
  6 13  2  0
 11 13  1  0
 13 14  1  0
  9 15  1  0
  6 16  1  0
 12 17  1  0
 15 18  1  0
 18 19  1  0
  2 20  1  0
 15 20  2  0
 17 21  1  0
 16 22  2  0
 14 23  2  0
 22 23  1  0
  9 24  1  0
 17 24  2  0
 19 25  1  0
 24 26  1  0
 25 26  2  0
  7 27  1  0
 16 27  1  0
 19 28  1  0
 28 29  2  0
 28 30  1  0
 30 31  2  0
 30 32  1  0
 31 33  1  0
 33 34  2  0
 34 35  1  0
 35 36  1  0
 32 37  2  0
 34 37  1  0
M  END
$$$$
O14757_Pocket2Mol_idx-in-all-generaetd-475
     RDKit          3D

 45 54  0  0  0  0  0  0  0  0999 V2000
    1.5482   -0.3111   41.9233 C   0  0  0  0  0  0  0  0  0  0  0  0
    2.7284    0.2018   42.1525 N   0  0  0  0  0  0  0  0  0  0  0  0
    3.7893   -0.3016   42.7005 C   0  0  0  0  0  0  0  0  0  0  0  0
    3.3781   -1.7350   43.0000 C   0  0  0  0  0  0  0  0  0  0  0  0
    2.0339   -1.9619   42.6217 C   0  0  0  0  0  0  0  0  0  0  0  0
    5.0090    0.1219   42.9340 N   0  0  0  0  0  0  0  0  0  0  0  0
    4.2895   -2.4979   43.6707 C   0  0  0  0  0  0  0  0  0  0  0  0
    5.8391   -0.6675   43.6343 C   0  0  0  0  0  0  0  0  0  0  0  0
    6.9849   -0.2377   44.0028 N   0  0  0  0  0  0  0  0  0  0  0  0
    4.0426   -3.8794   44.0832 C   0  0  0  0  0  0  0  0  0  0  0  0
    7.6796   -0.8734   44.9326 C   0  0  0  0  0  0  0  0  0  0  0  0
    1.1064   -2.9576   42.4211 C   0  0  0  0  0  0  0  0  0  0  0  0
    5.5298   -1.9496   44.0315 C   0  0  0  0  0  0  0  0  0  0  0  0
    3.8954   -4.1817   45.4718 C   0  0  0  0  0  0  0  0  0  0  0  0
    0.6765   -3.5480   43.4006 C   0  0  1  0  0  0  0  0  0  0  0  0
    0.5804   -3.2191   41.1635 C   0  0  0  0  0  0  0  0  0  0  0  0
    2.8083   -4.8227   45.9203 N   0  0  0  0  0  0  0  0  0  0  0  0
   -0.1574   -4.5754   42.9329 N   0  0  0  0  0  0  0  0  0  0  0  0
    6.5271   -2.5531   44.9677 C   0  0  0  0  0  0  0  0  0  0  0  0
   -0.2272   -4.3703   41.5137 C   0  0  0  0  0  0  0  0  0  0  0  0
    7.5095   -2.0029   45.3993 C   0  0  0  0  0  0  0  0  0  0  0  0
    8.2550   -2.6982   46.3988 C   0  0  0  0  0  0  0  0  0  0  0  0
    8.8975   -0.3029   45.3267 O   0  0  0  0  0  0  0  0  0  0  0  0
    4.8299   -4.4637   46.4212 C   0  0  0  0  0  0  0  0  0  0  0  0
    4.2707   -4.9248   47.6295 N   0  0  0  0  0  0  0  0  0  0  0  0
    3.2045   -5.2092   47.1521 C   0  0  0  0  0  0  0  0  0  0  0  0
    1.4482   -4.6186   45.4134 C   0  0  1  0  0  0  0  0  0  0  0  0
    1.2398   -3.5043   44.6236 O   0  0  0  0  0  0  0  0  0  0  0  0
    6.3317   -3.9297   46.0870 C   0  0  2  0  0  0  0  0  0  0  0  0
    9.5296   -2.5449   46.9776 C   0  0  0  0  0  0  0  0  0  0  0  0
    9.7921   -1.7530   47.9018 O   0  0  0  0  0  0  0  0  0  0  0  0
    7.3972   -3.8130   46.7939 C   0  0  0  0  0  0  0  0  0  0  0  0
    1.2392   -5.7793   44.5610 C   0  0  0  0  0  0  0  0  0  0  0  0
   10.4934   -3.0755   46.3117 O   0  0  0  0  0  0  0  0  0  0  0  0
   11.7815   -2.6102   46.5288 C   0  0  0  0  0  0  0  0  0  0  0  0
   12.3688   -2.2857   45.2615 C   0  0  0  0  0  0  0  0  0  0  0  0
   13.6571   -1.6435   45.3063 C   0  0  0  0  0  0  0  0  0  0  0  0
   14.2956   -1.1724   44.0010 C   0  0  0  0  0  0  0  0  0  0  0  0
   14.2846   -1.4302   46.4743 C   0  0  0  0  0  0  0  0  0  0  0  0
   15.5365   -0.7666   46.4357 C   0  0  0  0  0  0  0  0  0  0  0  0
   12.3890   -2.3591   47.6394 C   0  0  0  0  0  0  0  0  0  0  0  0
   13.6384   -1.7981   47.6489 C   0  0  0  0  0  0  0  0  0  0  0  0
   16.1495   -0.5199   47.6820 O   0  0  0  0  0  0  0  0  0  0  0  0
   16.1510   -0.4154   45.3009 C   0  0  0  0  0  0  0  0  0  0  0  0
   15.5114   -0.6583   44.0797 C   0  0  0  0  0  0  0  0  0  0  0  0
  1  2  1  0
  2  3  2  0
  3  4  1  0
  1  5  2  0
  4  5  1  0
  3  6  1  0
  4  7  2  0
  6  8  1  0
  8  9  1  0
  7 10  1  0
  9 11  1  0
  5 12  1  0
  7 13  1  0
  8 13  2  0
 10 14  1  0
 12 15  1  0
 12 16  2  0
 14 17  1  0
 15 18  1  0
 13 19  1  0
 16 20  1  0
 18 20  2  0
 11 21  1  0
 19 21  2  0
 21 22  1  0
 11 23  2  0
 14 24  2  0
 24 25  1  0
 17 26  1  0
 25 26  2  0
 17 27  1  0
 15 28  1  6
 27 28  1  0
 19 29  1  0
 24 29  1  0
 22 30  1  0
 30 31  2  0
 22 32  2  0
 29 32  1  1
 27 33  1  6
 30 34  1  0
 34 35  1  0
 35 36  2  0
 36 37  1  0
 37 38  2  0
 37 39  1  0
 39 40  2  0
 35 41  1  0
 39 42  1  0
 41 42  2  0
 40 43  1  0
 40 44  1  0
 38 45  1  0
 44 45  2  0
M  END
$$$$
O14757_Pocket2Mol_idx-in-all-generaetd-476
     RDKit          3D

 40 47  0  0  0  0  0  0  0  0999 V2000
    1.5482   -0.3111   41.9233 C   0  0  0  0  0  0  0  0  0  0  0  0
    2.7284    0.2018   42.1525 N   0  0  0  0  0  0  0  0  0  0  0  0
    3.7893   -0.3016   42.7005 C   0  0  0  0  0  0  0  0  0  0  0  0
    3.3781   -1.7350   43.0000 C   0  0  0  0  0  0  0  0  0  0  0  0
    2.0339   -1.9619   42.6217 C   0  0  0  0  0  0  0  0  0  0  0  0
    4.1166   -2.4997   43.8458 C   0  0  0  0  0  0  0  0  0  0  0  0
    1.1731   -3.0051   42.5773 C   0  0  0  0  0  0  0  0  0  0  0  0
    0.4701   -3.2344   41.4901 C   0  0  0  0  0  0  0  0  0  0  0  0
    5.3799   -1.7814   44.2691 C   0  0  0  0  0  0  0  0  0  0  0  0
    5.0159   -0.0180   43.1201 N   0  0  0  0  0  0  0  0  0  0  0  0
    5.7693   -0.6937   43.8418 C   0  0  0  0  0  0  0  0  0  0  0  0
    0.8078   -3.6166   43.6782 C   0  0  0  0  0  0  0  0  0  0  0  0
    0.0663   -4.7011   43.7415 N   0  0  0  0  0  0  0  0  0  0  0  0
    6.2223   -2.6843   45.1565 C   0  0  0  0  0  0  0  0  0  0  0  0
    6.9599   -0.2351   44.2608 N   0  0  0  0  0  0  0  0  0  0  0  0
    5.9065   -3.9037   45.7499 N   0  0  0  0  0  0  0  0  0  0  0  0
   -0.5459   -5.1185   42.5870 C   0  0  0  0  0  0  0  0  0  0  0  0
    5.7480   -4.0340   46.9810 C   0  0  0  0  0  0  0  0  0  0  0  0
    7.4448   -1.8511   45.4198 C   0  0  0  0  0  0  0  0  0  0  0  0
    7.7572   -0.7827   45.0128 C   0  0  0  0  0  0  0  0  0  0  0  0
    8.4076   -2.7217   46.4541 C   0  0  0  0  0  0  0  0  0  0  0  0
    9.3167   -2.0988   47.1049 N   0  0  0  0  0  0  0  0  0  0  0  0
   -0.4719   -4.3893   41.5406 C   0  0  0  0  0  0  0  0  0  0  0  0
    8.3667   -4.0284   46.5743 N   0  0  0  0  0  0  0  0  0  0  0  0
    9.5309   -4.3147   47.3094 C   0  0  0  0  0  0  0  0  0  0  0  0
    5.3113   -3.3789   47.8005 O   0  0  0  0  0  0  0  0  0  0  0  0
    9.9022   -5.6301   47.7684 C   0  0  0  0  0  0  0  0  0  0  0  0
    5.4470   -5.5868   47.2096 C   0  0  0  0  0  0  0  0  0  0  0  0
   11.2254   -5.8679   48.0402 C   0  0  0  0  0  0  0  0  0  0  0  0
    8.9736   -6.6532   47.8548 C   0  0  0  0  0  0  0  0  0  0  0  0
   10.0616   -3.0670   47.6360 C   0  0  0  0  0  0  0  0  0  0  0  0
    7.5566   -6.3564   47.5477 N   0  0  0  0  0  0  0  0  0  0  0  0
    6.4157   -6.1721   48.0913 C   0  0  0  0  0  0  0  0  0  0  0  0
   12.3275   -4.8510   47.9324 C   0  0  0  0  0  0  0  0  0  0  0  0
    9.3494   -7.8378   48.4266 C   0  0  0  0  0  0  0  0  0  0  0  0
   11.2226   -2.8389   48.5368 C   0  0  0  0  0  0  0  0  0  0  0  0
   12.2713   -3.7216   48.7557 N   0  0  0  0  0  0  0  0  0  0  0  0
   11.5574   -7.0830   48.3495 C   0  0  0  0  0  0  0  0  0  0  0  0
   13.0162   -7.4715   48.6903 O   0  0  0  0  0  0  0  0  0  0  0  0
   10.6698   -8.1217   48.6736 C   0  0  0  0  0  0  0  0  0  0  0  0
  1  2  1  0
  2  3  2  0
  3  4  1  0
  1  5  2  0
  4  5  1  0
  4  6  2  0
  5  7  1  0
  7  8  2  0
  6  9  1  0
  3 10  1  0
  9 11  2  0
 10 11  1  0
  7 12  1  0
 12 13  2  0
  9 14  1  0
 11 15  1  0
 14 16  1  0
 13 17  1  0
 16 18  1  0
 14 19  2  0
 15 20  2  0
 19 20  1  0
 19 21  1  0
 21 22  2  0
  8 23  1  0
 17 23  2  0
 21 24  1  0
 24 25  1  0
 18 26  2  0
 25 27  1  0
 18 28  1  0
 27 29  2  0
 27 30  1  0
 22 31  1  0
 25 31  2  0
 30 32  1  0
 28 33  1  0
 32 33  1  0
 29 34  1  0
 30 35  2  0
 31 36  1  0
 34 37  1  0
 36 37  1  0
 29 38  1  0
 38 39  1  0
 35 40  1  0
 38 40  2  0
M  END
$$$$
O14757_Pocket2Mol_idx-in-all-generaetd-477
     RDKit          3D

 41 47  0  0  0  0  0  0  0  0999 V2000
    1.5482   -0.3111   41.9233 C   0  0  0  0  0  0  0  0  0  0  0  0
    2.7284    0.2018   42.1525 N   0  0  0  0  0  0  0  0  0  0  0  0
    3.7893   -0.3016   42.7005 C   0  0  0  0  0  0  0  0  0  0  0  0
    3.3781   -1.7350   43.0000 C   0  0  0  0  0  0  0  0  0  0  0  0
    2.0339   -1.9619   42.6217 C   0  0  0  0  0  0  0  0  0  0  0  0
    4.1166   -2.4997   43.8458 C   0  0  0  0  0  0  0  0  0  0  0  0
    1.1731   -3.0051   42.5773 C   0  0  0  0  0  0  0  0  0  0  0  0
    0.4701   -3.2344   41.4901 C   0  0  0  0  0  0  0  0  0  0  0  0
    5.3799   -1.7814   44.2691 C   0  0  0  0  0  0  0  0  0  0  0  0
    5.0159   -0.0180   43.1201 N   0  0  0  0  0  0  0  0  0  0  0  0
    5.7693   -0.6937   43.8418 C   0  0  0  0  0  0  0  0  0  0  0  0
    0.8078   -3.6166   43.6782 C   0  0  0  0  0  0  0  0  0  0  0  0
    0.0663   -4.7011   43.7415 N   0  0  0  0  0  0  0  0  0  0  0  0
    6.2223   -2.6843   45.1565 C   0  0  0  0  0  0  0  0  0  0  0  0
    6.9599   -0.2351   44.2608 N   0  0  0  0  0  0  0  0  0  0  0  0
    5.9065   -3.9037   45.7499 N   0  0  0  0  0  0  0  0  0  0  0  0
   -0.5459   -5.1185   42.5870 C   0  0  0  0  0  0  0  0  0  0  0  0
    5.7480   -4.0340   46.9810 C   0  0  0  0  0  0  0  0  0  0  0  0
    7.4448   -1.8511   45.4198 C   0  0  0  0  0  0  0  0  0  0  0  0
    7.7572   -0.7827   45.0128 C   0  0  0  0  0  0  0  0  0  0  0  0
    8.4076   -2.7217   46.4541 C   0  0  0  0  0  0  0  0  0  0  0  0
    9.3167   -2.0988   47.1049 N   0  0  0  0  0  0  0  0  0  0  0  0
   -0.4719   -4.3893   41.5406 C   0  0  0  0  0  0  0  0  0  0  0  0
    8.3667   -4.0284   46.5743 N   0  0  0  0  0  0  0  0  0  0  0  0
    9.5309   -4.3147   47.3094 C   0  0  0  0  0  0  0  0  0  0  0  0
    5.3113   -3.3789   47.8005 O   0  0  0  0  0  0  0  0  0  0  0  0
    9.9022   -5.6301   47.7684 C   0  0  0  0  0  0  0  0  0  0  0  0
    5.4470   -5.5868   47.2096 C   0  0  0  0  0  0  0  0  0  0  0  0
   11.2254   -5.8679   48.0402 C   0  0  0  0  0  0  0  0  0  0  0  0
    8.9736   -6.6532   47.8548 C   0  0  0  0  0  0  0  0  0  0  0  0
   10.0616   -3.0670   47.6360 C   0  0  0  0  0  0  0  0  0  0  0  0
    7.5566   -6.3564   47.5477 N   0  0  0  0  0  0  0  0  0  0  0  0
    6.4157   -6.1721   48.0913 C   0  0  0  0  0  0  0  0  0  0  0  0
    9.3646   -7.8782   48.1671 C   0  0  0  0  0  0  0  0  0  0  0  0
   12.3073   -4.8526   47.9155 O   0  0  0  0  0  0  0  0  0  0  0  0
    8.3867   -8.9995   48.3228 O   0  0  0  0  0  0  0  0  0  0  0  0
   11.6317   -7.0760   48.3359 C   0  0  0  0  0  0  0  0  0  0  0  0
   12.8193   -4.6830   46.6638 C   0  0  0  0  0  0  0  0  0  0  0  0
   13.0376   -7.4410   48.7000 O   0  0  0  0  0  0  0  0  0  0  0  0
   13.7825   -7.9104   47.8444 C   0  0  0  0  0  0  0  0  0  0  0  0
   10.7531   -8.2438   48.6000 C   0  0  0  0  0  0  0  0  0  0  0  0
  1  2  1  0
  2  3  2  0
  3  4  1  0
  1  5  2  0
  4  5  1  0
  4  6  2  0
  5  7  1  0
  7  8  2  0
  6  9  1  0
  3 10  1  0
  9 11  2  0
 10 11  1  0
  7 12  1  0
 12 13  2  0
  9 14  1  0
 11 15  1  0
 14 16  1  0
 13 17  1  0
 16 18  1  0
 14 19  2  0
 15 20  2  0
 19 20  1  0
 19 21  1  0
 21 22  2  0
  8 23  1  0
 17 23  2  0
 21 24  1  0
 24 25  1  0
 18 26  2  0
 25 27  1  0
 18 28  1  0
 27 29  2  0
 27 30  1  0
 22 31  1  0
 25 31  2  0
 30 32  1  0
 28 33  1  0
 32 33  1  0
 30 34  2  0
 29 35  1  0
 34 36  1  0
 29 37  1  0
 35 38  1  0
 37 39  1  0
 39 40  1  0
 34 41  1  0
 37 41  2  0
M  END
$$$$
O14757_Pocket2Mol_idx-in-all-generaetd-478
     RDKit          3D

 45 53  0  0  0  0  0  0  0  0999 V2000
    1.5482   -0.3111   41.9233 C   0  0  0  0  0  0  0  0  0  0  0  0
    2.7284    0.2018   42.1525 N   0  0  0  0  0  0  0  0  0  0  0  0
    3.7893   -0.3016   42.7005 C   0  0  0  0  0  0  0  0  0  0  0  0
    3.3781   -1.7350   43.0000 C   0  0  0  0  0  0  0  0  0  0  0  0
    2.0339   -1.9619   42.6217 C   0  0  0  0  0  0  0  0  0  0  0  0
    5.0090    0.1219   42.9340 N   0  0  0  0  0  0  0  0  0  0  0  0
    4.2895   -2.4979   43.6707 C   0  0  0  0  0  0  0  0  0  0  0  0
    5.8391   -0.6675   43.6343 C   0  0  0  0  0  0  0  0  0  0  0  0
    6.9849   -0.2377   44.0028 N   0  0  0  0  0  0  0  0  0  0  0  0
    4.0426   -3.8794   44.0832 C   0  0  0  0  0  0  0  0  0  0  0  0
    7.6796   -0.8734   44.9326 C   0  0  0  0  0  0  0  0  0  0  0  0
    1.1064   -2.9576   42.4211 C   0  0  0  0  0  0  0  0  0  0  0  0
    5.5298   -1.9496   44.0315 C   0  0  0  0  0  0  0  0  0  0  0  0
    3.8954   -4.1817   45.4718 C   0  0  0  0  0  0  0  0  0  0  0  0
    0.6765   -3.5480   43.4006 C   0  0  1  0  0  0  0  0  0  0  0  0
    0.5804   -3.2191   41.1635 C   0  0  0  0  0  0  0  0  0  0  0  0
    2.8083   -4.8227   45.9203 N   0  0  0  0  0  0  0  0  0  0  0  0
   -0.1574   -4.5754   42.9329 N   0  0  0  0  0  0  0  0  0  0  0  0
    6.5271   -2.5531   44.9677 C   0  0  0  0  0  0  0  0  0  0  0  0
   -0.2272   -4.3703   41.5137 C   0  0  0  0  0  0  0  0  0  0  0  0
    7.5095   -2.0029   45.3993 C   0  0  0  0  0  0  0  0  0  0  0  0
    8.2550   -2.6982   46.3988 C   0  0  1  0  0  0  0  0  0  0  0  0
    8.8975   -0.3029   45.3267 O   0  0  0  0  0  0  0  0  0  0  0  0
    4.8299   -4.4637   46.4212 C   0  0  0  0  0  0  0  0  0  0  0  0
    4.2707   -4.9248   47.6295 N   0  0  0  0  0  0  0  0  0  0  0  0
    3.2045   -5.2092   47.1521 C   0  0  0  0  0  0  0  0  0  0  0  0
    1.4482   -4.6186   45.4134 C   0  0  0  0  0  0  0  0  0  0  0  0
    1.3256   -3.7660   44.6394 N   0  0  0  0  0  0  0  0  0  0  0  0
    9.2816   -2.1418   47.1273 N   0  0  0  0  0  0  0  0  0  0  0  0
   10.0629   -3.1324   47.8508 C   0  0  0  0  0  0  0  0  0  0  0  0
    6.3491   -3.8960   46.0844 C   0  0  2  0  0  0  0  0  0  0  0  0
    7.4349   -3.5889   46.9054 C   0  0  0  0  0  0  0  0  0  0  0  0
   10.3145   -2.7271   49.0818 O   0  0  0  0  0  0  0  0  0  0  0  0
    0.6213   -5.4445   45.7455 O   0  0  0  0  0  0  0  0  0  0  0  0
   11.0262   -3.8136   47.1050 C   0  0  0  0  0  0  0  0  0  0  0  0
   12.1704   -3.3854   46.7547 C   0  0  0  0  0  0  0  0  0  0  0  0
   13.1080   -4.1111   46.0053 C   0  0  0  0  0  0  0  0  0  0  0  0
   14.3489   -3.5966   45.7888 C   0  0  0  0  0  0  0  0  0  0  0  0
   12.7430   -5.2725   45.5056 C   0  0  0  0  0  0  0  0  0  0  0  0
   10.8315   -5.3520   46.8908 C   0  0  0  0  0  0  0  0  0  0  0  0
    9.5747   -5.9454   47.3626 O   0  0  0  0  0  0  0  0  0  0  0  0
   11.5962   -5.9424   46.0554 C   0  0  0  0  0  0  0  0  0  0  0  0
    9.6130   -7.3534   47.2517 C   0  0  0  0  0  0  0  0  0  0  0  0
   15.4579   -4.3817   45.9790 O   0  0  0  0  0  0  0  0  0  0  0  0
   14.6219   -2.4419   45.2034 O   0  0  0  0  0  0  0  0  0  0  0  0
  1  2  1  0
  2  3  2  0
  3  4  1  0
  1  5  2  0
  4  5  1  0
  3  6  1  0
  4  7  2  0
  6  8  1  0
  8  9  1  0
  7 10  1  0
  9 11  1  0
  5 12  1  0
  7 13  1  0
  8 13  2  0
 10 14  1  0
 12 15  1  0
 12 16  2  0
 14 17  1  0
 15 18  1  0
 13 19  1  0
 16 20  1  0
 18 20  2  0
 11 21  1  0
 19 21  2  0
 21 22  1  0
 11 23  2  0
 14 24  2  0
 24 25  1  0
 17 26  1  0
 25 26  2  0
 17 27  1  0
 15 28  1  6
 27 28  1  0
 22 29  1  1
 29 30  1  0
 19 31  1  0
 24 31  1  0
 22 32  1  0
 31 32  1  1
 30 33  2  0
 27 34  2  0
 30 35  1  0
 35 36  2  0
 36 37  1  0
 37 38  1  0
 37 39  2  0
 35 40  1  0
 40 41  1  0
 39 42  1  0
 40 42  2  0
 41 43  1  0
 38 44  2  0
 38 45  1  0
M  END
$$$$
O14757_Pocket2Mol_idx-in-all-generaetd-479
     RDKit          3D

 34 39  0  0  0  0  0  0  0  0999 V2000
    5.3420    0.2589   42.8836 O   0  0  0  0  0  0  0  0  0  0  0  0
    5.1627   -0.7554   43.4753 C   0  0  0  0  0  0  0  0  0  0  0  0
    4.0509   -1.4657   43.4177 N   0  0  0  0  0  0  0  0  0  0  0  0
    5.9969   -1.2317   44.6840 C   0  0  0  0  0  0  0  0  0  0  0  0
    2.9618   -1.1021   42.5918 C   0  0  1  0  0  0  0  0  0  0  0  0
    7.3392   -0.8596   44.8412 C   0  0  0  0  0  0  0  0  0  0  0  0
    1.9754   -2.0820   42.2741 C   0  0  0  0  0  0  0  0  0  0  0  0
    5.5910   -2.4282   45.3439 C   0  0  0  0  0  0  0  0  0  0  0  0
    6.5874   -2.9636   46.1581 C   0  0  0  0  0  0  0  0  0  0  0  0
    4.2763   -3.0680   45.0493 N   0  0  0  0  0  0  0  0  0  0  0  0
    3.6188   -2.5886   44.2024 C   0  0  0  0  0  0  0  0  0  0  0  0
    8.1921   -1.4071   45.7505 C   0  0  0  0  0  0  0  0  0  0  0  0
    1.0154   -1.8839   41.2980 C   0  0  0  0  0  0  0  0  0  0  0  0
    2.5720   -3.3564   43.9063 C   0  0  0  0  0  0  0  0  0  0  0  0
    0.2502   -2.8976   41.0751 C   0  0  0  0  0  0  0  0  0  0  0  0
    6.1761   -4.1775   47.0209 C   0  0  0  0  0  0  0  0  0  0  0  0
    1.7266   -3.1047   43.0115 C   0  0  2  0  0  0  0  0  0  0  0  0
    2.3696   -4.5367   44.7536 N   0  0  0  0  0  0  0  0  0  0  0  0
    1.2264   -5.2346   44.4693 C   0  0  0  0  0  0  0  0  0  0  0  0
    0.7187   -3.8955   42.5465 C   0  0  0  0  0  0  0  0  0  0  0  0
    9.4576   -0.8949   46.0327 N   0  0  0  0  0  0  0  0  0  0  0  0
    0.8625   -6.3901   45.2462 C   0  0  0  0  0  0  0  0  0  0  0  0
    7.6467   -2.5139   46.4892 C   0  0  0  0  0  0  0  0  0  0  0  0
   10.4908   -1.5336   45.8242 C   0  0  0  0  0  0  0  0  0  0  0  0
    0.3057   -4.9299   43.2909 C   0  0  0  0  0  0  0  0  0  0  0  0
   11.5916   -1.4291   46.7436 C   0  0  0  0  0  0  0  0  0  0  0  0
   10.5566   -2.3672   44.8649 O   0  0  0  0  0  0  0  0  0  0  0  0
    2.4730    0.2084   42.8389 O   0  0  0  0  0  0  0  0  0  0  0  0
   11.6027   -2.2081   47.7725 N   0  0  0  0  0  0  0  0  0  0  0  0
   12.6189   -0.5862   46.5415 C   0  0  0  0  0  0  0  0  0  0  0  0
   12.5414   -2.0889   48.7197 C   0  0  0  0  0  0  0  0  0  0  0  0
   12.4628   -3.0577   49.8848 C   0  0  0  0  0  0  0  0  0  0  0  0
   13.6945   -0.5051   47.3809 C   0  0  0  0  0  0  0  0  0  0  0  0
   13.7506   -1.3140   48.5389 C   0  0  0  0  0  0  0  0  0  0  0  0
  1  2  2  0
  2  3  1  0
  2  4  1  0
  3  5  1  0
  4  6  2  0
  5  7  1  0
  4  8  1  0
  8  9  2  0
  8 10  1  0
  3 11  1  0
 10 11  2  0
  6 12  1  0
  7 13  2  0
 11 14  1  0
 13 15  1  0
  9 16  1  0
 17  7  1  6
 14 17  1  0
 14 18  2  0
 18 19  1  0
 15 20  2  0
 17 20  1  0
 12 21  1  0
 19 22  1  0
  9 23  1  0
 12 23  2  0
 21 24  1  0
 19 25  2  0
 20 25  1  0
 24 26  1  0
 24 27  2  0
  5 28  1  1
 26 29  2  0
 26 30  1  0
 29 31  1  0
 31 32  1  0
 30 33  2  0
 31 34  2  0
 33 34  1  0
M  END
$$$$
O14757_Pocket2Mol_idx-in-all-generaetd-480
     RDKit          3D

 45 52  0  0  0  0  0  0  0  0999 V2000
    1.5482   -0.3111   41.9233 C   0  0  0  0  0  0  0  0  0  0  0  0
    2.7284    0.2018   42.1525 N   0  0  0  0  0  0  0  0  0  0  0  0
    3.7893   -0.3016   42.7005 C   0  0  0  0  0  0  0  0  0  0  0  0
    3.3781   -1.7350   43.0000 C   0  0  0  0  0  0  0  0  0  0  0  0
    2.0339   -1.9619   42.6217 C   0  0  0  0  0  0  0  0  0  0  0  0
    4.1166   -2.4997   43.8458 C   0  0  0  0  0  0  0  0  0  0  0  0
    1.1731   -3.0051   42.5773 C   0  0  0  0  0  0  0  0  0  0  0  0
    0.4701   -3.2344   41.4901 C   0  0  0  0  0  0  0  0  0  0  0  0
    5.3799   -1.7814   44.2691 C   0  0  0  0  0  0  0  0  0  0  0  0
    5.0159   -0.0180   43.1201 N   0  0  0  0  0  0  0  0  0  0  0  0
    5.7693   -0.6937   43.8418 C   0  0  0  0  0  0  0  0  0  0  0  0
    0.8078   -3.6166   43.6782 C   0  0  0  0  0  0  0  0  0  0  0  0
    0.0663   -4.7011   43.7415 N   0  0  0  0  0  0  0  0  0  0  0  0
    6.2223   -2.6843   45.1565 C   0  0  0  0  0  0  0  0  0  0  0  0
    1.4459   -3.3095   45.0236 O   0  0  0  0  0  0  0  0  0  0  0  0
   -0.5278   -5.1074   42.5506 C   0  0  0  0  0  0  0  0  0  0  0  0
   -1.3099   -6.2193   42.5332 N   0  0  0  0  0  0  0  0  0  0  0  0
   -0.3906   -4.3573   41.3904 C   0  0  0  0  0  0  0  0  0  0  0  0
    7.0535   -0.4845   44.4478 N   0  0  0  0  0  0  0  0  0  0  0  0
    0.6210   -3.8397   46.1835 C   0  0  0  0  0  0  0  0  0  0  0  0
    6.2906   -3.7888   45.8815 C   0  0  0  0  0  0  0  0  0  0  0  0
    7.3965   -1.5466   45.3147 C   0  0  0  0  0  0  0  0  0  0  0  0
    5.1449   -4.4973   46.0473 O   0  0  0  0  0  0  0  0  0  0  0  0
    7.4148   -4.1081   46.6372 C   0  0  0  0  0  0  0  0  0  0  0  0
    8.5011   -3.1747   46.6693 C   0  0  0  0  0  0  0  0  0  0  0  0
    8.4580   -1.9168   46.0438 C   0  0  0  0  0  0  0  0  0  0  0  0
    9.8193   -3.4927   47.5654 C   0  0  1  0  0  0  0  0  0  0  0  0
    4.3482   -4.5667   47.1383 C   0  0  0  0  0  0  0  0  0  0  0  0
   10.8925   -3.4519   46.9633 C   0  0  0  0  0  0  0  0  0  0  0  0
   11.7691   -2.4393   47.2298 N   0  0  0  0  0  0  0  0  0  0  0  0
   11.5679   -1.6048   48.2682 C   0  0  0  0  0  0  0  0  0  0  0  0
   13.2337   -2.7224   46.9899 C   0  0  0  0  0  0  0  0  0  0  0  0
   11.1468   -4.1806   45.9346 O   0  0  0  0  0  0  0  0  0  0  0  0
   14.0674   -3.2434   47.7193 C   0  0  0  0  0  0  0  0  0  0  0  0
   13.7337   -3.8357   48.9955 C   0  0  0  0  0  0  0  0  0  0  0  0
   10.6978   -1.8484   49.2819 O   0  0  0  0  0  0  0  0  0  0  0  0
    9.4523   -2.4064   48.7424 C   0  0  0  0  0  0  0  0  0  0  0  0
   15.3983   -3.3716   47.3589 C   0  0  0  0  0  0  0  0  0  0  0  0
   13.6455   -2.4134   45.5677 C   0  0  0  0  0  0  0  0  0  0  0  0
   16.3780   -3.9452   48.3150 C   0  0  0  0  0  0  0  0  0  0  0  0
   14.9521   -2.4412   45.2684 C   0  0  0  0  0  0  0  0  0  0  0  0
   15.8731   -2.9361   46.2310 C   0  0  0  0  0  0  0  0  0  0  0  0
   14.5519   -4.3698   49.9422 C   0  0  0  0  0  0  0  0  0  0  0  0
   14.1461   -4.9143   51.2361 O   0  0  0  0  0  0  0  0  0  0  0  0
   16.0215   -4.3403   49.3727 C   0  0  0  0  0  0  0  0  0  0  0  0
  1  2  1  0
  2  3  2  0
  3  4  1  0
  1  5  2  0
  4  5  1  0
  4  6  2  0
  5  7  1  0
  7  8  2  0
  6  9  1  0
  3 10  1  0
  9 11  1  0
 10 11  1  0
  7 12  1  0
 12 13  2  0
  9 14  2  0
 12 15  1  0
 13 16  1  0
 16 17  1  0
  8 18  1  0
 16 18  2  0
 11 19  2  0
 15 20  1  0
 14 21  1  0
 14 22  1  0
 19 22  1  0
 21 23  1  0
 21 24  2  0
 24 25  1  0
 22 26  2  0
 25 26  2  0
 27 25  1  6
 23 28  1  0
 27 29  1  0
 29 30  1  0
 30 31  1  0
 30 32  1  0
 29 33  2  0
 32 34  1  0
 34 35  2  0
 31 36  1  0
 27 37  1  0
 36 37  1  0
 34 38  1  0
 32 39  2  0
 38 40  2  0
 39 41  1  0
 38 42  1  0
 41 42  2  0
 35 43  1  0
 43 44  1  0
 40 45  1  0
 43 45  2  0
M  END
$$$$
O14757_Pocket2Mol_idx-in-all-generaetd-481
     RDKit          3D

 26 30  0  0  0  0  0  0  0  0999 V2000
    5.5575   -0.4055   43.2321 N   0  0  0  0  0  0  0  0  0  0  0  0
    4.5233    0.0727   42.5988 N   0  0  0  0  0  0  0  0  0  0  0  0
    5.5185   -1.4416   44.0420 C   0  0  0  0  0  0  0  0  0  0  0  0
    4.3875   -2.2245   44.1531 C   0  0  0  0  0  0  0  0  0  0  0  0
    3.2861   -1.8496   43.3848 C   0  0  0  0  0  0  0  0  0  0  0  0
    3.4114   -0.6332   42.6207 C   0  0  0  0  0  0  0  0  0  0  0  0
    2.0148   -2.5286   43.3349 C   0  0  0  0  0  0  0  0  0  0  0  0
    2.2040   -0.1772   41.8915 C   0  0  0  0  0  0  0  0  0  0  0  0
    6.6056   -1.7232   44.9823 C   0  0  0  0  0  0  0  0  0  0  0  0
    4.3188   -3.4196   44.9170 C   0  0  0  0  0  0  0  0  0  0  0  0
    6.6475   -2.9301   45.7388 C   0  0  0  0  0  0  0  0  0  0  0  0
    5.5024   -3.7081   45.7088 C   0  0  0  0  0  0  0  0  0  0  0  0
    1.0987   -0.9803   41.9864 C   0  0  0  0  0  0  0  0  0  0  0  0
    1.9612   -3.8096   44.0634 C   0  0  0  0  0  0  0  0  0  0  0  0
    1.1103   -2.1558   42.7812 N   0  0  0  0  0  0  0  0  0  0  0  0
    3.1857   -4.2537   44.8393 C   0  0  0  0  0  0  0  0  0  0  0  0
    7.6863   -3.1421   46.5596 C   0  0  0  0  0  0  0  0  0  0  0  0
    8.8313   -2.5396   46.5627 N   0  0  0  0  0  0  0  0  0  0  0  0
    7.7221   -4.4606   47.1985 N   0  0  0  0  0  0  0  0  0  0  0  0
    9.1244   -1.1795   46.1629 C   0  0  0  0  0  0  0  0  0  0  0  0
    9.0421   -4.4305   47.7050 C   0  0  0  0  0  0  0  0  0  0  0  0
    9.7162   -3.2517   47.4530 C   0  0  0  0  0  0  0  0  0  0  0  0
    9.5336   -5.5442   48.6560 C   0  0  0  0  0  0  0  0  0  0  0  0
   11.1080   -2.8915   47.7690 C   0  0  0  0  0  0  0  0  0  0  0  0
   11.9948   -3.5946   46.9768 O   0  0  0  0  0  0  0  0  0  0  0  0
   12.2203   -3.1707   45.7558 C   0  0  0  0  0  0  0  0  0  0  0  0
  1  2  2  0
  1  3  1  0
  3  4  2  0
  4  5  1  0
  2  6  1  0
  5  6  2  0
  5  7  1  0
  6  8  1  0
  3  9  1  0
  4 10  1  0
  9 11  2  0
 10 12  2  0
 11 12  1  0
  8 13  2  0
  7 14  1  0
  7 15  2  0
 13 15  1  0
 10 16  1  0
 14 16  2  0
 11 17  1  0
 17 18  1  0
 17 19  2  0
 18 20  1  0
 19 21  1  0
 18 22  1  0
 21 22  2  0
 21 23  1  0
 22 24  1  0
 24 25  1  0
 25 26  1  0
M  END
$$$$
O14757_Pocket2Mol_idx-in-all-generaetd-482
     RDKit          3D

 35 40  0  0  0  0  0  0  0  0999 V2000
    4.5156    0.0550   42.9895 N   0  0  0  0  0  0  0  0  0  0  0  0
    5.0618   -0.8645   43.5295 C   0  0  0  0  0  0  0  0  0  0  0  0
    4.4350   -2.0604   43.7783 C   0  0  0  0  0  0  0  0  0  0  0  0
    4.9987   -3.0994   44.5839 C   0  0  0  0  0  0  0  0  0  0  0  0
    3.2714   -1.8664   43.0632 C   0  0  0  0  0  0  0  0  0  0  0  0
    6.4064   -0.5942   44.3204 N   0  0  0  0  0  0  0  0  0  0  0  0
    4.3422   -4.3256   44.7203 C   0  0  0  0  0  0  0  0  0  0  0  0
    2.1845   -2.6668   42.8270 N   0  0  0  0  0  0  0  0  0  0  0  0
    3.3305   -0.5395   42.5465 N   0  0  0  0  0  0  0  0  0  0  0  0
    1.9502   -3.8972   43.4076 C   0  0  0  0  0  0  0  0  0  0  0  0
    2.7156   -4.1184   44.6954 N   0  0  0  0  0  0  0  0  0  0  0  0
    6.8581   -1.5862   45.1101 C   0  0  0  0  0  0  0  0  0  0  0  0
    6.1801   -2.8430   45.2383 C   0  0  0  0  0  0  0  0  0  0  0  0
    2.1454   -5.1901   45.5771 C   0  0  0  0  0  0  0  0  0  0  0  0
    8.0137   -1.3946   45.8526 C   0  0  0  0  0  0  0  0  0  0  0  0
    0.9733   -4.5725   43.2066 O   0  0  0  0  0  0  0  0  0  0  0  0
    2.2437    0.0035   41.8733 C   0  0  0  0  0  0  0  0  0  0  0  0
    1.3210   -2.2077   41.7009 C   0  0  0  0  0  0  0  0  0  0  0  0
    8.6047   -2.2876   46.6923 C   0  0  0  0  0  0  0  0  0  0  0  0
    7.9141   -3.5157   46.8869 C   0  0  0  0  0  0  0  0  0  0  0  0
    1.0501   -0.8658   41.6612 C   0  0  0  0  0  0  0  0  0  0  0  0
    6.7278   -3.7718   46.2525 C   0  0  0  0  0  0  0  0  0  0  0  0
    9.8280   -2.0492   47.3361 C   0  0  0  0  0  0  0  0  0  0  0  0
    9.8262   -1.5735   48.5432 C   0  0  0  0  0  0  0  0  0  0  0  0
   11.0745   -2.0905   46.6735 C   0  0  0  0  0  0  0  0  0  0  0  0
    8.5798   -1.4294   49.3788 F   0  0  0  0  0  0  0  0  0  0  0  0
   10.9754   -1.2454   49.3173 C   0  0  0  0  0  0  0  0  0  0  0  0
   12.2431   -1.7844   47.3194 C   0  0  0  0  0  0  0  0  0  0  0  0
   12.3027   -1.4029   48.7252 C   0  0  0  0  0  0  0  0  0  0  0  0
   13.5212   -1.8824   46.5853 C   0  0  2  0  0  0  0  0  0  0  0  0
    1.0433   -4.5208   46.3540 C   0  0  0  0  0  0  0  0  0  0  0  0
   13.6066   -1.3002   45.3939 C   0  0  0  0  0  0  0  0  0  0  0  0
   14.0862   -3.1922   46.5313 C   0  0  0  0  0  0  0  0  0  0  0  0
   13.5217   -4.2825   47.0145 O   0  0  0  0  0  0  0  0  0  0  0  0
   15.2981   -3.3046   46.1171 O   0  0  0  0  0  0  0  0  0  0  0  0
  1  2  2  0
  2  3  1  0
  3  4  1  0
  3  5  2  0
  2  6  1  0
  4  7  1  0
  5  8  1  0
  1  9  1  0
  5  9  1  0
  8 10  1  0
  7 11  1  0
 10 11  1  0
  6 12  2  0
  4 13  2  0
 12 13  1  0
 11 14  1  0
 12 15  1  0
 10 16  2  0
  9 17  1  0
  8 18  1  0
 15 19  2  0
 19 20  1  0
 17 21  1  0
 18 21  1  0
 13 22  1  0
 20 22  2  0
 19 23  1  0
 23 24  2  0
 23 25  1  0
 24 26  1  0
 24 27  1  0
 25 28  2  0
 27 29  2  0
 28 29  1  0
 28 30  1  0
 14 31  1  0
 30 32  1  6
 30 33  1  0
 33 34  2  0
 33 35  1  0
M  END
$$$$
O14757_Pocket2Mol_idx-in-all-generaetd-483
     RDKit          3D

 38 43  0  0  0  0  0  0  0  0999 V2000
    1.5482   -0.3111   41.9233 C   0  0  0  0  0  0  0  0  0  0  0  0
    2.7284    0.2018   42.1525 N   0  0  0  0  0  0  0  0  0  0  0  0
    3.7893   -0.3016   42.7005 C   0  0  0  0  0  0  0  0  0  0  0  0
    3.3781   -1.7350   43.0000 C   0  0  0  0  0  0  0  0  0  0  0  0
    2.0339   -1.9619   42.6217 C   0  0  0  0  0  0  0  0  0  0  0  0
    4.1166   -2.4997   43.8458 C   0  0  0  0  0  0  0  0  0  0  0  0
    1.1731   -3.0051   42.5773 C   0  0  0  0  0  0  0  0  0  0  0  0
    0.4701   -3.2344   41.4901 C   0  0  0  0  0  0  0  0  0  0  0  0
    5.3799   -1.7814   44.2691 C   0  0  0  0  0  0  0  0  0  0  0  0
    5.0159   -0.0180   43.1201 N   0  0  0  0  0  0  0  0  0  0  0  0
    5.7693   -0.6937   43.8418 C   0  0  0  0  0  0  0  0  0  0  0  0
    0.8078   -3.6166   43.6782 C   0  0  0  0  0  0  0  0  0  0  0  0
    0.0663   -4.7011   43.7415 N   0  0  0  0  0  0  0  0  0  0  0  0
    6.2223   -2.6843   45.1565 C   0  0  0  0  0  0  0  0  0  0  0  0
    6.9599   -0.2351   44.2608 N   0  0  0  0  0  0  0  0  0  0  0  0
    5.9065   -3.9037   45.7499 N   0  0  0  0  0  0  0  0  0  0  0  0
   -0.5459   -5.1185   42.5870 C   0  0  0  0  0  0  0  0  0  0  0  0
    5.7480   -4.0340   46.9810 C   0  0  0  0  0  0  0  0  0  0  0  0
    7.4448   -1.8511   45.4198 C   0  0  0  0  0  0  0  0  0  0  0  0
    7.7572   -0.7827   45.0128 C   0  0  0  0  0  0  0  0  0  0  0  0
    8.4076   -2.7217   46.4541 C   0  0  0  0  0  0  0  0  0  0  0  0
    9.3167   -2.0988   47.1049 N   0  0  0  0  0  0  0  0  0  0  0  0
   -0.4719   -4.3893   41.5406 C   0  0  0  0  0  0  0  0  0  0  0  0
    8.3667   -4.0284   46.5743 N   0  0  0  0  0  0  0  0  0  0  0  0
   10.1532   -2.5726   47.9567 C   0  0  0  0  0  0  0  0  0  0  0  0
   11.0726   -1.7892   48.6998 C   0  0  0  0  0  0  0  0  0  0  0  0
   10.4886   -0.9372   49.4584 C   0  0  0  0  0  0  0  0  0  0  0  0
   10.2139   -3.8947   48.0407 C   0  0  0  0  0  0  0  0  0  0  0  0
    6.6188   -4.9855   47.3969 N   0  0  0  0  0  0  0  0  0  0  0  0
    5.1401   -3.1961   47.7242 O   0  0  0  0  0  0  0  0  0  0  0  0
    9.2230   -4.6492   47.2923 C   0  0  0  0  0  0  0  0  0  0  0  0
   12.4306   -1.6942   48.6002 C   0  0  0  0  0  0  0  0  0  0  0  0
   13.1277   -2.5738   47.4657 C   0  0  0  0  0  0  0  0  0  0  0  0
   13.0390   -2.0905   46.2012 C   0  0  0  0  0  0  0  0  0  0  0  0
   12.0480   -1.9723   45.6449 O   0  0  0  0  0  0  0  0  0  0  0  0
   14.1045   -1.8603   45.5011 O   0  0  0  0  0  0  0  0  0  0  0  0
   12.9111   -1.0183   49.6336 C   0  0  0  0  0  0  0  0  0  0  0  0
   11.7039   -0.3746   50.2713 C   0  0  0  0  0  0  0  0  0  0  0  0
  1  2  1  0
  2  3  2  0
  3  4  1  0
  1  5  2  0
  4  5  1  0
  4  6  2  0
  5  7  1  0
  7  8  2  0
  6  9  1  0
  3 10  1  0
  9 11  2  0
 10 11  1  0
  7 12  1  0
 12 13  2  0
  9 14  1  0
 11 15  1  0
 14 16  1  0
 13 17  1  0
 16 18  1  0
 14 19  2  0
 15 20  2  0
 19 20  1  0
 19 21  1  0
 21 22  2  0
  8 23  1  0
 17 23  2  0
 21 24  1  0
 22 25  1  0
 25 26  1  0
 26 27  1  0
 25 28  2  0
 18 29  1  0
 18 30  2  0
 24 31  2  0
 28 31  1  0
 26 32  2  0
 32 33  1  0
 33 34  1  0
 34 35  1  0
 34 36  2  0
 32 37  1  0
 27 38  2  0
 37 38  1  0
M  END
$$$$
O14757_Pocket2Mol_idx-in-all-generaetd-484
     RDKit          3D

 46 52  0  0  0  0  0  0  0  0999 V2000
    5.3420    0.2589   42.8836 O   0  0  0  0  0  0  0  0  0  0  0  0
    5.1627   -0.7554   43.4753 C   0  0  0  0  0  0  0  0  0  0  0  0
    4.0509   -1.4657   43.4177 N   0  0  0  0  0  0  0  0  0  0  0  0
    5.9969   -1.2317   44.6840 C   0  0  0  0  0  0  0  0  0  0  0  0
    2.9618   -1.1021   42.5918 C   0  0  1  0  0  0  0  0  0  0  0  0
    7.3392   -0.8596   44.8412 C   0  0  0  0  0  0  0  0  0  0  0  0
    1.9754   -2.0820   42.2741 C   0  0  0  0  0  0  0  0  0  0  0  0
    5.5910   -2.4282   45.3439 C   0  0  0  0  0  0  0  0  0  0  0  0
    6.5874   -2.9636   46.1581 C   0  0  0  0  0  0  0  0  0  0  0  0
    4.2763   -3.0680   45.0493 N   0  0  0  0  0  0  0  0  0  0  0  0
    3.6188   -2.5886   44.2024 C   0  0  0  0  0  0  0  0  0  0  0  0
    8.1921   -1.4071   45.7505 C   0  0  0  0  0  0  0  0  0  0  0  0
    1.0154   -1.8839   41.2980 C   0  0  0  0  0  0  0  0  0  0  0  0
    2.5720   -3.3564   43.9063 C   0  0  0  0  0  0  0  0  0  0  0  0
    0.2502   -2.8976   41.0751 C   0  0  0  0  0  0  0  0  0  0  0  0
    6.1761   -4.1775   47.0209 C   0  0  0  0  0  0  0  0  0  0  0  0
    1.7266   -3.1047   43.0115 C   0  0  2  0  0  0  0  0  0  0  0  0
    2.3696   -4.5367   44.7536 N   0  0  0  0  0  0  0  0  0  0  0  0
    1.2264   -5.2346   44.4693 C   0  0  0  0  0  0  0  0  0  0  0  0
    0.7187   -3.8955   42.5465 C   0  0  0  0  0  0  0  0  0  0  0  0
    9.4576   -0.8949   46.0327 N   0  0  0  0  0  0  0  0  0  0  0  0
    0.8625   -6.3901   45.2462 C   0  0  0  0  0  0  0  0  0  0  0  0
    7.6467   -2.5139   46.4892 C   0  0  0  0  0  0  0  0  0  0  0  0
   10.4908   -1.5336   45.8242 C   0  0  0  0  0  0  0  0  0  0  0  0
    0.3057   -4.9299   43.2909 C   0  0  0  0  0  0  0  0  0  0  0  0
   11.5916   -1.4291   46.7436 C   0  0  0  0  0  0  0  0  0  0  0  0
   10.5566   -2.3672   44.8649 O   0  0  0  0  0  0  0  0  0  0  0  0
   12.8421   -1.9355   46.2823 C   0  0  0  0  0  0  0  0  0  0  0  0
   13.4833   -2.8582   46.9841 C   0  0  0  0  0  0  0  0  0  0  0  0
   11.4002   -1.1447   48.0540 C   0  0  0  0  0  0  0  0  0  0  0  0
   10.2867   -0.4569   48.4999 O   0  0  0  0  0  0  0  0  0  0  0  0
   12.3327   -1.4798   48.9564 C   0  0  0  0  0  0  0  0  0  0  0  0
   14.7901   -3.3162   46.6439 C   0  0  0  0  0  0  0  0  0  0  0  0
   12.1651   -1.3050   50.3239 O   0  0  0  0  0  0  0  0  0  0  0  0
   15.6765   -2.5740   46.0979 C   0  0  0  0  0  0  0  0  0  0  0  0
   13.4417   -2.4710   48.5369 C   0  0  0  0  0  0  0  0  0  0  0  0
   15.5553   -1.2853   45.8338 C   0  0  0  0  0  0  0  0  0  0  0  0
    2.4633    0.2112   42.8553 O   0  0  0  0  0  0  0  0  0  0  0  0
   15.3909   -0.8808   44.5119 C   0  0  0  0  0  0  0  0  0  0  0  0
   14.8684    0.3217   44.1996 C   0  0  0  0  0  0  0  0  0  0  0  0
   14.8875    1.3968   45.0496 C   0  0  0  0  0  0  0  0  0  0  0  0
   14.2844    2.6794   44.6658 C   0  0  0  0  0  0  0  0  0  0  0  0
   15.5518   -0.0687   46.6305 C   0  0  0  0  0  0  0  0  0  0  0  0
   15.2145    1.1513   46.2504 C   0  0  0  0  0  0  0  0  0  0  0  0
   13.9647    3.4620   45.5514 O   0  0  0  0  0  0  0  0  0  0  0  0
   14.3348    3.0261   43.4426 N   0  0  0  0  0  0  0  0  0  0  0  0
  1  2  2  0
  2  3  1  0
  2  4  1  0
  3  5  1  0
  4  6  2  0
  5  7  1  0
  4  8  1  0
  8  9  2  0
  8 10  1  0
  3 11  1  0
 10 11  2  0
  6 12  1  0
  7 13  2  0
 11 14  1  0
 13 15  1  0
  9 16  1  0
 17  7  1  6
 14 17  1  0
 14 18  2  0
 18 19  1  0
 15 20  2  0
 17 20  1  0
 12 21  1  0
 19 22  1  0
  9 23  1  0
 12 23  2  0
 21 24  1  0
 19 25  2  0
 20 25  1  0
 24 26  1  0
 24 27  2  0
 26 28  2  0
 28 29  1  0
 26 30  1  0
 30 31  1  0
 30 32  2  0
 29 33  1  0
 32 34  1  0
 33 35  2  3
 29 36  2  0
 32 36  1  0
 35 37  1  0
  5 38  1  1
 37 39  2  0
 39 40  1  0
 40 41  2  0
 41 42  1  0
 37 43  1  0
 41 44  1  0
 43 44  2  0
 42 45  2  0
 42 46  1  0
M  END
$$$$
O14757_Pocket2Mol_idx-in-all-generaetd-485
     RDKit          3D

 44 52  0  0  0  0  0  0  0  0999 V2000
    1.5482   -0.3111   41.9233 C   0  0  0  0  0  0  0  0  0  0  0  0
    2.7284    0.2018   42.1525 N   0  0  0  0  0  0  0  0  0  0  0  0
    3.7893   -0.3016   42.7005 C   0  0  0  0  0  0  0  0  0  0  0  0
    3.3781   -1.7350   43.0000 C   0  0  0  0  0  0  0  0  0  0  0  0
    2.0339   -1.9619   42.6217 C   0  0  0  0  0  0  0  0  0  0  0  0
    5.0090    0.1219   42.9340 N   0  0  0  0  0  0  0  0  0  0  0  0
    4.2895   -2.4979   43.6707 C   0  0  0  0  0  0  0  0  0  0  0  0
    5.8391   -0.6675   43.6343 C   0  0  0  0  0  0  0  0  0  0  0  0
    6.9849   -0.2377   44.0028 N   0  0  0  0  0  0  0  0  0  0  0  0
    4.0426   -3.8794   44.0832 C   0  0  0  0  0  0  0  0  0  0  0  0
    7.6796   -0.8734   44.9326 C   0  0  0  0  0  0  0  0  0  0  0  0
    1.1064   -2.9576   42.4211 C   0  0  0  0  0  0  0  0  0  0  0  0
    5.5298   -1.9496   44.0315 C   0  0  0  0  0  0  0  0  0  0  0  0
    3.8954   -4.1817   45.4718 C   0  0  0  0  0  0  0  0  0  0  0  0
    0.6765   -3.5480   43.4006 C   0  0  1  0  0  0  0  0  0  0  0  0
    0.5804   -3.2191   41.1635 C   0  0  0  0  0  0  0  0  0  0  0  0
    2.8083   -4.8227   45.9203 N   0  0  0  0  0  0  0  0  0  0  0  0
   -0.1574   -4.5754   42.9329 N   0  0  0  0  0  0  0  0  0  0  0  0
    6.5271   -2.5531   44.9677 C   0  0  0  0  0  0  0  0  0  0  0  0
   -0.2272   -4.3703   41.5137 C   0  0  0  0  0  0  0  0  0  0  0  0
    7.5095   -2.0029   45.3993 C   0  0  0  0  0  0  0  0  0  0  0  0
    8.2550   -2.6982   46.3988 C   0  0  2  0  0  0  0  0  0  0  0  0
    8.8975   -0.3029   45.3267 O   0  0  0  0  0  0  0  0  0  0  0  0
    4.8299   -4.4637   46.4212 C   0  0  0  0  0  0  0  0  0  0  0  0
    4.2707   -4.9248   47.6295 N   0  0  0  0  0  0  0  0  0  0  0  0
    3.2045   -5.2092   47.1521 C   0  0  0  0  0  0  0  0  0  0  0  0
    1.4482   -4.6186   45.4134 C   0  0  2  0  0  0  0  0  0  0  0  0
    1.2398   -3.5043   44.6236 O   0  0  0  0  0  0  0  0  0  0  0  0
    6.3317   -3.9297   46.0870 C   0  0  2  0  0  0  0  0  0  0  0  0
    9.5296   -2.5449   46.9776 C   0  0  0  0  0  0  0  0  0  0  0  0
    9.7921   -1.7530   47.9018 O   0  0  0  0  0  0  0  0  0  0  0  0
    7.4454   -3.8344   46.8035 C   0  0  0  0  0  0  0  0  0  0  0  0
   10.5010   -3.0847   46.3190 O   0  0  0  0  0  0  0  0  0  0  0  0
    0.5569   -4.7693   46.5649 C   0  0  0  0  0  0  0  0  0  0  0  0
   11.7452   -2.8462   46.6234 C   0  0  0  0  0  0  0  0  0  0  0  0
   12.4344   -1.8951   45.7393 C   0  0  0  0  0  0  0  0  0  0  0  0
   12.4612   -3.5429   47.5581 C   0  0  0  0  0  0  0  0  0  0  0  0
   11.7737   -4.5216   48.4115 C   0  0  0  0  0  0  0  0  0  0  0  0
   13.7761   -1.6251   45.9829 C   0  0  0  0  0  0  0  0  0  0  0  0
   13.7909   -3.1787   47.7950 C   0  0  0  0  0  0  0  0  0  0  0  0
   14.4374   -0.6496   45.1506 C   0  0  0  0  0  0  0  0  0  0  0  0
   14.5863   -3.8413   48.8675 O   0  0  0  0  0  0  0  0  0  0  0  0
   14.4761   -2.2457   47.0363 C   0  0  0  0  0  0  0  0  0  0  0  0
   14.2876   -0.7745   43.8218 C   0  0  0  0  0  0  0  0  0  0  0  0
  1  2  1  0
  2  3  2  0
  3  4  1  0
  1  5  2  0
  4  5  1  0
  3  6  1  0
  4  7  2  0
  6  8  1  0
  8  9  1  0
  7 10  1  0
  9 11  1  0
  5 12  1  0
  7 13  1  0
  8 13  2  0
 10 14  1  0
 12 15  1  0
 12 16  2  0
 14 17  1  0
 15 18  1  0
 13 19  1  0
 16 20  1  0
 18 20  2  0
 11 21  1  0
 19 21  2  0
 21 22  1  0
 11 23  2  0
 14 24  2  0
 24 25  1  0
 17 26  1  0
 25 26  2  0
 17 27  1  0
 15 28  1  6
 27 28  1  0
 19 29  1  0
 24 29  1  0
 22 30  1  6
 30 31  2  0
 22 32  1  0
 29 32  1  1
 30 33  1  0
 27 34  1  1
 33 35  1  0
 35 36  2  0
 35 37  1  0
 37 38  1  0
 36 39  1  0
 37 40  2  0
 39 41  1  0
 40 42  1  0
 39 43  2  0
 40 43  1  0
 41 44  1  0
M  END
$$$$
O14757_Pocket2Mol_idx-in-all-generaetd-486
     RDKit          3D

 45 53  0  0  0  0  0  0  0  0999 V2000
    1.5482   -0.3111   41.9233 C   0  0  0  0  0  0  0  0  0  0  0  0
    2.7284    0.2018   42.1525 N   0  0  0  0  0  0  0  0  0  0  0  0
    3.7893   -0.3016   42.7005 C   0  0  0  0  0  0  0  0  0  0  0  0
    3.3781   -1.7350   43.0000 C   0  0  0  0  0  0  0  0  0  0  0  0
    2.0339   -1.9619   42.6217 C   0  0  0  0  0  0  0  0  0  0  0  0
    5.0090    0.1219   42.9340 N   0  0  0  0  0  0  0  0  0  0  0  0
    4.2895   -2.4979   43.6707 C   0  0  0  0  0  0  0  0  0  0  0  0
    5.8391   -0.6675   43.6343 C   0  0  0  0  0  0  0  0  0  0  0  0
    6.9849   -0.2377   44.0028 N   0  0  0  0  0  0  0  0  0  0  0  0
    4.0426   -3.8794   44.0832 C   0  0  0  0  0  0  0  0  0  0  0  0
    7.6796   -0.8734   44.9326 C   0  0  0  0  0  0  0  0  0  0  0  0
    1.1064   -2.9576   42.4211 C   0  0  0  0  0  0  0  0  0  0  0  0
    5.5298   -1.9496   44.0315 C   0  0  0  0  0  0  0  0  0  0  0  0
    3.8954   -4.1817   45.4718 C   0  0  0  0  0  0  0  0  0  0  0  0
    0.6765   -3.5480   43.4006 C   0  0  1  0  0  0  0  0  0  0  0  0
    0.5804   -3.2191   41.1635 C   0  0  0  0  0  0  0  0  0  0  0  0
    2.8083   -4.8227   45.9203 N   0  0  0  0  0  0  0  0  0  0  0  0
   -0.1574   -4.5754   42.9329 N   0  0  0  0  0  0  0  0  0  0  0  0
    6.5271   -2.5531   44.9677 C   0  0  0  0  0  0  0  0  0  0  0  0
   -0.2272   -4.3703   41.5137 C   0  0  0  0  0  0  0  0  0  0  0  0
    7.5095   -2.0029   45.3993 C   0  0  0  0  0  0  0  0  0  0  0  0
    8.2550   -2.6982   46.3988 C   0  0  2  0  0  0  0  0  0  0  0  0
    8.8975   -0.3029   45.3267 O   0  0  0  0  0  0  0  0  0  0  0  0
    4.8299   -4.4637   46.4212 C   0  0  0  0  0  0  0  0  0  0  0  0
    4.2707   -4.9248   47.6295 N   0  0  0  0  0  0  0  0  0  0  0  0
    3.2045   -5.2092   47.1521 C   0  0  0  0  0  0  0  0  0  0  0  0
    1.4482   -4.6186   45.4134 C   0  0  2  0  0  0  0  0  0  0  0  0
    1.2398   -3.5043   44.6236 O   0  0  0  0  0  0  0  0  0  0  0  0
    6.3317   -3.9297   46.0870 C   0  0  2  0  0  0  0  0  0  0  0  0
    9.5296   -2.5449   46.9776 C   0  0  0  0  0  0  0  0  0  0  0  0
    9.7921   -1.7530   47.9018 O   0  0  0  0  0  0  0  0  0  0  0  0
    7.4454   -3.8344   46.8035 C   0  0  0  0  0  0  0  0  0  0  0  0
   10.5010   -3.0847   46.3190 O   0  0  0  0  0  0  0  0  0  0  0  0
    0.5569   -4.7693   46.5649 C   0  0  0  0  0  0  0  0  0  0  0  0
   11.7452   -2.8462   46.6234 C   0  0  0  0  0  0  0  0  0  0  0  0
   12.4344   -1.8951   45.7393 C   0  0  0  0  0  0  0  0  0  0  0  0
   12.4612   -3.5429   47.5581 C   0  0  0  0  0  0  0  0  0  0  0  0
   11.7737   -4.5216   48.4115 C   0  0  0  0  0  0  0  0  0  0  0  0
   11.7935   -5.7538   48.0263 C   0  0  0  0  0  0  0  0  0  0  0  0
   13.8063   -3.2053   47.6588 C   0  0  0  0  0  0  0  0  0  0  0  0
   13.7637   -1.6546   45.8843 C   0  0  0  0  0  0  0  0  0  0  0  0
   14.4667   -2.3219   46.9169 C   0  0  0  0  0  0  0  0  0  0  0  0
   10.6306   -6.4983   47.9875 C   0  0  0  0  0  0  0  0  0  0  0  0
   10.2054   -6.8426   46.5916 C   0  0  0  0  0  0  0  0  0  0  0  0
   10.4502   -7.9629   46.0585 O   0  0  0  0  0  0  0  0  0  0  0  0
  1  2  1  0
  2  3  2  0
  3  4  1  0
  1  5  2  0
  4  5  1  0
  3  6  1  0
  4  7  2  0
  6  8  1  0
  8  9  1  0
  7 10  1  0
  9 11  1  0
  5 12  1  0
  7 13  1  0
  8 13  2  0
 10 14  1  0
 12 15  1  0
 12 16  2  0
 14 17  1  0
 15 18  1  0
 13 19  1  0
 16 20  1  0
 18 20  2  0
 11 21  1  0
 19 21  2  0
 21 22  1  0
 11 23  2  0
 14 24  2  0
 24 25  1  0
 17 26  1  0
 25 26  2  0
 17 27  1  0
 15 28  1  6
 27 28  1  0
 19 29  1  0
 24 29  1  0
 22 30  1  6
 30 31  2  0
 22 32  1  0
 29 32  1  1
 30 33  1  0
 27 34  1  1
 33 35  1  0
 35 36  2  0
 35 37  1  0
 37 38  1  0
 38 39  1  0
 37 40  2  0
 36 41  1  0
 40 42  1  0
 41 42  2  0
 39 43  1  0
 43 44  1  0
 44 45  1  0
M  END
$$$$
O14757_Pocket2Mol_idx-in-all-generaetd-487
     RDKit          3D

 26 30  0  0  0  0  0  0  0  0999 V2000
    5.3514   -0.5125   43.1709 C   0  0  0  0  0  0  0  0  0  0  0  0
    5.1845   -1.6713   43.7896 C   0  0  0  0  0  0  0  0  0  0  0  0
    4.3975    0.1846   42.6789 N   0  0  0  0  0  0  0  0  0  0  0  0
    6.1110   -2.4794   44.5026 C   0  0  0  0  0  0  0  0  0  0  0  0
    3.1882   -0.2361   42.4346 C   0  0  0  0  0  0  0  0  0  0  0  0
    5.6737   -3.4701   45.3157 C   0  0  0  0  0  0  0  0  0  0  0  0
    2.8873   -1.5370   42.8148 N   0  0  0  0  0  0  0  0  0  0  0  0
    2.2882    0.4424   41.8227 N   0  0  0  0  0  0  0  0  0  0  0  0
    4.4679   -4.1651   44.9989 C   0  0  0  0  0  0  0  0  0  0  0  0
    7.3419   -1.8381   44.7891 C   0  0  0  0  0  0  0  0  0  0  0  0
    3.8600   -2.3782   43.6575 C   0  0  0  0  0  0  0  0  0  0  0  0
    3.5111   -3.5244   44.2317 N   0  0  0  0  0  0  0  0  0  0  0  0
    1.1058   -0.5347   41.7583 C   0  0  0  0  0  0  0  0  0  0  0  0
    1.5663   -1.8116   42.4239 C   0  0  0  0  0  0  0  0  0  0  0  0
    6.5651   -4.2288   46.1610 C   0  0  0  0  0  0  0  0  0  0  0  0
    0.8596   -3.0134   42.4732 C   0  0  0  0  0  0  0  0  0  0  0  0
    0.5770   -3.5524   43.4434 N   0  0  0  0  0  0  0  0  0  0  0  0
    0.0101   -4.7871   43.1410 N   0  0  0  0  0  0  0  0  0  0  0  0
    8.2064   -2.5082   45.7658 C   0  0  0  0  0  0  0  0  0  0  0  0
   -0.0258   -5.8973   43.9449 C   0  0  0  0  0  0  0  0  0  0  0  0
   -0.1542   -4.7315   41.8526 C   0  0  0  0  0  0  0  0  0  0  0  0
    7.7929   -3.6561   46.4560 C   0  0  0  0  0  0  0  0  0  0  0  0
    9.4720   -2.0081   46.0703 C   0  0  0  0  0  0  0  0  0  0  0  0
   10.3596   -2.5107   46.8098 O   0  0  0  0  0  0  0  0  0  0  0  0
    9.9569   -0.9912   45.2687 O   0  0  0  0  0  0  0  0  0  0  0  0
    0.2715   -3.5386   41.1848 C   0  0  0  0  0  0  0  0  0  0  0  0
  1  2  1  0
  1  3  2  0
  2  4  1  0
  3  5  1  0
  4  6  1  0
  5  7  1  0
  5  8  2  0
  6  9  2  0
  4 10  2  0
  2 11  2  0
  7 11  1  0
  9 12  1  0
 11 12  1  0
  8 13  1  0
  7 14  1  0
 13 14  2  0
  6 15  1  0
 14 16  1  0
 16 17  2  0
 17 18  1  0
 10 19  1  0
 18 20  1  0
 18 21  1  0
 15 22  2  0
 19 22  1  0
 19 23  1  0
 23 24  2  0
 23 25  1  0
 16 26  1  0
 21 26  2  0
M  END
$$$$
O14757_Pocket2Mol_idx-in-all-generaetd-488
     RDKit          3D

 37 42  0  0  0  0  0  0  0  0999 V2000
    1.5482   -0.3111   41.9233 C   0  0  0  0  0  0  0  0  0  0  0  0
    2.7284    0.2018   42.1525 N   0  0  0  0  0  0  0  0  0  0  0  0
    3.7893   -0.3016   42.7005 C   0  0  0  0  0  0  0  0  0  0  0  0
    3.3781   -1.7350   43.0000 C   0  0  0  0  0  0  0  0  0  0  0  0
    2.0339   -1.9619   42.6217 C   0  0  0  0  0  0  0  0  0  0  0  0
    4.1166   -2.4997   43.8458 C   0  0  0  0  0  0  0  0  0  0  0  0
    1.1731   -3.0051   42.5773 C   0  0  0  0  0  0  0  0  0  0  0  0
    0.4701   -3.2344   41.4901 C   0  0  0  0  0  0  0  0  0  0  0  0
    5.3799   -1.7814   44.2691 C   0  0  0  0  0  0  0  0  0  0  0  0
    5.0159   -0.0180   43.1201 N   0  0  0  0  0  0  0  0  0  0  0  0
    5.7693   -0.6937   43.8418 C   0  0  0  0  0  0  0  0  0  0  0  0
    0.8078   -3.6166   43.6782 C   0  0  0  0  0  0  0  0  0  0  0  0
    0.0663   -4.7011   43.7415 N   0  0  0  0  0  0  0  0  0  0  0  0
    6.2223   -2.6843   45.1565 C   0  0  0  0  0  0  0  0  0  0  0  0
    6.9599   -0.2351   44.2608 N   0  0  0  0  0  0  0  0  0  0  0  0
    5.9065   -3.9037   45.7499 N   0  0  0  0  0  0  0  0  0  0  0  0
   -0.5459   -5.1185   42.5870 C   0  0  0  0  0  0  0  0  0  0  0  0
    5.7480   -4.0340   46.9810 C   0  0  0  0  0  0  0  0  0  0  0  0
    7.4448   -1.8511   45.4198 C   0  0  0  0  0  0  0  0  0  0  0  0
    7.7572   -0.7827   45.0128 C   0  0  0  0  0  0  0  0  0  0  0  0
    8.4076   -2.7217   46.4541 C   0  0  0  0  0  0  0  0  0  0  0  0
    9.3167   -2.0988   47.1049 N   0  0  0  0  0  0  0  0  0  0  0  0
   -0.4719   -4.3893   41.5406 C   0  0  0  0  0  0  0  0  0  0  0  0
    8.3667   -4.0284   46.5743 N   0  0  0  0  0  0  0  0  0  0  0  0
   10.1532   -2.5726   47.9567 C   0  0  0  0  0  0  0  0  0  0  0  0
    7.1666   -4.7114   47.2915 C   0  0  0  0  0  0  0  0  0  0  0  0
   11.4560   -2.5376   47.5873 C   0  0  0  0  0  0  0  0  0  0  0  0
    9.7828   -2.8884   49.1392 O   0  0  0  0  0  0  0  0  0  0  0  0
   12.0816   -3.7528   47.5780 C   0  0  0  0  0  0  0  0  0  0  0  0
   12.1676   -1.4194   47.1600 C   0  0  0  0  0  0  0  0  0  0  0  0
   13.4963   -1.4892   46.7358 C   0  0  0  0  0  0  0  0  0  0  0  0
   14.1777   -0.2963   46.2222 O   0  0  0  0  0  0  0  0  0  0  0  0
   13.4776   -3.8527   47.2600 C   0  0  0  0  0  0  0  0  0  0  0  0
   14.1655   -2.7063   46.7763 C   0  0  0  0  0  0  0  0  0  0  0  0
   15.5649   -2.6842   46.3507 O   0  0  0  0  0  0  0  0  0  0  0  0
   13.7732    0.1273   45.0180 C   0  0  0  0  0  0  0  0  0  0  0  0
   15.8563   -3.2408   45.1697 C   0  0  0  0  0  0  0  0  0  0  0  0
  1  2  1  0
  2  3  2  0
  3  4  1  0
  1  5  2  0
  4  5  1  0
  4  6  2  0
  5  7  1  0
  7  8  2  0
  6  9  1  0
  3 10  1  0
  9 11  2  0
 10 11  1  0
  7 12  1  0
 12 13  2  0
  9 14  1  0
 11 15  1  0
 14 16  1  0
 13 17  1  0
 16 18  1  0
 14 19  2  0
 15 20  2  0
 19 20  1  0
 19 21  1  0
 21 22  2  3
  8 23  1  0
 17 23  2  0
 21 24  1  0
 22 25  1  0
 18 26  1  0
 24 26  1  0
 25 27  1  0
 25 28  2  0
 27 29  2  0
 27 30  1  0
 30 31  2  0
 31 32  1  0
 29 33  1  0
 31 34  1  0
 33 34  2  0
 34 35  1  0
 32 36  1  0
 35 37  1  0
M  END
$$$$
O14757_Pocket2Mol_idx-in-all-generaetd-489
     RDKit          3D

 26 29  0  0  0  0  0  0  0  0999 V2000
    4.5156    0.0550   42.9895 N   0  0  0  0  0  0  0  0  0  0  0  0
    5.0618   -0.8645   43.5295 C   0  0  0  0  0  0  0  0  0  0  0  0
    4.4350   -2.0604   43.7783 C   0  0  0  0  0  0  0  0  0  0  0  0
    4.9987   -3.0994   44.5839 C   0  0  0  0  0  0  0  0  0  0  0  0
    3.2714   -1.8664   43.0632 C   0  0  0  0  0  0  0  0  0  0  0  0
    6.4064   -0.5942   44.3204 N   0  0  0  0  0  0  0  0  0  0  0  0
    4.3422   -4.3256   44.7203 C   0  0  0  0  0  0  0  0  0  0  0  0
    2.1845   -2.6668   42.8270 N   0  0  0  0  0  0  0  0  0  0  0  0
    3.3305   -0.5395   42.5465 N   0  0  0  0  0  0  0  0  0  0  0  0
    1.9502   -3.8972   43.4076 C   0  0  0  0  0  0  0  0  0  0  0  0
    2.7156   -4.1184   44.6954 N   0  0  0  0  0  0  0  0  0  0  0  0
    6.8581   -1.5862   45.1101 C   0  0  0  0  0  0  0  0  0  0  0  0
    6.1801   -2.8430   45.2383 C   0  0  0  0  0  0  0  0  0  0  0  0
    2.1454   -5.1901   45.5771 C   0  0  0  0  0  0  0  0  0  0  0  0
    8.0137   -1.3946   45.8526 C   0  0  0  0  0  0  0  0  0  0  0  0
    0.9733   -4.5725   43.2066 O   0  0  0  0  0  0  0  0  0  0  0  0
    2.2437    0.0035   41.8733 C   0  0  0  0  0  0  0  0  0  0  0  0
    1.3210   -2.2077   41.7009 C   0  0  0  0  0  0  0  0  0  0  0  0
    8.6016   -0.2617   46.0232 O   0  0  0  0  0  0  0  0  0  0  0  0
    8.7571   -2.4474   46.3163 O   0  0  0  0  0  0  0  0  0  0  0  0
   10.0530   -2.2396   46.7982 C   0  0  0  0  0  0  0  0  0  0  0  0
    1.0501   -0.8666   41.6427 C   0  0  0  0  0  0  0  0  0  0  0  0
   10.3260   -3.0186   47.8755 C   0  0  0  0  0  0  0  0  0  0  0  0
   11.0998   -2.5506   45.6925 C   0  0  0  0  0  0  0  0  0  0  0  0
   10.4086   -2.4555   49.0370 O   0  0  0  0  0  0  0  0  0  0  0  0
   11.9531   -1.5686   45.4281 O   0  0  0  0  0  0  0  0  0  0  0  0
  1  2  2  0
  2  3  1  0
  3  4  1  0
  3  5  2  0
  2  6  1  0
  4  7  1  0
  5  8  1  0
  1  9  1  0
  5  9  1  0
  8 10  1  0
  7 11  1  0
 10 11  1  0
  6 12  2  0
  4 13  2  0
 12 13  1  0
 11 14  1  0
 12 15  1  0
 10 16  2  0
  9 17  1  0
  8 18  1  0
 15 19  2  0
 15 20  1  0
 20 21  1  0
 17 22  1  0
 18 22  1  0
 21 23  1  0
 21 24  1  0
 23 25  1  0
 24 26  1  0
M  END
$$$$
O14757_Pocket2Mol_idx-in-all-generaetd-490
     RDKit          3D

 34 37  0  0  0  0  0  0  0  0999 V2000
    3.7044    0.1389   42.5158 N   0  0  0  0  0  0  0  0  0  0  0  0
    3.0206   -1.0018   42.4929 C   0  0  0  0  0  0  0  0  0  0  0  0
    3.4791   -2.0817   43.2077 C   0  0  0  0  0  0  0  0  0  0  0  0
    4.8540    0.3862   43.0582 N   0  0  0  0  0  0  0  0  0  0  0  0
    5.1377   -0.9552   43.7144 C   0  0  0  0  0  0  0  0  0  0  0  0
    1.5846   -1.0753   41.7644 C   0  0  0  0  0  0  0  0  0  0  0  0
    4.6026   -2.0358   43.8129 C   0  0  0  0  0  0  0  0  0  0  0  0
    5.1584   -3.1511   44.6069 C   0  0  0  0  0  0  0  0  0  0  0  0
    6.6094   -0.7911   44.3696 N   0  0  0  0  0  0  0  0  0  0  0  0
    4.4744   -4.3270   44.8472 C   0  0  0  0  0  0  0  0  0  0  0  0
    6.9275   -1.8713   45.2437 C   0  0  0  0  0  0  0  0  0  0  0  0
    8.2702   -1.7750   45.8768 C   0  0  0  0  0  0  0  0  0  0  0  0
    0.9365   -0.0867   41.7346 O   0  0  0  0  0  0  0  0  0  0  0  0
    6.2322   -3.0484   45.3118 C   0  0  0  0  0  0  0  0  0  0  0  0
    6.7747   -4.0433   46.1202 N   0  0  0  0  0  0  0  0  0  0  0  0
    1.2161   -2.2739   41.2518 N   0  0  0  0  0  0  0  0  0  0  0  0
    9.0373   -0.5649   45.9132 O   0  0  0  0  0  0  0  0  0  0  0  0
    3.8907   -5.0906   43.9511 O   0  0  0  0  0  0  0  0  0  0  0  0
    4.3454   -4.8388   46.1621 N   0  0  0  0  0  0  0  0  0  0  0  0
    3.4531   -5.8952   46.4159 C   0  0  0  0  0  0  0  0  0  0  0  0
    8.6904   -2.8983   46.6073 N   0  0  0  0  0  0  0  0  0  0  0  0
    7.9257   -3.9393   46.7384 C   0  0  0  0  0  0  0  0  0  0  0  0
    8.4765   -4.8975   47.5307 O   0  0  0  0  0  0  0  0  0  0  0  0
   10.0100   -2.6771   47.3464 C   0  0  0  0  0  0  0  0  0  0  0  0
   10.0326   -1.8380   48.3764 C   0  0  0  0  0  0  0  0  0  0  0  0
   11.1123   -3.0851   46.6870 C   0  0  0  0  0  0  0  0  0  0  0  0
   11.1072   -3.8213   45.4597 C   0  0  0  0  0  0  0  0  0  0  0  0
   11.0296   -5.0092   45.4509 C   0  0  0  0  0  0  0  0  0  0  0  0
   12.3326   -2.5048   47.0028 C   0  0  0  0  0  0  0  0  0  0  0  0
   11.2651   -1.5297   48.9347 C   0  0  0  0  0  0  0  0  0  0  0  0
   11.1419   -5.9062   44.4986 C   0  0  0  0  0  0  0  0  0  0  0  0
   13.5603   -2.8807   46.4031 C   0  0  0  0  0  0  0  0  0  0  0  0
   11.3044   -0.8406   50.2725 C   0  0  0  0  0  0  0  0  0  0  0  0
   12.4964   -1.9278   48.2915 C   0  0  0  0  0  0  0  0  0  0  0  0
  1  2  2  0
  2  3  1  0
  1  4  1  0
  4  5  2  0
  2  6  1  0
  3  7  2  0
  5  7  1  0
  7  8  1  0
  5  9  1  0
  8 10  1  0
  9 11  2  0
 11 12  1  0
  6 13  2  0
  8 14  2  0
 11 14  1  0
 14 15  1  0
  6 16  1  0
 12 17  2  0
 10 18  2  0
 10 19  1  0
 19 20  1  0
 12 21  1  0
 15 22  1  0
 21 22  1  0
 22 23  2  0
 21 24  1  0
 24 25  2  0
 24 26  1  0
 26 27  1  0
 27 28  2  3
 26 29  2  0
 25 30  1  0
 28 31  1  0
 29 32  1  0
 30 33  1  0
 29 34  1  0
 30 34  2  0
M  END
$$$$
O14757_Pocket2Mol_idx-in-all-generaetd-491
     RDKit          3D

 45 53  0  0  0  0  0  0  0  0999 V2000
    1.5482   -0.3111   41.9233 C   0  0  0  0  0  0  0  0  0  0  0  0
    2.7284    0.2018   42.1525 N   0  0  0  0  0  0  0  0  0  0  0  0
    3.7893   -0.3016   42.7005 C   0  0  0  0  0  0  0  0  0  0  0  0
    3.3781   -1.7350   43.0000 C   0  0  0  0  0  0  0  0  0  0  0  0
    2.0339   -1.9619   42.6217 C   0  0  0  0  0  0  0  0  0  0  0  0
    4.1166   -2.4997   43.8458 C   0  0  0  0  0  0  0  0  0  0  0  0
    1.1731   -3.0051   42.5773 C   0  0  0  0  0  0  0  0  0  0  0  0
    0.4701   -3.2344   41.4901 C   0  0  0  0  0  0  0  0  0  0  0  0
    5.3799   -1.7814   44.2691 C   0  0  0  0  0  0  0  0  0  0  0  0
    5.0159   -0.0180   43.1201 N   0  0  0  0  0  0  0  0  0  0  0  0
    5.7693   -0.6937   43.8418 C   0  0  0  0  0  0  0  0  0  0  0  0
    0.8078   -3.6166   43.6782 C   0  0  0  0  0  0  0  0  0  0  0  0
    0.0663   -4.7011   43.7415 N   0  0  0  0  0  0  0  0  0  0  0  0
    6.2223   -2.6843   45.1565 C   0  0  0  0  0  0  0  0  0  0  0  0
    6.9599   -0.2351   44.2608 N   0  0  0  0  0  0  0  0  0  0  0  0
    5.9065   -3.9037   45.7499 N   0  0  0  0  0  0  0  0  0  0  0  0
   -0.5459   -5.1185   42.5870 C   0  0  0  0  0  0  0  0  0  0  0  0
    5.7480   -4.0340   46.9810 C   0  0  0  0  0  0  0  0  0  0  0  0
    7.4448   -1.8511   45.4198 C   0  0  0  0  0  0  0  0  0  0  0  0
    7.7572   -0.7827   45.0128 C   0  0  0  0  0  0  0  0  0  0  0  0
    8.4076   -2.7217   46.4541 C   0  0  0  0  0  0  0  0  0  0  0  0
    9.3167   -2.0988   47.1049 N   0  0  0  0  0  0  0  0  0  0  0  0
   -0.4719   -4.3893   41.5406 C   0  0  0  0  0  0  0  0  0  0  0  0
    8.3667   -4.0284   46.5743 N   0  0  0  0  0  0  0  0  0  0  0  0
    9.5309   -4.3147   47.3094 C   0  0  0  0  0  0  0  0  0  0  0  0
    5.3113   -3.3789   47.8005 O   0  0  0  0  0  0  0  0  0  0  0  0
    9.9022   -5.6301   47.7684 C   0  0  0  0  0  0  0  0  0  0  0  0
    5.4470   -5.5868   47.2096 C   0  0  0  0  0  0  0  0  0  0  0  0
   11.2254   -5.8679   48.0402 C   0  0  0  0  0  0  0  0  0  0  0  0
    8.9736   -6.6532   47.8548 C   0  0  0  0  0  0  0  0  0  0  0  0
   10.0616   -3.0670   47.6360 C   0  0  0  0  0  0  0  0  0  0  0  0
    7.5566   -6.3564   47.5477 N   0  0  0  0  0  0  0  0  0  0  0  0
    6.4157   -6.1721   48.0913 C   0  0  0  0  0  0  0  0  0  0  0  0
   12.3275   -4.8510   47.9324 C   0  0  0  0  0  0  0  0  0  0  0  0
    9.4585   -7.9662   48.0726 C   0  0  0  0  0  0  0  0  0  0  0  0
   11.5288   -2.7910   48.1740 C   0  0  0  0  0  0  0  0  0  0  0  0
   13.6010   -5.5179   48.0202 O   0  0  0  0  0  0  0  0  0  0  0  0
   11.6306   -7.1387   48.1870 C   0  0  0  0  0  0  0  0  0  0  0  0
   11.5862   -1.4060   48.3147 O   0  0  0  0  0  0  0  0  0  0  0  0
    8.4814   -9.0551   48.1734 O   0  0  0  0  0  0  0  0  0  0  0  0
   12.3378   -3.6636   48.5185 N   0  0  0  0  0  0  0  0  0  0  0  0
   13.0586   -7.4654   48.4917 O   0  0  0  0  0  0  0  0  0  0  0  0
   13.9817   -6.6129   48.1114 C   0  0  0  0  0  0  0  0  0  0  0  0
    8.5240   -9.8230   49.3045 C   0  0  0  0  0  0  0  0  0  0  0  0
   10.7775   -8.3482   48.3919 C   0  0  0  0  0  0  0  0  0  0  0  0
  1  2  1  0
  2  3  2  0
  3  4  1  0
  1  5  2  0
  4  5  1  0
  4  6  2  0
  5  7  1  0
  7  8  2  0
  6  9  1  0
  3 10  1  0
  9 11  2  0
 10 11  1  0
  7 12  1  0
 12 13  2  0
  9 14  1  0
 11 15  1  0
 14 16  1  0
 13 17  1  0
 16 18  1  0
 14 19  2  0
 15 20  2  0
 19 20  1  0
 19 21  1  0
 21 22  2  0
  8 23  1  0
 17 23  2  0
 21 24  1  0
 24 25  1  0
 18 26  2  0
 25 27  1  0
 18 28  1  0
 27 29  2  0
 27 30  1  0
 22 31  1  0
 25 31  2  0
 30 32  1  0
 28 33  1  0
 32 33  1  0
 29 34  1  0
 30 35  2  0
 31 36  1  0
 34 37  1  0
 29 38  1  0
 36 39  2  0
 35 40  1  0
 34 41  2  0
 36 41  1  0
 38 42  1  0
 37 43  1  0
 42 43  1  0
 40 44  1  0
 35 45  1  0
 38 45  2  0
M  END
$$$$
O14757_Pocket2Mol_idx-in-all-generaetd-492
     RDKit          3D

 49 57  0  0  0  0  0  0  0  0999 V2000
    5.3420    0.2589   42.8836 O   0  0  0  0  0  0  0  0  0  0  0  0
    5.1627   -0.7554   43.4753 C   0  0  0  0  0  0  0  0  0  0  0  0
    4.0509   -1.4657   43.4177 N   0  0  0  0  0  0  0  0  0  0  0  0
    5.9969   -1.2317   44.6840 C   0  0  0  0  0  0  0  0  0  0  0  0
    2.9618   -1.1021   42.5918 C   0  0  1  0  0  0  0  0  0  0  0  0
    7.3392   -0.8596   44.8412 C   0  0  0  0  0  0  0  0  0  0  0  0
    1.9754   -2.0820   42.2741 C   0  0  0  0  0  0  0  0  0  0  0  0
    5.5910   -2.4282   45.3439 C   0  0  0  0  0  0  0  0  0  0  0  0
    6.5874   -2.9636   46.1581 C   0  0  0  0  0  0  0  0  0  0  0  0
    4.2763   -3.0680   45.0493 N   0  0  0  0  0  0  0  0  0  0  0  0
    3.6188   -2.5886   44.2024 C   0  0  0  0  0  0  0  0  0  0  0  0
    8.1921   -1.4071   45.7505 C   0  0  0  0  0  0  0  0  0  0  0  0
    1.0154   -1.8839   41.2980 C   0  0  0  0  0  0  0  0  0  0  0  0
    2.5720   -3.3564   43.9063 C   0  0  0  0  0  0  0  0  0  0  0  0
    0.2502   -2.8976   41.0751 C   0  0  0  0  0  0  0  0  0  0  0  0
    6.1761   -4.1775   47.0209 C   0  0  0  0  0  0  0  0  0  0  0  0
    1.7266   -3.1047   43.0115 C   0  0  2  0  0  0  0  0  0  0  0  0
    2.3696   -4.5367   44.7536 N   0  0  0  0  0  0  0  0  0  0  0  0
    1.2264   -5.2346   44.4693 C   0  0  0  0  0  0  0  0  0  0  0  0
    0.7187   -3.8955   42.5465 C   0  0  0  0  0  0  0  0  0  0  0  0
    9.4576   -0.8949   46.0327 N   0  0  0  0  0  0  0  0  0  0  0  0
    0.8625   -6.3901   45.2462 C   0  0  0  0  0  0  0  0  0  0  0  0
    7.6467   -2.5139   46.4892 C   0  0  0  0  0  0  0  0  0  0  0  0
   10.4908   -1.5336   45.8242 C   0  0  0  0  0  0  0  0  0  0  0  0
    0.3057   -4.9299   43.2909 C   0  0  0  0  0  0  0  0  0  0  0  0
   11.5916   -1.4291   46.7436 C   0  0  0  0  0  0  0  0  0  0  0  0
   10.5566   -2.3672   44.8649 O   0  0  0  0  0  0  0  0  0  0  0  0
    2.4730    0.2084   42.8389 O   0  0  0  0  0  0  0  0  0  0  0  0
   11.6027   -2.2081   47.7725 N   0  0  0  0  0  0  0  0  0  0  0  0
   12.6189   -0.5862   46.5415 C   0  0  0  0  0  0  0  0  0  0  0  0
   13.6413   -0.4484   47.4129 C   0  0  0  0  0  0  0  0  0  0  0  0
   10.4764   -3.1097   48.1134 C   0  0  0  0  0  0  0  0  0  0  0  0
    9.5762   -2.4717   49.0753 C   0  0  0  0  0  0  0  0  0  0  0  0
    9.7761   -1.2394   49.5167 C   0  0  0  0  0  0  0  0  0  0  0  0
    8.6397   -3.3252   49.7339 C   0  0  0  0  0  0  0  0  0  0  0  0
    8.9861   -0.7034   50.5819 C   0  0  0  0  0  0  0  0  0  0  0  0
   14.7137    0.5128   47.0925 C   0  0  0  0  0  0  0  0  0  0  0  0
    8.3536   -4.6815   49.2042 C   0  0  0  0  0  0  0  0  0  0  0  0
    7.9034   -2.7594   50.6763 C   0  0  0  0  0  0  0  0  0  0  0  0
    6.9327   -5.0150   49.0248 N   0  0  0  0  0  0  0  0  0  0  0  0
    8.1305   -1.4992   51.1482 C   0  0  0  0  0  0  0  0  0  0  0  0
    6.3852   -3.9495   48.3951 C   0  0  0  0  0  0  0  0  0  0  0  0
   13.6768   -1.2836   48.4696 C   0  0  0  0  0  0  0  0  0  0  0  0
   14.7714   -1.2324   49.3357 C   0  0  0  0  0  0  0  0  0  0  0  0
   14.6039    1.3613   46.0092 O   0  0  0  0  0  0  0  0  0  0  0  0
   15.6148    0.5183   47.8553 C   0  0  0  0  0  0  0  0  0  0  0  0
   16.7444    1.4655   47.6782 O   0  0  0  0  0  0  0  0  0  0  0  0
   15.8666   -0.2403   49.1399 C   0  0  0  0  0  0  0  0  0  0  0  0
   12.6328   -2.2673   48.7779 C   0  0  0  0  0  0  0  0  0  0  0  0
  1  2  2  0
  2  3  1  0
  2  4  1  0
  3  5  1  0
  4  6  2  0
  5  7  1  0
  4  8  1  0
  8  9  2  0
  8 10  1  0
  3 11  1  0
 10 11  2  0
  6 12  1  0
  7 13  2  0
 11 14  1  0
 13 15  1  0
  9 16  1  0
 17  7  1  6
 14 17  1  0
 14 18  2  0
 18 19  1  0
 15 20  2  0
 17 20  1  0
 12 21  1  0
 19 22  1  0
  9 23  1  0
 12 23  2  0
 21 24  1  0
 19 25  2  0
 20 25  1  0
 24 26  1  0
 24 27  2  0
  5 28  1  1
 26 29  1  0
 26 30  2  0
 30 31  1  0
 29 32  1  0
 32 33  1  0
 33 34  1  0
 33 35  2  0
 34 36  2  0
 31 37  2  0
 35 38  1  0
 35 39  1  0
 38 40  1  0
 36 41  1  0
 39 41  2  0
 16 42  1  0
 40 42  1  0
 31 43  1  0
 43 44  2  0
 37 45  1  0
 37 46  1  0
 46 47  1  0
 44 48  1  0
 46 48  2  0
 29 49  1  0
 43 49  1  0
M  END
$$$$
O14757_Pocket2Mol_idx-in-all-generaetd-493
     RDKit          3D

 42 49  0  0  0  0  0  0  0  0999 V2000
    1.5482   -0.3111   41.9233 C   0  0  0  0  0  0  0  0  0  0  0  0
    2.7284    0.2018   42.1525 N   0  0  0  0  0  0  0  0  0  0  0  0
    3.7893   -0.3016   42.7005 C   0  0  0  0  0  0  0  0  0  0  0  0
    3.3781   -1.7350   43.0000 C   0  0  0  0  0  0  0  0  0  0  0  0
    2.0339   -1.9619   42.6217 C   0  0  0  0  0  0  0  0  0  0  0  0
    4.1166   -2.4997   43.8458 C   0  0  0  0  0  0  0  0  0  0  0  0
    1.1731   -3.0051   42.5773 C   0  0  0  0  0  0  0  0  0  0  0  0
    0.4701   -3.2344   41.4901 C   0  0  0  0  0  0  0  0  0  0  0  0
    5.3799   -1.7814   44.2691 C   0  0  0  0  0  0  0  0  0  0  0  0
    5.0159   -0.0180   43.1201 N   0  0  0  0  0  0  0  0  0  0  0  0
    5.7693   -0.6937   43.8418 C   0  0  0  0  0  0  0  0  0  0  0  0
    0.8078   -3.6166   43.6782 C   0  0  0  0  0  0  0  0  0  0  0  0
    0.0663   -4.7011   43.7415 N   0  0  0  0  0  0  0  0  0  0  0  0
    6.2223   -2.6843   45.1565 C   0  0  0  0  0  0  0  0  0  0  0  0
    6.9599   -0.2351   44.2608 N   0  0  0  0  0  0  0  0  0  0  0  0
    5.9065   -3.9037   45.7499 N   0  0  0  0  0  0  0  0  0  0  0  0
   -0.5459   -5.1185   42.5870 C   0  0  0  0  0  0  0  0  0  0  0  0
    5.7480   -4.0340   46.9810 C   0  0  0  0  0  0  0  0  0  0  0  0
    7.4448   -1.8511   45.4198 C   0  0  0  0  0  0  0  0  0  0  0  0
    7.7572   -0.7827   45.0128 C   0  0  0  0  0  0  0  0  0  0  0  0
    8.4076   -2.7217   46.4541 C   0  0  0  0  0  0  0  0  0  0  0  0
    9.3167   -2.0988   47.1049 N   0  0  0  0  0  0  0  0  0  0  0  0
   -0.4719   -4.3893   41.5406 C   0  0  0  0  0  0  0  0  0  0  0  0
    8.3667   -4.0284   46.5743 N   0  0  0  0  0  0  0  0  0  0  0  0
    9.5309   -4.3147   47.3094 C   0  0  0  0  0  0  0  0  0  0  0  0
    5.3113   -3.3789   47.8005 O   0  0  0  0  0  0  0  0  0  0  0  0
    9.9022   -5.6301   47.7684 C   0  0  0  0  0  0  0  0  0  0  0  0
    5.4470   -5.5868   47.2096 C   0  0  0  0  0  0  0  0  0  0  0  0
   11.2254   -5.8679   48.0402 C   0  0  0  0  0  0  0  0  0  0  0  0
    8.9736   -6.6532   47.8548 C   0  0  0  0  0  0  0  0  0  0  0  0
   10.0616   -3.0670   47.6360 C   0  0  0  0  0  0  0  0  0  0  0  0
    7.5566   -6.3564   47.5477 N   0  0  0  0  0  0  0  0  0  0  0  0
    6.4157   -6.1721   48.0913 C   0  0  0  0  0  0  0  0  0  0  0  0
   12.3275   -4.8510   47.9324 C   0  0  0  0  0  0  0  0  0  0  0  0
    9.3494   -7.8378   48.4266 C   0  0  0  0  0  0  0  0  0  0  0  0
   11.2226   -2.8389   48.5368 C   0  0  0  0  0  0  0  0  0  0  0  0
   12.0874   -3.8095   48.8377 N   0  0  0  0  0  0  0  0  0  0  0  0
   11.5658   -7.0862   48.3351 C   0  0  0  0  0  0  0  0  0  0  0  0
   11.4632   -1.6116   48.8872 O   0  0  0  0  0  0  0  0  0  0  0  0
    8.3508   -8.9078   48.5940 O   0  0  0  0  0  0  0  0  0  0  0  0
    8.7056  -10.0966   48.3580 C   0  0  0  0  0  0  0  0  0  0  0  0
   10.6753   -8.1416   48.6170 C   0  0  0  0  0  0  0  0  0  0  0  0
  1  2  1  0
  2  3  2  0
  3  4  1  0
  1  5  2  0
  4  5  1  0
  4  6  2  0
  5  7  1  0
  7  8  2  0
  6  9  1  0
  3 10  1  0
  9 11  2  0
 10 11  1  0
  7 12  1  0
 12 13  2  0
  9 14  1  0
 11 15  1  0
 14 16  1  0
 13 17  1  0
 16 18  1  0
 14 19  2  0
 15 20  2  0
 19 20  1  0
 19 21  1  0
 21 22  2  0
  8 23  1  0
 17 23  2  0
 21 24  1  0
 24 25  1  0
 18 26  2  0
 25 27  1  0
 18 28  1  0
 27 29  2  0
 27 30  1  0
 22 31  1  0
 25 31  2  0
 30 32  1  0
 28 33  1  0
 32 33  1  0
 29 34  1  0
 30 35  2  0
 31 36  1  0
 34 37  1  0
 36 37  1  0
 29 38  1  0
 36 39  2  0
 35 40  1  0
 40 41  1  0
 35 42  1  0
 38 42  2  0
M  END
$$$$
O14757_Pocket2Mol_idx-in-all-generaetd-494
     RDKit          3D

 41 48  0  0  0  0  0  0  0  0999 V2000
    1.5482   -0.3111   41.9233 C   0  0  0  0  0  0  0  0  0  0  0  0
    2.7284    0.2018   42.1525 N   0  0  0  0  0  0  0  0  0  0  0  0
    3.7893   -0.3016   42.7005 C   0  0  0  0  0  0  0  0  0  0  0  0
    3.3781   -1.7350   43.0000 C   0  0  0  0  0  0  0  0  0  0  0  0
    2.0339   -1.9619   42.6217 C   0  0  0  0  0  0  0  0  0  0  0  0
    4.1166   -2.4997   43.8458 C   0  0  0  0  0  0  0  0  0  0  0  0
    1.1731   -3.0051   42.5773 C   0  0  0  0  0  0  0  0  0  0  0  0
    0.4701   -3.2344   41.4901 C   0  0  0  0  0  0  0  0  0  0  0  0
    5.3799   -1.7814   44.2691 C   0  0  0  0  0  0  0  0  0  0  0  0
    5.0159   -0.0180   43.1201 N   0  0  0  0  0  0  0  0  0  0  0  0
    5.7693   -0.6937   43.8418 C   0  0  0  0  0  0  0  0  0  0  0  0
    0.8078   -3.6166   43.6782 C   0  0  0  0  0  0  0  0  0  0  0  0
    0.0663   -4.7011   43.7415 N   0  0  0  0  0  0  0  0  0  0  0  0
    6.2223   -2.6843   45.1565 C   0  0  0  0  0  0  0  0  0  0  0  0
    6.9599   -0.2351   44.2608 N   0  0  0  0  0  0  0  0  0  0  0  0
    5.9065   -3.9037   45.7499 N   0  0  0  0  0  0  0  0  0  0  0  0
   -0.5459   -5.1185   42.5870 C   0  0  0  0  0  0  0  0  0  0  0  0
    5.7480   -4.0340   46.9810 C   0  0  0  0  0  0  0  0  0  0  0  0
    7.4448   -1.8511   45.4198 C   0  0  0  0  0  0  0  0  0  0  0  0
    7.7572   -0.7827   45.0128 C   0  0  0  0  0  0  0  0  0  0  0  0
    8.4076   -2.7217   46.4541 C   0  0  0  0  0  0  0  0  0  0  0  0
    9.3167   -2.0988   47.1049 N   0  0  0  0  0  0  0  0  0  0  0  0
   -0.4719   -4.3893   41.5406 C   0  0  0  0  0  0  0  0  0  0  0  0
    8.3667   -4.0284   46.5743 N   0  0  0  0  0  0  0  0  0  0  0  0
    9.5309   -4.3147   47.3094 C   0  0  0  0  0  0  0  0  0  0  0  0
    5.3113   -3.3789   47.8005 O   0  0  0  0  0  0  0  0  0  0  0  0
    9.9022   -5.6301   47.7684 C   0  0  0  0  0  0  0  0  0  0  0  0
    5.4470   -5.5868   47.2096 C   0  0  0  0  0  0  0  0  0  0  0  0
   11.2254   -5.8679   48.0402 C   0  0  0  0  0  0  0  0  0  0  0  0
    8.9736   -6.6532   47.8548 C   0  0  0  0  0  0  0  0  0  0  0  0
   10.0616   -3.0670   47.6360 C   0  0  0  0  0  0  0  0  0  0  0  0
    7.5566   -6.3564   47.5477 N   0  0  0  0  0  0  0  0  0  0  0  0
   12.3328   -4.8893   47.9268 C   0  0  0  0  0  0  0  0  0  0  0  0
   12.2085   -3.9673   46.9997 C   0  0  0  0  0  0  0  0  0  0  0  0
    9.2156   -7.8300   48.4499 C   0  0  0  0  0  0  0  0  0  0  0  0
   11.4851   -2.8378   47.7540 C   0  0  0  0  0  0  0  0  0  0  0  0
    6.4874   -6.3039   48.2799 C   0  0  0  0  0  0  0  0  0  0  0  0
    8.2619   -8.8998   48.5740 O   0  0  0  0  0  0  0  0  0  0  0  0
   11.5928   -7.1202   48.5770 C   0  0  0  0  0  0  0  0  0  0  0  0
   10.6028   -8.3135   48.8138 C   0  0  0  0  0  0  0  0  0  0  0  0
    8.6525  -10.2044   48.3824 C   0  0  0  0  0  0  0  0  0  0  0  0
  1  2  1  0
  2  3  2  0
  3  4  1  0
  1  5  2  0
  4  5  1  0
  4  6  2  0
  5  7  1  0
  7  8  2  0
  6  9  1  0
  3 10  1  0
  9 11  2  0
 10 11  1  0
  7 12  1  0
 12 13  2  0
  9 14  1  0
 11 15  1  0
 14 16  1  0
 13 17  1  0
 16 18  1  0
 14 19  2  0
 15 20  2  0
 19 20  1  0
 19 21  1  0
 21 22  2  0
  8 23  1  0
 17 23  2  0
 21 24  1  0
 24 25  1  0
 18 26  2  0
 25 27  1  0
 18 28  1  0
 27 29  2  0
 27 30  1  0
 22 31  1  0
 25 31  2  0
 30 32  1  0
 29 33  1  0
 33 34  1  0
 30 35  2  0
 31 36  1  0
 34 36  1  0
 28 37  1  0
 32 37  1  0
 35 38  1  0
 29 39  1  0
 35 40  1  0
 39 40  2  0
 38 41  1  0
M  END
$$$$
O14757_Pocket2Mol_idx-in-all-generaetd-495
     RDKit          3D

 41 48  0  0  0  0  0  0  0  0999 V2000
    4.8037   -0.1366   42.7100 N   0  0  0  0  0  0  0  0  0  0  0  0
    3.6577   -0.7759   42.7186 C   0  0  0  0  0  0  0  0  0  0  0  0
    3.6660   -1.8665   43.4760 C   0  0  0  0  0  0  0  0  0  0  0  0
    2.7271   -2.8718   43.6599 C   0  0  0  0  0  0  0  0  0  0  0  0
    2.4846   -0.2994   42.1254 N   0  0  0  0  0  0  0  0  0  0  0  0
    5.0524   -1.7697   43.9367 C   0  0  0  0  0  0  0  0  0  0  0  0
    1.4917   -2.9000   43.0914 C   0  0  0  0  0  0  0  0  0  0  0  0
    3.1274   -3.9503   44.5163 C   0  0  0  0  0  0  0  0  0  0  0  0
    1.0744   -1.9066   42.1491 C   0  0  2  0  0  0  0  0  0  0  0  0
    5.6624   -0.7003   43.4895 C   0  0  0  0  0  0  0  0  0  0  0  0
    5.5753   -2.5784   45.0324 C   0  0  0  0  0  0  0  0  0  0  0  0
    0.4030   -3.6297   43.4883 N   0  0  0  0  0  0  0  0  0  0  0  0
    1.5052   -0.8077   41.7519 C   0  0  0  0  0  0  0  0  0  0  0  0
   -0.5645   -3.4039   42.5585 N   0  0  0  0  0  0  0  0  0  0  0  0
    2.5059   -5.1012   44.7935 C   0  0  0  0  0  0  0  0  0  0  0  0
    4.4581   -3.8218   45.2947 C   0  0  0  0  0  0  0  0  0  0  0  0
   -0.3089   -2.3979   41.8128 C   0  0  0  0  0  0  0  0  0  0  0  0
    6.6435   -2.6577   45.6991 C   0  0  0  0  0  0  0  0  0  0  0  0
    7.0869   -3.7008   46.4717 C   0  0  0  0  0  0  0  0  0  0  0  0
    7.5912   -1.5296   45.5455 C   0  0  0  0  0  0  0  0  0  0  0  0
    8.7765   -1.4352   46.2248 C   0  0  0  0  0  0  0  0  0  0  0  0
    6.3069   -4.7944   46.6836 O   0  0  0  0  0  0  0  0  0  0  0  0
    4.8984   -4.5252   46.1302 C   0  0  0  0  0  0  0  0  0  0  0  0
    4.2122   -5.9932   46.2216 C   0  0  0  0  0  0  0  0  0  0  0  0
    8.3395   -3.6608   47.2172 C   0  0  0  0  0  0  0  0  0  0  0  0
    4.6690   -6.8778   47.1549 O   0  0  0  0  0  0  0  0  0  0  0  0
    9.1822   -2.5745   47.1243 C   0  0  0  0  0  0  0  0  0  0  0  0
   10.4419   -2.3733   47.8332 C   0  0  0  0  0  0  0  0  0  0  0  0
   10.5277   -1.5655   48.7043 O   0  0  0  0  0  0  0  0  0  0  0  0
    2.9373   -6.0805   45.7037 C   0  0  0  0  0  0  0  0  0  0  0  0
   11.4886   -2.8791   47.1590 O   0  0  0  0  0  0  0  0  0  0  0  0
   12.5752   -2.3359   47.1530 C   0  0  0  0  0  0  0  0  0  0  0  0
   12.9193   -1.9090   45.7253 C   0  0  0  0  0  0  0  0  0  0  0  0
   14.0461   -1.3819   45.4309 C   0  0  0  0  0  0  0  0  0  0  0  0
   15.2160   -1.4809   46.2066 C   0  0  0  0  0  0  0  0  0  0  0  0
   13.7799   -2.7485   47.7604 C   0  0  0  0  0  0  0  0  0  0  0  0
   13.6598   -3.4228   49.0595 C   0  0  0  0  0  0  0  0  0  0  0  0
   13.5409   -4.6430   49.1659 O   0  0  0  0  0  0  0  0  0  0  0  0
   13.4722   -2.7424   50.1521 O   0  0  0  0  0  0  0  0  0  0  0  0
   15.0447   -2.2032   47.4112 C   0  0  0  0  0  0  0  0  0  0  0  0
   14.2297   -0.6264   44.0948 C   0  0  0  0  0  0  0  0  0  0  0  0
  1  2  2  0
  2  3  1  0
  3  4  2  0
  2  5  1  0
  3  6  1  0
  4  7  1  0
  4  8  1  0
  7  9  1  0
  1 10  1  0
  6 10  1  0
  6 11  2  0
  7 12  2  0
  5 13  2  0
  9 13  1  1
 12 14  1  0
  8 15  2  0
  8 16  1  0
 11 16  1  0
  9 17  1  0
 14 17  2  0
 11 18  1  0
 18 19  2  0
 18 20  1  0
 20 21  2  0
 19 22  1  0
 16 23  2  0
 22 23  1  0
 23 24  1  0
 19 25  1  0
 24 26  1  0
 21 27  1  0
 25 27  2  0
 27 28  1  0
 28 29  2  0
 15 30  1  0
 24 30  2  0
 28 31  1  0
 31 32  1  0
 32 33  2  0
 33 34  1  0
 34 35  2  0
 32 36  1  0
 36 37  1  0
 37 38  2  0
 37 39  1  0
 35 40  1  0
 36 40  2  0
 34 41  1  0
M  END
$$$$
O14757_Pocket2Mol_idx-in-all-generaetd-496
     RDKit          3D

 20 22  0  0  0  0  0  0  0  0999 V2000
    5.3420    0.2589   42.8836 N   0  0  0  0  0  0  0  0  0  0  0  0
    5.6740   -0.8311   43.5645 C   0  0  0  0  0  0  0  0  0  0  0  0
    3.9899   -0.0458   42.5141 N   0  0  0  0  0  0  0  0  0  0  0  0
    4.6606   -1.7163   43.6337 C   0  0  0  0  0  0  0  0  0  0  0  0
    3.6244   -1.2025   42.8928 C   0  0  0  0  0  0  0  0  0  0  0  0
    2.3780   -1.7713   42.6359 C   0  0  0  0  0  0  0  0  0  0  0  0
    4.5721   -3.0267   44.2590 C   0  0  0  0  0  0  0  0  0  0  0  0
    1.3110   -1.1954   41.9273 C   0  0  0  0  0  0  0  0  0  0  0  0
    6.9669   -1.0468   44.3352 C   0  0  0  0  0  0  0  0  0  0  0  0
    2.2279   -3.0554   43.2761 C   0  0  0  0  0  0  0  0  0  0  0  0
    7.2112   -1.1065   45.5035 C   0  0  0  0  0  0  0  0  0  0  0  0
    3.2239   -3.6182   44.0333 C   0  0  0  0  0  0  0  0  0  0  0  0
    8.4186   -1.4161   46.1085 C   0  0  0  0  0  0  0  0  0  0  0  0
    9.4169   -0.6822   46.1899 O   0  0  0  0  0  0  0  0  0  0  0  0
    1.1730   -3.8340   43.1918 N   0  0  0  0  0  0  0  0  0  0  0  0
    8.5866   -2.6447   46.7752 O   0  0  0  0  0  0  0  0  0  0  0  0
    9.7613   -3.1816   46.9724 C   0  0  0  0  0  0  0  0  0  0  0  0
    1.2341   -0.0106   41.7009 O   0  0  0  0  0  0  0  0  0  0  0  0
    0.2079   -2.0095   41.7553 N   0  0  0  0  0  0  0  0  0  0  0  0
    0.1705   -3.2619   42.3413 C   0  0  0  0  0  0  0  0  0  0  0  0
  1  2  2  0
  1  3  1  0
  2  4  1  0
  3  5  1  0
  4  5  2  0
  5  6  1  0
  4  7  1  0
  6  8  1  0
  2  9  1  0
  6 10  2  0
  9 11  2  3
  7 12  2  0
 10 12  1  0
 11 13  1  0
 13 14  2  0
 10 15  1  0
 13 16  1  0
 16 17  1  0
  8 18  2  0
  8 19  1  0
 15 20  2  0
 19 20  1  0
M  END
$$$$
O14757_Pocket2Mol_idx-in-all-generaetd-497
     RDKit          3D

 49 57  0  0  0  0  0  0  0  0999 V2000
    5.3420    0.2589   42.8836 O   0  0  0  0  0  0  0  0  0  0  0  0
    5.1627   -0.7554   43.4753 C   0  0  0  0  0  0  0  0  0  0  0  0
    4.0509   -1.4657   43.4177 N   0  0  0  0  0  0  0  0  0  0  0  0
    5.9969   -1.2317   44.6840 C   0  0  0  0  0  0  0  0  0  0  0  0
    2.9618   -1.1021   42.5918 C   0  0  1  0  0  0  0  0  0  0  0  0
    7.3392   -0.8596   44.8412 C   0  0  0  0  0  0  0  0  0  0  0  0
    1.9754   -2.0820   42.2741 C   0  0  0  0  0  0  0  0  0  0  0  0
    5.5910   -2.4282   45.3439 C   0  0  0  0  0  0  0  0  0  0  0  0
    6.5874   -2.9636   46.1581 C   0  0  0  0  0  0  0  0  0  0  0  0
    4.2763   -3.0680   45.0493 N   0  0  0  0  0  0  0  0  0  0  0  0
    3.6188   -2.5886   44.2024 C   0  0  0  0  0  0  0  0  0  0  0  0
    8.1921   -1.4071   45.7505 C   0  0  0  0  0  0  0  0  0  0  0  0
    1.0154   -1.8839   41.2980 C   0  0  0  0  0  0  0  0  0  0  0  0
    2.5720   -3.3564   43.9063 C   0  0  0  0  0  0  0  0  0  0  0  0
    0.2502   -2.8976   41.0751 C   0  0  0  0  0  0  0  0  0  0  0  0
    6.1761   -4.1775   47.0209 C   0  0  0  0  0  0  0  0  0  0  0  0
    1.7266   -3.1047   43.0115 C   0  0  2  0  0  0  0  0  0  0  0  0
    2.3696   -4.5367   44.7536 N   0  0  0  0  0  0  0  0  0  0  0  0
    1.2264   -5.2346   44.4693 C   0  0  0  0  0  0  0  0  0  0  0  0
    0.7187   -3.8955   42.5465 C   0  0  0  0  0  0  0  0  0  0  0  0
    9.4576   -0.8949   46.0327 N   0  0  0  0  0  0  0  0  0  0  0  0
    0.8625   -6.3901   45.2462 C   0  0  0  0  0  0  0  0  0  0  0  0
    7.6467   -2.5139   46.4892 C   0  0  0  0  0  0  0  0  0  0  0  0
   10.4908   -1.5336   45.8242 C   0  0  0  0  0  0  0  0  0  0  0  0
    0.3057   -4.9299   43.2909 C   0  0  0  0  0  0  0  0  0  0  0  0
   11.5916   -1.4291   46.7436 C   0  0  0  0  0  0  0  0  0  0  0  0
   10.5566   -2.3672   44.8649 O   0  0  0  0  0  0  0  0  0  0  0  0
    2.4730    0.2084   42.8389 O   0  0  0  0  0  0  0  0  0  0  0  0
   11.6027   -2.2081   47.7725 N   0  0  0  0  0  0  0  0  0  0  0  0
   12.6189   -0.5862   46.5415 C   0  0  0  0  0  0  0  0  0  0  0  0
   13.6413   -0.4484   47.4129 C   0  0  0  0  0  0  0  0  0  0  0  0
   10.4764   -3.1097   48.1134 C   0  0  0  0  0  0  0  0  0  0  0  0
    9.5762   -2.4717   49.0753 C   0  0  0  0  0  0  0  0  0  0  0  0
    9.7761   -1.2394   49.5167 C   0  0  0  0  0  0  0  0  0  0  0  0
    8.6397   -3.3252   49.7339 C   0  0  0  0  0  0  0  0  0  0  0  0
    8.9861   -0.7034   50.5819 C   0  0  0  0  0  0  0  0  0  0  0  0
   14.7137    0.5128   47.0925 C   0  0  0  0  0  0  0  0  0  0  0  0
    8.3536   -4.6815   49.2042 C   0  0  0  0  0  0  0  0  0  0  0  0
    7.9034   -2.7594   50.6763 C   0  0  0  0  0  0  0  0  0  0  0  0
    6.9327   -5.0150   49.0248 N   0  0  0  0  0  0  0  0  0  0  0  0
    8.1305   -1.4992   51.1482 C   0  0  0  0  0  0  0  0  0  0  0  0
    6.3852   -3.9495   48.3951 C   0  0  0  0  0  0  0  0  0  0  0  0
   13.6768   -1.2836   48.4696 C   0  0  0  0  0  0  0  0  0  0  0  0
   14.7714   -1.2324   49.3357 C   0  0  0  0  0  0  0  0  0  0  0  0
   14.6039    1.3613   46.0092 O   0  0  0  0  0  0  0  0  0  0  0  0
   12.6503   -2.2414   48.6608 C   0  0  0  0  0  0  0  0  0  0  0  0
   15.7218    0.6591   47.9863 C   0  0  0  0  0  0  0  0  0  0  0  0
   14.9009   -2.0129   50.5108 O   0  0  0  0  0  0  0  0  0  0  0  0
   15.8431   -0.2534   49.2292 C   0  0  0  0  0  0  0  0  0  0  0  0
  1  2  2  0
  2  3  1  0
  2  4  1  0
  3  5  1  0
  4  6  2  0
  5  7  1  0
  4  8  1  0
  8  9  2  0
  8 10  1  0
  3 11  1  0
 10 11  2  0
  6 12  1  0
  7 13  2  0
 11 14  1  0
 13 15  1  0
  9 16  1  0
 17  7  1  6
 14 17  1  0
 14 18  2  0
 18 19  1  0
 15 20  2  0
 17 20  1  0
 12 21  1  0
 19 22  1  0
  9 23  1  0
 12 23  2  0
 21 24  1  0
 19 25  2  0
 20 25  1  0
 24 26  1  0
 24 27  2  0
  5 28  1  1
 26 29  1  0
 26 30  2  0
 30 31  1  0
 29 32  1  0
 32 33  1  0
 33 34  1  0
 33 35  2  0
 34 36  2  0
 31 37  2  0
 35 38  1  0
 35 39  1  0
 38 40  1  0
 36 41  1  0
 39 41  2  0
 16 42  1  0
 40 42  1  0
 31 43  1  0
 43 44  2  0
 37 45  1  0
 29 46  1  0
 43 46  1  0
 37 47  1  0
 44 48  1  0
 44 49  1  0
 47 49  2  0
M  END
$$$$
O14757_Pocket2Mol_idx-in-all-generaetd-498
     RDKit          3D

 43 50  0  0  0  0  0  0  0  0999 V2000
    1.5482   -0.3111   41.9233 C   0  0  0  0  0  0  0  0  0  0  0  0
    2.7284    0.2018   42.1525 N   0  0  0  0  0  0  0  0  0  0  0  0
    3.7893   -0.3016   42.7005 C   0  0  0  0  0  0  0  0  0  0  0  0
    3.3781   -1.7350   43.0000 C   0  0  0  0  0  0  0  0  0  0  0  0
    2.0339   -1.9619   42.6217 C   0  0  0  0  0  0  0  0  0  0  0  0
    4.1166   -2.4997   43.8458 C   0  0  0  0  0  0  0  0  0  0  0  0
    1.1731   -3.0051   42.5773 C   0  0  0  0  0  0  0  0  0  0  0  0
    0.4701   -3.2344   41.4901 C   0  0  0  0  0  0  0  0  0  0  0  0
    5.3799   -1.7814   44.2691 C   0  0  0  0  0  0  0  0  0  0  0  0
    5.0159   -0.0180   43.1201 N   0  0  0  0  0  0  0  0  0  0  0  0
    5.7693   -0.6937   43.8418 C   0  0  0  0  0  0  0  0  0  0  0  0
    0.8078   -3.6166   43.6782 C   0  0  0  0  0  0  0  0  0  0  0  0
    0.0663   -4.7011   43.7415 N   0  0  0  0  0  0  0  0  0  0  0  0
    6.2223   -2.6843   45.1565 C   0  0  0  0  0  0  0  0  0  0  0  0
    1.4459   -3.3095   45.0236 O   0  0  0  0  0  0  0  0  0  0  0  0
   -0.5278   -5.1074   42.5506 C   0  0  0  0  0  0  0  0  0  0  0  0
   -1.3099   -6.2193   42.5332 N   0  0  0  0  0  0  0  0  0  0  0  0
   -0.3906   -4.3573   41.3904 C   0  0  0  0  0  0  0  0  0  0  0  0
    7.0535   -0.4845   44.4478 N   0  0  0  0  0  0  0  0  0  0  0  0
    0.6210   -3.8397   46.1835 C   0  0  0  0  0  0  0  0  0  0  0  0
    6.2906   -3.7888   45.8815 C   0  0  0  0  0  0  0  0  0  0  0  0
    7.3965   -1.5466   45.3147 C   0  0  0  0  0  0  0  0  0  0  0  0
    5.1449   -4.4973   46.0473 O   0  0  0  0  0  0  0  0  0  0  0  0
    7.4148   -4.1081   46.6372 C   0  0  0  0  0  0  0  0  0  0  0  0
    8.5011   -3.1747   46.6693 C   0  0  0  0  0  0  0  0  0  0  0  0
    8.4580   -1.9168   46.0438 C   0  0  0  0  0  0  0  0  0  0  0  0
    9.8193   -3.4927   47.5654 C   0  0  1  0  0  0  0  0  0  0  0  0
    4.3482   -4.5667   47.1383 C   0  0  0  0  0  0  0  0  0  0  0  0
   10.8925   -3.4519   46.9633 C   0  0  0  0  0  0  0  0  0  0  0  0
   11.7691   -2.4393   47.2298 N   0  0  0  0  0  0  0  0  0  0  0  0
   11.5679   -1.6048   48.2682 C   0  0  0  0  0  0  0  0  0  0  0  0
   13.2337   -2.7224   46.9899 C   0  0  0  0  0  0  0  0  0  0  0  0
   11.1468   -4.1806   45.9346 O   0  0  0  0  0  0  0  0  0  0  0  0
   14.0674   -3.2434   47.7193 C   0  0  0  0  0  0  0  0  0  0  0  0
   13.7337   -3.8357   48.9955 C   0  0  0  0  0  0  0  0  0  0  0  0
   10.6978   -1.8484   49.2819 O   0  0  0  0  0  0  0  0  0  0  0  0
    9.4523   -2.4064   48.7424 C   0  0  0  0  0  0  0  0  0  0  0  0
   15.3983   -3.3716   47.3589 C   0  0  0  0  0  0  0  0  0  0  0  0
   13.6455   -2.4134   45.5677 C   0  0  0  0  0  0  0  0  0  0  0  0
   16.3780   -3.9452   48.3150 C   0  0  0  0  0  0  0  0  0  0  0  0
   15.9415   -4.4594   49.4450 C   0  0  0  0  0  0  0  0  0  0  0  0
   15.5839   -2.8211   46.1044 C   0  0  0  0  0  0  0  0  0  0  0  0
   14.6246   -4.3790   49.8777 C   0  0  0  0  0  0  0  0  0  0  0  0
  1  2  1  0
  2  3  2  0
  3  4  1  0
  1  5  2  0
  4  5  1  0
  4  6  2  0
  5  7  1  0
  7  8  2  0
  6  9  1  0
  3 10  1  0
  9 11  1  0
 10 11  1  0
  7 12  1  0
 12 13  2  0
  9 14  2  0
 12 15  1  0
 13 16  1  0
 16 17  1  0
  8 18  1  0
 16 18  2  0
 11 19  2  0
 15 20  1  0
 14 21  1  0
 14 22  1  0
 19 22  1  0
 21 23  1  0
 21 24  2  0
 24 25  1  0
 22 26  2  0
 25 26  2  0
 27 25  1  6
 23 28  1  0
 27 29  1  0
 29 30  1  0
 30 31  1  0
 30 32  1  0
 29 33  2  0
 32 34  2  0
 34 35  1  0
 31 36  1  0
 27 37  1  0
 36 37  1  0
 34 38  1  0
 32 39  1  0
 38 40  1  0
 40 41  2  0
 38 42  2  0
 39 42  1  0
 35 43  2  0
 41 43  1  0
M  END
$$$$
O14757_Pocket2Mol_idx-in-all-generaetd-499
     RDKit          3D

 25 28  0  0  0  0  0  0  0  0999 V2000
    5.3420    0.2589   42.8836 N   0  0  0  0  0  0  0  0  0  0  0  0
    5.6740   -0.8311   43.5645 C   0  0  0  0  0  0  0  0  0  0  0  0
    3.9899   -0.0458   42.5141 N   0  0  0  0  0  0  0  0  0  0  0  0
    4.6606   -1.7163   43.6337 C   0  0  0  0  0  0  0  0  0  0  0  0
    3.6244   -1.2025   42.8928 C   0  0  0  0  0  0  0  0  0  0  0  0
    2.3780   -1.7713   42.6359 C   0  0  0  0  0  0  0  0  0  0  0  0
    4.5721   -3.0267   44.2590 C   0  0  0  0  0  0  0  0  0  0  0  0
    1.3110   -1.1954   41.9273 C   0  0  0  0  0  0  0  0  0  0  0  0
    2.2543   -3.0870   43.2441 C   0  0  0  0  0  0  0  0  0  0  0  0
    3.1715   -3.6328   44.0301 C   0  0  0  0  0  0  0  0  0  0  0  0
    6.9681   -1.0792   44.3218 C   0  0  0  0  0  0  0  0  0  0  0  0
    0.2874   -1.9049   41.5221 C   0  0  0  0  0  0  0  0  0  0  0  0
    7.0391   -1.0722   45.7447 C   0  0  0  0  0  0  0  0  0  0  0  0
    1.0976   -3.7968   42.8954 C   0  0  0  0  0  0  0  0  0  0  0  0
    8.2678   -0.6661   46.3412 N   0  0  0  0  0  0  0  0  0  0  0  0
    0.1187   -3.1920   42.0706 C   0  0  0  0  0  0  0  0  0  0  0  0
    6.1347   -1.6031   46.4802 O   0  0  0  0  0  0  0  0  0  0  0  0
    9.4748   -0.8352   45.7240 C   0  0  0  0  0  0  0  0  0  0  0  0
   10.4351   -1.4234   46.7144 C   0  0  1  0  0  0  0  0  0  0  0  0
    9.9708   -2.5113   47.3461 O   0  0  0  0  0  0  0  0  0  0  0  0
   11.7087   -1.8480   46.0447 C   0  0  0  0  0  0  0  0  0  0  0  0
   12.7535   -1.4164   46.1993 O   0  0  0  0  0  0  0  0  0  0  0  0
    9.7193   -3.6365   46.5739 C   0  0  0  0  0  0  0  0  0  0  0  0
   11.5870   -3.0041   45.3211 O   0  0  0  0  0  0  0  0  0  0  0  0
   10.9776   -4.1347   46.0053 C   0  0  0  0  0  0  0  0  0  0  0  0
  1  2  2  0
  1  3  1  0
  2  4  1  0
  3  5  1  0
  4  5  2  0
  5  6  1  0
  4  7  1  0
  6  8  2  0
  6  9  1  0
  7 10  2  0
  9 10  1  0
  2 11  1  0
  8 12  1  0
 11 13  1  0
  9 14  2  0
 13 15  1  0
 12 16  2  0
 14 16  1  0
 13 17  2  0
 15 18  1  0
 19 18  1  6
 19 20  1  0
 19 21  1  0
 21 22  2  0
 20 23  1  0
 21 24  1  0
 23 25  1  0
 24 25  1  0
M  END
$$$$
O14757_Pocket2Mol_idx-in-all-generaetd-500
     RDKit          3D

 30 37  0  0  0  0  0  0  0  0999 V2000
    1.5482   -0.3111   41.9233 C   0  0  0  0  0  0  0  0  0  0  0  0
    2.7284    0.2018   42.1525 N   0  0  0  0  0  0  0  0  0  0  0  0
    3.7893   -0.3016   42.7005 C   0  0  0  0  0  0  0  0  0  0  0  0
    3.3781   -1.7350   43.0000 C   0  0  0  0  0  0  0  0  0  0  0  0
    2.0339   -1.9619   42.6217 C   0  0  0  0  0  0  0  0  0  0  0  0
    5.0090    0.1219   42.9340 N   0  0  0  0  0  0  0  0  0  0  0  0
    4.2895   -2.4979   43.6707 C   0  0  0  0  0  0  0  0  0  0  0  0
    5.8391   -0.6675   43.6343 C   0  0  0  0  0  0  0  0  0  0  0  0
    6.9849   -0.2377   44.0028 N   0  0  0  0  0  0  0  0  0  0  0  0
    4.0426   -3.8794   44.0832 C   0  0  0  0  0  0  0  0  0  0  0  0
    7.6796   -0.8734   44.9326 C   0  0  0  0  0  0  0  0  0  0  0  0
    1.1064   -2.9576   42.4211 C   0  0  0  0  0  0  0  0  0  0  0  0
    5.5298   -1.9496   44.0315 C   0  0  0  0  0  0  0  0  0  0  0  0
    3.8954   -4.1817   45.4718 C   0  0  0  0  0  0  0  0  0  0  0  0
    0.6765   -3.5480   43.4006 C   0  0  1  0  0  0  0  0  0  0  0  0
    0.5804   -3.2191   41.1635 C   0  0  0  0  0  0  0  0  0  0  0  0
    2.8083   -4.8227   45.9203 N   0  0  0  0  0  0  0  0  0  0  0  0
   -0.1574   -4.5754   42.9329 N   0  0  0  0  0  0  0  0  0  0  0  0
    6.5271   -2.5531   44.9677 C   0  0  0  0  0  0  0  0  0  0  0  0
   -0.2272   -4.3703   41.5137 C   0  0  0  0  0  0  0  0  0  0  0  0
    7.5095   -2.0029   45.3993 C   0  0  0  0  0  0  0  0  0  0  0  0
    8.2550   -2.6982   46.3988 C   0  0  0  0  0  0  0  0  0  0  0  0
    8.8975   -0.3029   45.3267 O   0  0  0  0  0  0  0  0  0  0  0  0
    4.8299   -4.4637   46.4212 C   0  0  0  0  0  0  0  0  0  0  0  0
    4.2707   -4.9248   47.6295 N   0  0  0  0  0  0  0  0  0  0  0  0
    3.2045   -5.2092   47.1521 C   0  0  0  0  0  0  0  0  0  0  0  0
    1.5847   -5.1047   45.2005 C   0  0  0  0  0  0  0  0  0  0  0  0
    7.8330   -3.9605   46.8637 C   0  0  0  0  0  0  0  0  0  0  0  0
    6.2955   -3.7845   46.0841 C   0  0  2  0  0  0  0  0  0  0  0  0
    1.1405   -3.6168   44.7318 C   0  0  0  0  0  0  0  0  0  0  0  0
  1  2  1  0
  2  3  2  0
  3  4  1  0
  1  5  2  0
  4  5  1  0
  3  6  1  0
  4  7  2  0
  6  8  1  0
  8  9  1  0
  7 10  1  0
  9 11  1  0
  5 12  1  0
  7 13  1  0
  8 13  2  0
 10 14  1  0
 12 15  1  0
 12 16  2  0
 14 17  1  0
 15 18  1  0
 13 19  1  0
 16 20  1  0
 18 20  2  0
 11 21  1  0
 19 21  2  0
 21 22  1  0
 11 23  2  0
 14 24  2  0
 24 25  1  0
 17 26  1  0
 25 26  2  0
 17 27  1  0
 22 28  2  0
 19 29  1  0
 24 29  1  0
 29 28  1  1
 15 30  1  6
 27 30  1  0
M  END
$$$$
O14757_Pocket2Mol_idx-in-all-generaetd-501
     RDKit          3D

 36 41  0  0  0  0  0  0  0  0999 V2000
    1.5482   -0.3111   41.9233 C   0  0  0  0  0  0  0  0  0  0  0  0
    2.7284    0.2018   42.1525 N   0  0  0  0  0  0  0  0  0  0  0  0
    3.7893   -0.3016   42.7005 C   0  0  0  0  0  0  0  0  0  0  0  0
    3.3781   -1.7350   43.0000 C   0  0  0  0  0  0  0  0  0  0  0  0
    2.0339   -1.9619   42.6217 C   0  0  0  0  0  0  0  0  0  0  0  0
    4.1166   -2.4997   43.8458 C   0  0  0  0  0  0  0  0  0  0  0  0
    1.1731   -3.0051   42.5773 C   0  0  0  0  0  0  0  0  0  0  0  0
    0.4701   -3.2344   41.4901 C   0  0  0  0  0  0  0  0  0  0  0  0
    5.3799   -1.7814   44.2691 C   0  0  0  0  0  0  0  0  0  0  0  0
    5.0159   -0.0180   43.1201 N   0  0  0  0  0  0  0  0  0  0  0  0
    5.7693   -0.6937   43.8418 C   0  0  0  0  0  0  0  0  0  0  0  0
    0.8078   -3.6166   43.6782 C   0  0  0  0  0  0  0  0  0  0  0  0
    0.0663   -4.7011   43.7415 N   0  0  0  0  0  0  0  0  0  0  0  0
    6.2223   -2.6843   45.1565 C   0  0  0  0  0  0  0  0  0  0  0  0
    6.9599   -0.2351   44.2608 N   0  0  0  0  0  0  0  0  0  0  0  0
    5.9065   -3.9037   45.7499 N   0  0  0  0  0  0  0  0  0  0  0  0
   -0.5459   -5.1185   42.5870 C   0  0  0  0  0  0  0  0  0  0  0  0
    5.7480   -4.0340   46.9810 C   0  0  0  0  0  0  0  0  0  0  0  0
    7.4448   -1.8511   45.4198 C   0  0  0  0  0  0  0  0  0  0  0  0
    7.7572   -0.7827   45.0128 C   0  0  0  0  0  0  0  0  0  0  0  0
    8.4076   -2.7217   46.4541 C   0  0  0  0  0  0  0  0  0  0  0  0
    9.3167   -2.0988   47.1049 N   0  0  0  0  0  0  0  0  0  0  0  0
   -0.4719   -4.3893   41.5406 C   0  0  0  0  0  0  0  0  0  0  0  0
    8.3667   -4.0284   46.5743 N   0  0  0  0  0  0  0  0  0  0  0  0
   10.1532   -2.5726   47.9567 C   0  0  0  0  0  0  0  0  0  0  0  0
    7.1666   -4.7114   47.2915 C   0  0  0  0  0  0  0  0  0  0  0  0
   11.4560   -2.5376   47.5873 C   0  0  0  0  0  0  0  0  0  0  0  0
    9.7828   -2.8884   49.1392 O   0  0  0  0  0  0  0  0  0  0  0  0
   12.0816   -3.7528   47.5780 C   0  0  0  0  0  0  0  0  0  0  0  0
   12.1676   -1.4194   47.1600 C   0  0  0  0  0  0  0  0  0  0  0  0
   13.4963   -1.4892   46.7358 C   0  0  0  0  0  0  0  0  0  0  0  0
   14.1777   -0.2963   46.2222 O   0  0  0  0  0  0  0  0  0  0  0  0
   11.4576   -4.9781   48.0748 C   0  0  0  0  0  0  0  0  0  0  0  0
   14.1588   -2.7369   46.7043 C   0  0  0  0  0  0  0  0  0  0  0  0
   13.4963   -3.9032   47.1749 C   0  0  0  0  0  0  0  0  0  0  0  0
   14.1218   -0.0164   44.9823 C   0  0  0  0  0  0  0  0  0  0  0  0
  1  2  1  0
  2  3  2  0
  3  4  1  0
  1  5  2  0
  4  5  1  0
  4  6  2  0
  5  7  1  0
  7  8  2  0
  6  9  1  0
  3 10  1  0
  9 11  2  0
 10 11  1  0
  7 12  1  0
 12 13  2  0
  9 14  1  0
 11 15  1  0
 14 16  1  0
 13 17  1  0
 16 18  1  0
 14 19  2  0
 15 20  2  0
 19 20  1  0
 19 21  1  0
 21 22  2  3
  8 23  1  0
 17 23  2  0
 21 24  1  0
 22 25  1  0
 18 26  1  0
 24 26  1  0
 25 27  1  0
 25 28  2  0
 27 29  2  0
 27 30  1  0
 30 31  2  0
 31 32  1  0
 29 33  1  0
 31 34  1  0
 29 35  1  0
 34 35  2  0
 32 36  1  0
M  END
$$$$
O14757_Pocket2Mol_idx-in-all-generaetd-502
     RDKit          3D

 42 50  0  0  0  0  0  0  0  0999 V2000
    1.5482   -0.3111   41.9233 C   0  0  0  0  0  0  0  0  0  0  0  0
    2.7284    0.2018   42.1525 N   0  0  0  0  0  0  0  0  0  0  0  0
    3.7893   -0.3016   42.7005 C   0  0  0  0  0  0  0  0  0  0  0  0
    3.3781   -1.7350   43.0000 C   0  0  0  0  0  0  0  0  0  0  0  0
    2.0339   -1.9619   42.6217 C   0  0  0  0  0  0  0  0  0  0  0  0
    5.0090    0.1219   42.9340 N   0  0  0  0  0  0  0  0  0  0  0  0
    4.2895   -2.4979   43.6707 C   0  0  0  0  0  0  0  0  0  0  0  0
    5.8391   -0.6675   43.6343 C   0  0  0  0  0  0  0  0  0  0  0  0
    6.9849   -0.2377   44.0028 N   0  0  0  0  0  0  0  0  0  0  0  0
    4.0426   -3.8794   44.0832 C   0  0  0  0  0  0  0  0  0  0  0  0
    7.6796   -0.8734   44.9326 C   0  0  0  0  0  0  0  0  0  0  0  0
    1.1064   -2.9576   42.4211 C   0  0  0  0  0  0  0  0  0  0  0  0
    5.5298   -1.9496   44.0315 C   0  0  0  0  0  0  0  0  0  0  0  0
    3.8954   -4.1817   45.4718 C   0  0  0  0  0  0  0  0  0  0  0  0
    0.6765   -3.5480   43.4006 C   0  0  1  0  0  0  0  0  0  0  0  0
    0.5804   -3.2191   41.1635 C   0  0  0  0  0  0  0  0  0  0  0  0
    2.8083   -4.8227   45.9203 N   0  0  0  0  0  0  0  0  0  0  0  0
   -0.1574   -4.5754   42.9329 N   0  0  0  0  0  0  0  0  0  0  0  0
    6.5271   -2.5531   44.9677 C   0  0  0  0  0  0  0  0  0  0  0  0
   -0.2272   -4.3703   41.5137 C   0  0  0  0  0  0  0  0  0  0  0  0
    7.5095   -2.0029   45.3993 C   0  0  0  0  0  0  0  0  0  0  0  0
    8.2550   -2.6982   46.3988 C   0  0  0  0  0  0  0  0  0  0  0  0
    8.8975   -0.3029   45.3267 O   0  0  0  0  0  0  0  0  0  0  0  0
    4.8299   -4.4637   46.4212 C   0  0  0  0  0  0  0  0  0  0  0  0
    4.2707   -4.9248   47.6295 N   0  0  0  0  0  0  0  0  0  0  0  0
    3.2045   -5.2092   47.1521 C   0  0  0  0  0  0  0  0  0  0  0  0
    1.4482   -4.6186   45.4134 C   0  0  1  0  0  0  0  0  0  0  0  0
    1.2398   -3.5043   44.6236 O   0  0  0  0  0  0  0  0  0  0  0  0
    6.3317   -3.9297   46.0870 C   0  0  2  0  0  0  0  0  0  0  0  0
    9.5296   -2.5449   46.9776 C   0  0  0  0  0  0  0  0  0  0  0  0
    9.7921   -1.7530   47.9018 O   0  0  0  0  0  0  0  0  0  0  0  0
    7.3972   -3.8130   46.7939 C   0  0  0  0  0  0  0  0  0  0  0  0
    1.2392   -5.7793   44.5610 C   0  0  0  0  0  0  0  0  0  0  0  0
   10.4934   -3.0755   46.3117 N   0  0  0  0  0  0  0  0  0  0  0  0
   10.3750   -4.1130   45.4302 C   0  0  0  0  0  0  0  0  0  0  0  0
   11.8947   -2.7998   46.7984 C   0  0  0  0  0  0  0  0  0  0  0  0
   12.8362   -2.7998   45.7275 C   0  0  1  0  0  0  0  0  0  0  0  0
   11.7375   -4.7913   45.1817 C   0  0  0  0  0  0  0  0  0  0  0  0
   14.0236   -2.1316   45.9685 C   0  0  0  0  0  0  0  0  0  0  0  0
   12.9852   -4.1342   45.5127 O   0  0  0  0  0  0  0  0  0  0  0  0
   14.5965   -2.5787   46.9150 O   0  0  0  0  0  0  0  0  0  0  0  0
   14.0617   -0.7789   45.6393 O   0  0  0  0  0  0  0  0  0  0  0  0
  1  2  1  0
  2  3  2  0
  3  4  1  0
  1  5  2  0
  4  5  1  0
  3  6  1  0
  4  7  2  0
  6  8  1  0
  8  9  1  0
  7 10  1  0
  9 11  1  0
  5 12  1  0
  7 13  1  0
  8 13  2  0
 10 14  1  0
 12 15  1  0
 12 16  2  0
 14 17  1  0
 15 18  1  0
 13 19  1  0
 16 20  1  0
 18 20  2  0
 11 21  1  0
 19 21  2  0
 21 22  1  0
 11 23  2  0
 14 24  2  0
 24 25  1  0
 17 26  1  0
 25 26  2  0
 17 27  1  0
 15 28  1  6
 27 28  1  0
 19 29  1  0
 24 29  1  0
 22 30  1  0
 30 31  2  0
 22 32  2  0
 29 32  1  1
 27 33  1  6
 30 34  1  0
 34 35  1  0
 34 36  1  0
 36 37  1  0
 35 38  1  0
 37 39  1  1
 37 40  1  0
 38 40  1  0
 39 41  1  0
 39 42  2  0
M  END
$$$$
O14757_Pocket2Mol_idx-in-all-generaetd-503
     RDKit          3D

 25 29  0  0  0  0  0  0  0  0999 V2000
    5.3420    0.2589   42.8836 O   0  0  0  0  0  0  0  0  0  0  0  0
    5.1627   -0.7554   43.4753 C   0  0  0  0  0  0  0  0  0  0  0  0
    4.0509   -1.4657   43.4177 N   0  0  0  0  0  0  0  0  0  0  0  0
    5.9969   -1.2317   44.6840 C   0  0  0  0  0  0  0  0  0  0  0  0
    2.9618   -1.1021   42.5918 C   0  0  0  0  0  0  0  0  0  0  0  0
    7.3392   -0.8596   44.8412 C   0  0  0  0  0  0  0  0  0  0  0  0
    1.9754   -2.0820   42.2741 C   0  0  0  0  0  0  0  0  0  0  0  0
    5.5910   -2.4282   45.3439 C   0  0  0  0  0  0  0  0  0  0  0  0
    6.5874   -2.9636   46.1581 C   0  0  0  0  0  0  0  0  0  0  0  0
    4.2763   -3.0680   45.0493 N   0  0  0  0  0  0  0  0  0  0  0  0
    3.6188   -2.5886   44.2024 C   0  0  0  0  0  0  0  0  0  0  0  0
    8.1921   -1.4071   45.7505 C   0  0  0  0  0  0  0  0  0  0  0  0
    1.0154   -1.8839   41.2980 C   0  0  0  0  0  0  0  0  0  0  0  0
    2.3905   -3.2127   43.6473 C   0  0  0  0  0  0  0  0  0  0  0  0
    9.4770   -0.8947   46.0080 N   0  0  0  0  0  0  0  0  0  0  0  0
    1.7918   -4.2090   43.8270 O   0  0  0  0  0  0  0  0  0  0  0  0
    1.3979   -0.6373   40.7731 C   0  0  0  0  0  0  0  0  0  0  0  0
    2.7374   -0.0239   41.5319 C   0  0  0  0  0  0  0  0  0  0  0  0
    7.7582   -2.5329   46.4776 C   0  0  0  0  0  0  0  0  0  0  0  0
    0.0093   -2.6498   40.9650 C   0  0  0  0  0  0  0  0  0  0  0  0
    8.6998   -3.0373   47.3697 O   0  0  0  0  0  0  0  0  0  0  0  0
   -1.2234   -2.4389   41.6752 N   0  0  0  0  0  0  0  0  0  0  0  0
    0.1290   -3.6388   40.3704 O   0  0  0  0  0  0  0  0  0  0  0  0
    9.6526   -2.3478   47.6635 C   0  0  0  0  0  0  0  0  0  0  0  0
   10.3340   -1.5912   46.6945 C   0  0  0  0  0  0  0  0  0  0  0  0
  1  2  2  0
  2  3  1  0
  2  4  1  0
  3  5  1  0
  4  6  2  0
  5  7  1  0
  4  8  1  0
  8  9  2  0
  8 10  1  0
  3 11  1  0
 10 11  2  0
  6 12  1  0
  7 13  2  0
  7 14  1  0
 11 14  1  0
 12 15  1  0
 14 16  2  0
 13 17  1  0
  5 18  2  0
 17 18  2  0
  9 19  1  0
 12 19  2  0
 13 20  1  0
 19 21  1  0
 20 22  1  0
 20 23  2  0
 21 24  1  0
 15 25  1  0
 24 25  1  0
M  END
$$$$
O14757_Pocket2Mol_idx-in-all-generaetd-504
     RDKit          3D

 40 46  0  0  0  0  0  0  0  0999 V2000
    1.5482   -0.3111   41.9233 C   0  0  0  0  0  0  0  0  0  0  0  0
    2.7284    0.2018   42.1525 N   0  0  0  0  0  0  0  0  0  0  0  0
    3.7893   -0.3016   42.7005 C   0  0  0  0  0  0  0  0  0  0  0  0
    3.3781   -1.7350   43.0000 C   0  0  0  0  0  0  0  0  0  0  0  0
    2.0339   -1.9619   42.6217 C   0  0  0  0  0  0  0  0  0  0  0  0
    4.1166   -2.4997   43.8458 C   0  0  0  0  0  0  0  0  0  0  0  0
    1.1731   -3.0051   42.5773 C   0  0  0  0  0  0  0  0  0  0  0  0
    0.4701   -3.2344   41.4901 C   0  0  0  0  0  0  0  0  0  0  0  0
    5.3799   -1.7814   44.2691 C   0  0  0  0  0  0  0  0  0  0  0  0
    5.0159   -0.0180   43.1201 N   0  0  0  0  0  0  0  0  0  0  0  0
    5.7693   -0.6937   43.8418 C   0  0  0  0  0  0  0  0  0  0  0  0
    0.8078   -3.6166   43.6782 C   0  0  0  0  0  0  0  0  0  0  0  0
    0.0663   -4.7011   43.7415 N   0  0  0  0  0  0  0  0  0  0  0  0
    6.2223   -2.6843   45.1565 C   0  0  0  0  0  0  0  0  0  0  0  0
    6.9599   -0.2351   44.2608 N   0  0  0  0  0  0  0  0  0  0  0  0
    5.9065   -3.9037   45.7499 N   0  0  0  0  0  0  0  0  0  0  0  0
   -0.5459   -5.1185   42.5870 C   0  0  0  0  0  0  0  0  0  0  0  0
    5.7480   -4.0340   46.9810 C   0  0  0  0  0  0  0  0  0  0  0  0
    7.4448   -1.8511   45.4198 C   0  0  0  0  0  0  0  0  0  0  0  0
    7.7572   -0.7827   45.0128 C   0  0  0  0  0  0  0  0  0  0  0  0
    8.4076   -2.7217   46.4541 C   0  0  0  0  0  0  0  0  0  0  0  0
    9.3167   -2.0988   47.1049 N   0  0  0  0  0  0  0  0  0  0  0  0
   -0.4719   -4.3893   41.5406 C   0  0  0  0  0  0  0  0  0  0  0  0
    8.3667   -4.0284   46.5743 N   0  0  0  0  0  0  0  0  0  0  0  0
    9.5309   -4.3147   47.3094 C   0  0  0  0  0  0  0  0  0  0  0  0
    5.3113   -3.3789   47.8005 O   0  0  0  0  0  0  0  0  0  0  0  0
    9.9022   -5.6301   47.7684 C   0  0  0  0  0  0  0  0  0  0  0  0
    5.4470   -5.5868   47.2096 C   0  0  0  0  0  0  0  0  0  0  0  0
   11.2254   -5.8679   48.0402 C   0  0  0  0  0  0  0  0  0  0  0  0
    8.9736   -6.6532   47.8548 C   0  0  0  0  0  0  0  0  0  0  0  0
   10.0616   -3.0670   47.6360 C   0  0  0  0  0  0  0  0  0  0  0  0
    7.5566   -6.3564   47.5477 N   0  0  0  0  0  0  0  0  0  0  0  0
    6.4157   -6.1721   48.0913 C   0  0  0  0  0  0  0  0  0  0  0  0
    9.3646   -7.8782   48.1671 C   0  0  0  0  0  0  0  0  0  0  0  0
   12.3073   -4.8526   47.9155 O   0  0  0  0  0  0  0  0  0  0  0  0
    8.3867   -8.9995   48.3228 O   0  0  0  0  0  0  0  0  0  0  0  0
   11.6317   -7.0760   48.3359 C   0  0  0  0  0  0  0  0  0  0  0  0
   12.8193   -4.6830   46.6638 C   0  0  0  0  0  0  0  0  0  0  0  0
   13.0376   -7.4410   48.7000 O   0  0  0  0  0  0  0  0  0  0  0  0
   10.7199   -8.1799   48.5150 C   0  0  0  0  0  0  0  0  0  0  0  0
  1  2  1  0
  2  3  2  0
  3  4  1  0
  1  5  2  0
  4  5  1  0
  4  6  2  0
  5  7  1  0
  7  8  2  0
  6  9  1  0
  3 10  1  0
  9 11  2  0
 10 11  1  0
  7 12  1  0
 12 13  2  0
  9 14  1  0
 11 15  1  0
 14 16  1  0
 13 17  1  0
 16 18  1  0
 14 19  2  0
 15 20  2  0
 19 20  1  0
 19 21  1  0
 21 22  2  0
  8 23  1  0
 17 23  2  0
 21 24  1  0
 24 25  1  0
 18 26  2  0
 25 27  1  0
 18 28  1  0
 27 29  2  0
 27 30  1  0
 22 31  1  0
 25 31  2  0
 30 32  1  0
 28 33  1  0
 32 33  1  0
 30 34  2  0
 29 35  1  0
 34 36  1  0
 29 37  1  0
 35 38  1  0
 37 39  1  0
 34 40  1  0
 37 40  2  0
M  END
$$$$
O14757_Pocket2Mol_idx-in-all-generaetd-505
     RDKit          3D

 46 53  0  0  0  0  0  0  0  0999 V2000
    5.3420    0.2589   42.8836 O   0  0  0  0  0  0  0  0  0  0  0  0
    5.1627   -0.7554   43.4753 C   0  0  0  0  0  0  0  0  0  0  0  0
    4.0509   -1.4657   43.4177 N   0  0  0  0  0  0  0  0  0  0  0  0
    5.9969   -1.2317   44.6840 C   0  0  0  0  0  0  0  0  0  0  0  0
    2.9618   -1.1021   42.5918 C   0  0  1  0  0  0  0  0  0  0  0  0
    7.3392   -0.8596   44.8412 C   0  0  0  0  0  0  0  0  0  0  0  0
    1.9754   -2.0820   42.2741 C   0  0  0  0  0  0  0  0  0  0  0  0
    5.5910   -2.4282   45.3439 C   0  0  0  0  0  0  0  0  0  0  0  0
    6.5874   -2.9636   46.1581 C   0  0  0  0  0  0  0  0  0  0  0  0
    4.2763   -3.0680   45.0493 N   0  0  0  0  0  0  0  0  0  0  0  0
    3.6188   -2.5886   44.2024 C   0  0  0  0  0  0  0  0  0  0  0  0
    8.1921   -1.4071   45.7505 C   0  0  0  0  0  0  0  0  0  0  0  0
    1.0154   -1.8839   41.2980 C   0  0  0  0  0  0  0  0  0  0  0  0
    2.5720   -3.3564   43.9063 C   0  0  0  0  0  0  0  0  0  0  0  0
    0.2502   -2.8976   41.0751 C   0  0  0  0  0  0  0  0  0  0  0  0
    6.1761   -4.1775   47.0209 C   0  0  0  0  0  0  0  0  0  0  0  0
    1.7266   -3.1047   43.0115 C   0  0  2  0  0  0  0  0  0  0  0  0
    2.3696   -4.5367   44.7536 N   0  0  0  0  0  0  0  0  0  0  0  0
    1.2264   -5.2346   44.4693 C   0  0  0  0  0  0  0  0  0  0  0  0
    0.7187   -3.8955   42.5465 C   0  0  0  0  0  0  0  0  0  0  0  0
    9.4576   -0.8949   46.0327 N   0  0  0  0  0  0  0  0  0  0  0  0
    0.8625   -6.3901   45.2462 C   0  0  0  0  0  0  0  0  0  0  0  0
    7.6467   -2.5139   46.4892 C   0  0  0  0  0  0  0  0  0  0  0  0
   10.4908   -1.5336   45.8242 C   0  0  0  0  0  0  0  0  0  0  0  0
    0.3057   -4.9299   43.2909 C   0  0  0  0  0  0  0  0  0  0  0  0
   11.5916   -1.4291   46.7436 C   0  0  0  0  0  0  0  0  0  0  0  0
   10.5566   -2.3672   44.8649 O   0  0  0  0  0  0  0  0  0  0  0  0
   12.8421   -1.9355   46.2823 C   0  0  0  0  0  0  0  0  0  0  0  0
   13.4833   -2.8582   46.9841 C   0  0  0  0  0  0  0  0  0  0  0  0
   11.4002   -1.1447   48.0540 C   0  0  0  0  0  0  0  0  0  0  0  0
   10.2867   -0.4569   48.4999 O   0  0  0  0  0  0  0  0  0  0  0  0
   12.3327   -1.4798   48.9564 C   0  0  1  0  0  0  0  0  0  0  0  0
   14.7901   -3.3162   46.6439 C   0  0  0  0  0  0  0  0  0  0  0  0
   12.1651   -1.3050   50.3239 O   0  0  0  0  0  0  0  0  0  0  0  0
   15.6765   -2.5740   46.0979 C   0  0  0  0  0  0  0  0  0  0  0  0
    2.4608    0.2106   42.8512 C   0  0  0  0  0  0  0  0  0  0  0  0
   15.5213   -1.2590   45.7606 C   0  0  0  0  0  0  0  0  0  0  0  0
   14.5349   -0.8899   44.8574 C   0  0  0  0  0  0  0  0  0  0  0  0
   12.9775   -3.3460   48.2127 C   0  0  0  0  0  0  0  0  0  0  0  0
   14.7129   -0.1943   43.8652 C   0  0  0  0  0  0  0  0  0  0  0  0
   13.1163   -1.3789   45.0490 O   0  0  0  0  0  0  0  0  0  0  0  0
   12.7443   -2.7596   49.2688 C   0  0  0  0  0  0  0  0  0  0  0  0
   15.8145    0.5028   43.5830 C   0  0  0  0  0  0  0  0  0  0  0  0
   16.8671   -0.7734   45.2329 C   0  0  0  0  0  0  0  0  0  0  0  0
   18.0530   -1.0233   46.0295 O   0  0  0  0  0  0  0  0  0  0  0  0
   16.9666    0.3080   44.2901 C   0  0  0  0  0  0  0  0  0  0  0  0
  1  2  2  0
  2  3  1  0
  2  4  1  0
  3  5  1  0
  4  6  2  0
  5  7  1  0
  4  8  1  0
  8  9  2  0
  8 10  1  0
  3 11  1  0
 10 11  2  0
  6 12  1  0
  7 13  2  0
 11 14  1  0
 13 15  1  0
  9 16  1  0
 17  7  1  6
 14 17  1  0
 14 18  2  0
 18 19  1  0
 15 20  2  0
 17 20  1  0
 12 21  1  0
 19 22  1  0
  9 23  1  0
 12 23  2  0
 21 24  1  0
 19 25  2  0
 20 25  1  0
 24 26  1  0
 24 27  2  0
 26 28  1  0
 28 29  2  0
 26 30  2  0
 30 31  1  0
 30 32  1  0
 29 33  1  0
 32 34  1  1
 33 35  2  0
  5 36  1  1
 35 37  1  0
 37 38  2  0
 29 39  1  0
 38 40  1  0
 28 41  1  0
 38 41  1  0
 32 42  1  0
 39 42  1  0
 40 43  2  0
 37 44  1  0
 44 45  1  0
 43 46  1  0
 44 46  2  0
M  END
$$$$
O14757_Pocket2Mol_idx-in-all-generaetd-506
     RDKit          3D

 25 29  0  0  0  0  0  0  0  0999 V2000
    5.3420    0.2589   42.8836 O   0  0  0  0  0  0  0  0  0  0  0  0
    5.1627   -0.7554   43.4753 C   0  0  0  0  0  0  0  0  0  0  0  0
    4.0509   -1.4657   43.4177 N   0  0  0  0  0  0  0  0  0  0  0  0
    5.9969   -1.2317   44.6840 C   0  0  0  0  0  0  0  0  0  0  0  0
    2.9618   -1.1021   42.5918 C   0  0  0  0  0  0  0  0  0  0  0  0
    7.3392   -0.8596   44.8412 C   0  0  0  0  0  0  0  0  0  0  0  0
    1.9754   -2.0820   42.2741 C   0  0  0  0  0  0  0  0  0  0  0  0
    5.5910   -2.4282   45.3439 C   0  0  0  0  0  0  0  0  0  0  0  0
    6.5874   -2.9636   46.1581 C   0  0  0  0  0  0  0  0  0  0  0  0
    4.2763   -3.0680   45.0493 N   0  0  0  0  0  0  0  0  0  0  0  0
    3.6188   -2.5886   44.2024 C   0  0  0  0  0  0  0  0  0  0  0  0
    8.1921   -1.4071   45.7505 C   0  0  0  0  0  0  0  0  0  0  0  0
    1.0154   -1.8839   41.2980 C   0  0  0  0  0  0  0  0  0  0  0  0
    2.5720   -3.3564   43.9063 C   0  0  0  0  0  0  0  0  0  0  0  0
    0.2502   -2.8976   41.0751 C   0  0  0  0  0  0  0  0  0  0  0  0
    6.1761   -4.1775   47.0209 C   0  0  0  0  0  0  0  0  0  0  0  0
    1.7266   -3.1047   43.0115 C   0  0  2  0  0  0  0  0  0  0  0  0
    2.3696   -4.5367   44.7536 N   0  0  0  0  0  0  0  0  0  0  0  0
    1.2264   -5.2346   44.4693 C   0  0  0  0  0  0  0  0  0  0  0  0
    2.9762    0.0045   41.9807 O   0  0  0  0  0  0  0  0  0  0  0  0
    0.3447   -4.9601   43.4867 C   0  0  0  0  0  0  0  0  0  0  0  0
    0.5985   -3.7444   42.5210 C   0  0  0  0  0  0  0  0  0  0  0  0
    7.7661   -2.4586   46.4476 C   0  0  0  0  0  0  0  0  0  0  0  0
    8.6227   -2.9835   47.4117 O   0  0  0  0  0  0  0  0  0  0  0  0
    9.6987   -2.3241   47.8304 C   0  0  0  0  0  0  0  0  0  0  0  0
  1  2  2  0
  2  3  1  0
  2  4  1  0
  3  5  1  0
  4  6  2  0
  5  7  1  0
  4  8  1  0
  8  9  2  0
  8 10  1  0
  3 11  1  0
 10 11  2  0
  6 12  1  0
  7 13  2  0
 11 14  1  0
 13 15  1  0
  9 16  1  0
 17  7  1  6
 14 17  1  0
 14 18  2  0
 18 19  1  0
  5 20  2  0
 19 21  2  0
 15 22  2  0
 17 22  1  0
 21 22  1  0
  9 23  1  0
 12 23  2  0
 23 24  1  0
 24 25  1  0
M  END
$$$$
O14757_Pocket2Mol_idx-in-all-generaetd-507
     RDKit          3D

 23 26  0  0  0  0  0  0  0  0999 V2000
    4.5156    0.0550   42.9895 N   0  0  0  0  0  0  0  0  0  0  0  0
    3.2960    0.1633   42.4470 C   0  0  0  0  0  0  0  0  0  0  0  0
    2.7621   -1.2305   42.4476 C   0  0  0  0  0  0  0  0  0  0  0  0
    5.2005   -0.8099   43.5858 C   0  0  0  0  0  0  0  0  0  0  0  0
    4.4157   -2.0357   43.6745 C   0  0  0  0  0  0  0  0  0  0  0  0
    3.3964   -2.2069   43.1195 C   0  0  0  0  0  0  0  0  0  0  0  0
    2.6107   -3.4636   43.1542 N   0  0  0  0  0  0  0  0  0  0  0  0
    1.4467   -1.2849   41.8335 C   0  0  0  0  0  0  0  0  0  0  0  0
    5.1851   -3.1348   44.4538 N   0  0  0  0  0  0  0  0  0  0  0  0
    6.4172   -0.8203   44.3346 N   0  0  0  0  0  0  0  0  0  0  0  0
    0.8321   -2.5451   41.8394 C   0  0  0  0  0  0  0  0  0  0  0  0
    1.4134   -3.5528   42.5919 C   0  0  0  0  0  0  0  0  0  0  0  0
    6.3428   -2.7074   45.0536 C   0  0  0  0  0  0  0  0  0  0  0  0
    6.8277   -1.4386   44.9522 C   0  0  0  0  0  0  0  0  0  0  0  0
    8.1428   -1.2695   45.6287 C   0  0  0  0  0  0  0  0  0  0  0  0
    6.7295   -3.7948   46.0360 C   0  0  0  0  0  0  0  0  0  0  0  0
    8.0115   -3.5481   46.6450 C   0  0  0  0  0  0  0  0  0  0  0  0
    8.8073   -0.1733   45.6146 O   0  0  0  0  0  0  0  0  0  0  0  0
    8.6405   -2.2670   46.5404 C   0  0  0  0  0  0  0  0  0  0  0  0
    9.8709   -1.9854   47.0853 O   0  0  0  0  0  0  0  0  0  0  0  0
   10.8299   -2.9834   47.0851 C   0  0  0  0  0  0  0  0  0  0  0  0
   11.6846   -2.7679   46.0008 C   0  0  0  0  0  0  0  0  0  0  0  0
   12.1909   -1.4877   45.7378 O   0  0  0  0  0  0  0  0  0  0  0  0
  1  2  2  0
  2  3  1  0
  1  4  1  0
  4  5  2  0
  3  6  2  0
  5  6  1  0
  6  7  1  0
  3  8  1  0
  5  9  1  0
  4 10  1  0
  8 11  2  0
  7 12  2  0
 11 12  1  0
  9 13  2  0
 10 14  2  0
 13 14  1  0
 14 15  1  0
 13 16  1  0
 16 17  2  0
 15 18  1  0
 15 19  2  0
 17 19  1  0
 19 20  1  0
 20 21  1  0
 21 22  1  0
 22 23  1  0
M  END
$$$$
O14757_Pocket2Mol_idx-in-all-generaetd-508
     RDKit          3D

 31 34  0  0  0  0  0  0  0  0999 V2000
    2.2688    0.3052   42.1942 N   0  0  0  0  0  0  0  0  0  0  0  0
    1.5681   -0.5985   42.0391 C   0  0  0  0  0  0  0  0  0  0  0  0
    0.2713   -0.6749   41.4483 C   0  0  0  0  0  0  0  0  0  0  0  0
    3.6365    0.2703   42.6880 C   0  0  0  0  0  0  0  0  0  0  0  0
    3.8321   -1.1348   42.9762 C   0  0  0  0  0  0  0  0  0  0  0  0
    2.8260   -2.0201   42.8203 C   0  0  0  0  0  0  0  0  0  0  0  0
    1.7444   -1.8415   42.3318 N   0  0  0  0  0  0  0  0  0  0  0  0
    3.2538   -3.3101   43.4270 N   0  0  0  0  0  0  0  0  0  0  0  0
    2.4413   -4.3420   43.6264 C   0  0  0  0  0  0  0  0  0  0  0  0
    4.5709   -3.0849   43.9583 C   0  0  0  0  0  0  0  0  0  0  0  0
    4.9539   -1.7198   43.6718 C   0  0  0  0  0  0  0  0  0  0  0  0
    1.7950   -4.3815   44.9098 C   0  0  0  0  0  0  0  0  0  0  0  0
    6.2203   -1.1385   44.0326 C   0  0  0  0  0  0  0  0  0  0  0  0
    2.4006   -4.9997   45.9013 O   0  0  0  0  0  0  0  0  0  0  0  0
    6.9025   -1.6501   45.0796 C   0  0  0  0  0  0  0  0  0  0  0  0
    5.4101   -3.6941   45.0229 C   0  0  0  0  0  0  0  0  0  0  0  0
    5.0219   -4.9002   45.5161 O   0  0  0  0  0  0  0  0  0  0  0  0
    6.6083   -3.0238   45.5442 C   0  0  0  0  0  0  0  0  0  0  0  0
    7.4531   -3.6409   46.5606 C   0  0  0  0  0  0  0  0  0  0  0  0
    8.0146   -0.9691   45.5874 C   0  0  0  0  0  0  0  0  0  0  0  0
    7.1412   -4.8399   47.0721 O   0  0  0  0  0  0  0  0  0  0  0  0
    8.5485   -2.8812   47.0742 C   0  0  0  0  0  0  0  0  0  0  0  0
    9.3616   -3.5571   48.1369 C   0  0  0  0  0  0  0  0  0  0  0  0
    8.8032   -1.5552   46.6208 C   0  0  0  0  0  0  0  0  0  0  0  0
   10.5473   -3.9914   47.7709 N   0  0  0  0  0  0  0  0  0  0  0  0
   10.9872   -4.0859   46.6198 C   0  0  0  0  0  0  0  0  0  0  0  0
   10.5118   -5.1617   45.7974 C   0  0  0  0  0  0  0  0  0  0  0  0
   12.1372   -3.4295   46.0022 C   0  0  0  0  0  0  0  0  0  0  0  0
   12.6732   -2.2327   46.7229 O   0  0  0  0  0  0  0  0  0  0  0  0
   12.5830   -3.7142   44.8204 O   0  0  0  0  0  0  0  0  0  0  0  0
    9.9833   -6.1992   46.2563 O   0  0  0  0  0  0  0  0  0  0  0  0
  1  2  2  0
  2  3  1  0
  1  4  1  0
  4  5  1  0
  5  6  2  0
  2  7  1  0
  6  7  1  0
  6  8  1  0
  8  9  1  0
  8 10  1  0
  5 11  1  0
 10 11  2  0
  9 12  1  0
 11 13  1  0
 12 14  1  0
 13 15  2  0
 10 16  1  0
 16 17  1  0
 15 18  1  0
 16 18  2  0
 18 19  1  0
 15 20  1  0
 19 21  1  0
 19 22  2  0
 22 23  1  0
 20 24  2  0
 22 24  1  0
 23 25  1  0
 25 26  1  0
 26 27  2  3
 26 28  1  0
 28 29  1  0
 28 30  2  0
 27 31  1  0
M  END
$$$$
O14757_Pocket2Mol_idx-in-all-generaetd-509
     RDKit          3D

 29 32  0  0  0  0  0  0  0  0999 V2000
    4.5142    0.3543   42.7132 N   0  0  0  0  0  0  0  0  0  0  0  0
    3.5107   -0.4860   42.6298 C   0  0  0  0  0  0  0  0  0  0  0  0
    3.5891   -1.7637   43.2512 N   0  0  0  0  0  0  0  0  0  0  0  0
    5.5470   -0.0112   43.3539 C   0  0  0  0  0  0  0  0  0  0  0  0
    2.1469   -0.1899   41.9512 C   0  0  0  0  0  0  0  0  0  0  0  0
    4.6725   -2.0734   43.8606 C   0  0  0  0  0  0  0  0  0  0  0  0
    5.7749   -1.1829   43.9325 C   0  0  0  0  0  0  0  0  0  0  0  0
    4.7150   -3.3068   44.6440 C   0  0  0  0  0  0  0  0  0  0  0  0
    6.9086   -1.5797   44.6919 C   0  0  0  0  0  0  0  0  0  0  0  0
    3.5691   -4.2517   44.6407 C   0  0  0  0  0  0  0  0  0  0  0  0
    2.3573   -4.0060   44.5430 C   0  0  0  0  0  0  0  0  0  0  0  0
    6.9170   -2.8018   45.4663 C   0  0  0  0  0  0  0  0  0  0  0  0
    5.8006   -3.6152   45.4297 C   0  0  0  0  0  0  0  0  0  0  0  0
    8.0903   -3.1108   46.2193 C   0  0  0  0  0  0  0  0  0  0  0  0
    4.0064   -5.4798   44.1304 O   0  0  0  0  0  0  0  0  0  0  0  0
    1.3499   -4.4927   43.7488 C   0  0  0  0  0  0  0  0  0  0  0  0
    8.9407   -2.1153   46.7855 N   0  0  0  0  0  0  0  0  0  0  0  0
    9.9131   -2.4307   47.6296 C   0  0  0  0  0  0  0  0  0  0  0  0
    9.9401   -2.1931   48.7722 O   0  0  0  0  0  0  0  0  0  0  0  0
    1.6925   -3.8787   45.7737 C   0  0  0  0  0  0  0  0  0  0  0  0
    0.0956   -4.4506   43.8726 C   0  0  0  0  0  0  0  0  0  0  0  0
   -0.4743   -4.1254   44.9651 C   0  0  0  0  0  0  0  0  0  0  0  0
    0.3478   -3.8227   46.0202 C   0  0  0  0  0  0  0  0  0  0  0  0
   10.9717   -3.3044   47.0291 C   0  0  2  0  0  0  0  0  0  0  0  0
   10.8168   -4.5181   46.8298 C   0  0  0  0  0  0  0  0  0  0  0  0
   12.2889   -2.9891   47.7404 N   0  0  0  0  0  0  0  0  0  0  0  0
   13.4598   -3.3732   46.9870 C   0  0  0  0  0  0  0  0  0  0  0  0
   11.9378   -5.3050   46.1562 C   0  0  0  0  0  0  0  0  0  0  0  0
   13.2322   -4.9499   46.9166 C   0  0  0  0  0  0  0  0  0  0  0  0
  1  2  2  0
  2  3  1  0
  1  4  1  0
  2  5  1  0
  3  6  2  0
  4  7  2  0
  6  7  1  0
  6  8  1  0
  7  9  1  0
  8 10  1  0
 10 11  1  0
  9 12  2  0
  8 13  2  0
 12 13  1  0
 12 14  1  0
 10 15  2  0
 11 16  2  0
 14 17  1  0
 17 18  1  0
 18 19  2  0
 11 20  1  0
 16 21  1  0
 21 22  2  0
 20 23  2  0
 22 23  1  0
 24 18  1  1
 24 25  1  0
 24 26  1  0
 26 27  1  0
 25 28  1  0
 27 29  1  0
 28 29  1  0
M  END
$$$$
O14757_Pocket2Mol_idx-in-all-generaetd-510
     RDKit          3D

 39 46  0  0  0  0  0  0  0  0999 V2000
    4.8037   -0.1366   42.7100 N   0  0  0  0  0  0  0  0  0  0  0  0
    3.6577   -0.7759   42.7186 C   0  0  0  0  0  0  0  0  0  0  0  0
    3.6660   -1.8665   43.4760 C   0  0  0  0  0  0  0  0  0  0  0  0
    2.7271   -2.8718   43.6599 C   0  0  0  0  0  0  0  0  0  0  0  0
    2.4846   -0.2994   42.1254 N   0  0  0  0  0  0  0  0  0  0  0  0
    5.0524   -1.7697   43.9367 C   0  0  0  0  0  0  0  0  0  0  0  0
    1.4917   -2.9000   43.0914 C   0  0  0  0  0  0  0  0  0  0  0  0
    3.1274   -3.9503   44.5163 C   0  0  0  0  0  0  0  0  0  0  0  0
    1.0744   -1.9066   42.1491 C   0  0  2  0  0  0  0  0  0  0  0  0
    5.6624   -0.7003   43.4895 C   0  0  0  0  0  0  0  0  0  0  0  0
    5.5753   -2.5784   45.0324 C   0  0  0  0  0  0  0  0  0  0  0  0
    0.4030   -3.6297   43.4883 N   0  0  0  0  0  0  0  0  0  0  0  0
    1.5052   -0.8077   41.7519 C   0  0  0  0  0  0  0  0  0  0  0  0
   -0.5645   -3.4039   42.5585 N   0  0  0  0  0  0  0  0  0  0  0  0
    2.5059   -5.1012   44.7935 C   0  0  0  0  0  0  0  0  0  0  0  0
    4.4581   -3.8218   45.2947 C   0  0  0  0  0  0  0  0  0  0  0  0
   -0.3089   -2.3979   41.8128 C   0  0  0  0  0  0  0  0  0  0  0  0
    6.6435   -2.6577   45.6991 C   0  0  0  0  0  0  0  0  0  0  0  0
    7.0869   -3.7008   46.4717 C   0  0  0  0  0  0  0  0  0  0  0  0
    7.5912   -1.5296   45.5455 C   0  0  0  0  0  0  0  0  0  0  0  0
    8.7765   -1.4352   46.2248 C   0  0  0  0  0  0  0  0  0  0  0  0
    6.3069   -4.7944   46.6836 O   0  0  0  0  0  0  0  0  0  0  0  0
    4.8984   -4.5252   46.1302 C   0  0  0  0  0  0  0  0  0  0  0  0
    4.2122   -5.9932   46.2216 C   0  0  0  0  0  0  0  0  0  0  0  0
    3.0046   -6.0549   45.6421 C   0  0  0  0  0  0  0  0  0  0  0  0
    8.2374   -3.8078   47.1146 C   0  0  0  0  0  0  0  0  0  0  0  0
    9.1909   -2.6332   47.0292 C   0  0  0  0  0  0  0  0  0  0  0  0
   10.4575   -2.6198   47.6824 O   0  0  0  0  0  0  0  0  0  0  0  0
   11.4873   -2.2059   46.9341 C   0  0  0  0  0  0  0  0  0  0  0  0
   12.2817   -1.4398   47.4308 O   0  0  0  0  0  0  0  0  0  0  0  0
   13.2946   -1.0299   46.6543 C   0  0  0  0  0  0  0  0  0  0  0  0
   13.0925   -1.0831   45.3218 C   0  0  0  0  0  0  0  0  0  0  0  0
   14.1643   -1.0297   44.5680 C   0  0  0  0  0  0  0  0  0  0  0  0
   14.4080   -0.3157   47.2384 C   0  0  0  0  0  0  0  0  0  0  0  0
   14.4294   -0.0497   48.5859 O   0  0  0  0  0  0  0  0  0  0  0  0
   14.0576   -1.2735   43.0959 O   0  0  0  0  0  0  0  0  0  0  0  0
   15.5071   -0.1304   46.4012 C   0  0  0  0  0  0  0  0  0  0  0  0
   16.6611    0.4656   46.8930 O   0  0  0  0  0  0  0  0  0  0  0  0
   15.3691   -0.4109   45.0045 C   0  0  0  0  0  0  0  0  0  0  0  0
  1  2  2  0
  2  3  1  0
  3  4  2  0
  2  5  1  0
  3  6  1  0
  4  7  1  0
  4  8  1  0
  7  9  1  0
  1 10  1  0
  6 10  1  0
  6 11  2  0
  7 12  2  0
  5 13  2  0
  9 13  1  1
 12 14  1  0
  8 15  2  0
  8 16  1  0
 11 16  1  0
  9 17  1  0
 14 17  2  0
 11 18  1  0
 18 19  2  0
 18 20  1  0
 20 21  2  0
 19 22  1  0
 16 23  2  0
 22 23  1  0
 23 24  1  0
 15 25  1  0
 24 25  2  0
 19 26  1  0
 21 27  1  0
 26 27  2  0
 27 28  1  0
 28 29  1  0
 29 30  1  0
 30 31  1  0
 31 32  2  0
 32 33  1  0
 31 34  1  0
 34 35  1  0
 33 36  1  0
 34 37  2  0
 37 38  1  0
 33 39  2  0
 37 39  1  0
M  END
$$$$
O14757_Pocket2Mol_idx-in-all-generaetd-511
     RDKit          3D

 48 55  0  0  0  0  0  0  0  0999 V2000
    5.3420    0.2589   42.8836 O   0  0  0  0  0  0  0  0  0  0  0  0
    5.1627   -0.7554   43.4753 C   0  0  0  0  0  0  0  0  0  0  0  0
    4.0509   -1.4657   43.4177 N   0  0  0  0  0  0  0  0  0  0  0  0
    5.9969   -1.2317   44.6840 C   0  0  0  0  0  0  0  0  0  0  0  0
    2.9618   -1.1021   42.5918 C   0  0  1  0  0  0  0  0  0  0  0  0
    7.3392   -0.8596   44.8412 C   0  0  0  0  0  0  0  0  0  0  0  0
    1.9754   -2.0820   42.2741 C   0  0  0  0  0  0  0  0  0  0  0  0
    5.5910   -2.4282   45.3439 C   0  0  0  0  0  0  0  0  0  0  0  0
    6.5874   -2.9636   46.1581 C   0  0  0  0  0  0  0  0  0  0  0  0
    4.2763   -3.0680   45.0493 N   0  0  0  0  0  0  0  0  0  0  0  0
    3.6188   -2.5886   44.2024 C   0  0  0  0  0  0  0  0  0  0  0  0
    8.1921   -1.4071   45.7505 C   0  0  0  0  0  0  0  0  0  0  0  0
    1.0154   -1.8839   41.2980 C   0  0  0  0  0  0  0  0  0  0  0  0
    2.5720   -3.3564   43.9063 C   0  0  0  0  0  0  0  0  0  0  0  0
    0.2502   -2.8976   41.0751 C   0  0  0  0  0  0  0  0  0  0  0  0
    6.1761   -4.1775   47.0209 C   0  0  0  0  0  0  0  0  0  0  0  0
    1.7266   -3.1047   43.0115 C   0  0  2  0  0  0  0  0  0  0  0  0
    2.3696   -4.5367   44.7536 N   0  0  0  0  0  0  0  0  0  0  0  0
    1.2264   -5.2346   44.4693 C   0  0  0  0  0  0  0  0  0  0  0  0
    0.7187   -3.8955   42.5465 C   0  0  0  0  0  0  0  0  0  0  0  0
    9.4576   -0.8949   46.0327 N   0  0  0  0  0  0  0  0  0  0  0  0
    0.8625   -6.3901   45.2462 C   0  0  0  0  0  0  0  0  0  0  0  0
    7.6467   -2.5139   46.4892 C   0  0  0  0  0  0  0  0  0  0  0  0
   10.4908   -1.5336   45.8242 C   0  0  0  0  0  0  0  0  0  0  0  0
    0.3057   -4.9299   43.2909 C   0  0  0  0  0  0  0  0  0  0  0  0
   11.5916   -1.4291   46.7436 C   0  0  0  0  0  0  0  0  0  0  0  0
   10.5566   -2.3672   44.8649 O   0  0  0  0  0  0  0  0  0  0  0  0
   12.8421   -1.9355   46.2823 C   0  0  0  0  0  0  0  0  0  0  0  0
   13.4833   -2.8582   46.9841 C   0  0  0  0  0  0  0  0  0  0  0  0
   11.4002   -1.1447   48.0540 C   0  0  0  0  0  0  0  0  0  0  0  0
   10.2867   -0.4569   48.4999 O   0  0  0  0  0  0  0  0  0  0  0  0
   12.3327   -1.4798   48.9564 C   0  0  1  0  0  0  0  0  0  0  0  0
   14.7901   -3.3162   46.6439 C   0  0  0  0  0  0  0  0  0  0  0  0
   12.1651   -1.3050   50.3239 O   0  0  0  0  0  0  0  0  0  0  0  0
   15.6765   -2.5740   46.0979 C   0  0  0  0  0  0  0  0  0  0  0  0
    2.4608    0.2106   42.8512 C   0  0  0  0  0  0  0  0  0  0  0  0
   15.5213   -1.2590   45.7606 C   0  0  2  0  0  0  0  0  0  0  0  0
   14.5349   -0.8899   44.8574 C   0  0  0  0  0  0  0  0  0  0  0  0
   12.9775   -3.3460   48.2127 C   0  0  0  0  0  0  0  0  0  0  0  0
   14.7129   -0.1943   43.8652 C   0  0  0  0  0  0  0  0  0  0  0  0
   13.1163   -1.3789   45.0490 O   0  0  0  0  0  0  0  0  0  0  0  0
   12.7443   -2.7596   49.2688 C   0  0  0  0  0  0  0  0  0  0  0  0
   15.8145    0.5028   43.5830 C   0  0  2  0  0  0  0  0  0  0  0  0
   15.9344    1.4629   42.4540 C   0  0  0  0  0  0  0  0  0  0  0  0
   14.7741    2.0231   42.1466 C   0  0  0  0  0  0  0  0  0  0  0  0
   16.8299   -0.7561   45.1452 C   0  0  0  0  0  0  0  0  0  0  0  0
   16.9791    0.2195   44.2628 C   0  0  0  0  0  0  0  0  0  0  0  0
   14.8514    3.0609   41.0357 C   0  0  0  0  0  0  0  0  0  0  0  0
  1  2  2  0
  2  3  1  0
  2  4  1  0
  3  5  1  0
  4  6  2  0
  5  7  1  0
  4  8  1  0
  8  9  2  0
  8 10  1  0
  3 11  1  0
 10 11  2  0
  6 12  1  0
  7 13  2  0
 11 14  1  0
 13 15  1  0
  9 16  1  0
 17  7  1  6
 14 17  1  0
 14 18  2  0
 18 19  1  0
 15 20  2  0
 17 20  1  0
 12 21  1  0
 19 22  1  0
  9 23  1  0
 12 23  2  0
 21 24  1  0
 19 25  2  0
 20 25  1  0
 24 26  1  0
 24 27  2  0
 26 28  1  0
 28 29  2  0
 26 30  2  0
 30 31  1  0
 30 32  1  0
 29 33  1  0
 32 34  1  1
 33 35  2  0
  5 36  1  1
 35 37  1  0
 37 38  1  0
 29 39  1  0
 38 40  2  0
 28 41  1  0
 38 41  1  0
 32 42  1  0
 39 42  1  0
 40 43  1  0
 43 44  1  0
 44 45  2  3
 37 46  1  6
 43 47  1  6
 46 47  1  0
 45 48  1  0
M  END
$$$$
O14757_Pocket2Mol_idx-in-all-generaetd-512
     RDKit          3D

 45 54  0  0  0  0  0  0  0  0999 V2000
    1.5482   -0.3111   41.9233 C   0  0  0  0  0  0  0  0  0  0  0  0
    2.7284    0.2018   42.1525 N   0  0  0  0  0  0  0  0  0  0  0  0
    3.7893   -0.3016   42.7005 C   0  0  0  0  0  0  0  0  0  0  0  0
    3.3781   -1.7350   43.0000 C   0  0  0  0  0  0  0  0  0  0  0  0
    2.0339   -1.9619   42.6217 C   0  0  0  0  0  0  0  0  0  0  0  0
    5.0090    0.1219   42.9340 N   0  0  0  0  0  0  0  0  0  0  0  0
    4.2895   -2.4979   43.6707 C   0  0  0  0  0  0  0  0  0  0  0  0
    5.8391   -0.6675   43.6343 C   0  0  0  0  0  0  0  0  0  0  0  0
    6.9849   -0.2377   44.0028 N   0  0  0  0  0  0  0  0  0  0  0  0
    4.0426   -3.8794   44.0832 C   0  0  0  0  0  0  0  0  0  0  0  0
    7.6796   -0.8734   44.9326 C   0  0  0  0  0  0  0  0  0  0  0  0
    1.1064   -2.9576   42.4211 C   0  0  0  0  0  0  0  0  0  0  0  0
    5.5298   -1.9496   44.0315 C   0  0  0  0  0  0  0  0  0  0  0  0
    3.8954   -4.1817   45.4718 C   0  0  0  0  0  0  0  0  0  0  0  0
    0.6765   -3.5480   43.4006 C   0  0  1  0  0  0  0  0  0  0  0  0
    0.5804   -3.2191   41.1635 C   0  0  0  0  0  0  0  0  0  0  0  0
    2.8083   -4.8227   45.9203 N   0  0  0  0  0  0  0  0  0  0  0  0
   -0.1574   -4.5754   42.9329 N   0  0  0  0  0  0  0  0  0  0  0  0
    6.5271   -2.5531   44.9677 C   0  0  0  0  0  0  0  0  0  0  0  0
   -0.2272   -4.3703   41.5137 C   0  0  0  0  0  0  0  0  0  0  0  0
    7.5095   -2.0029   45.3993 C   0  0  0  0  0  0  0  0  0  0  0  0
    8.2550   -2.6982   46.3988 C   0  0  2  0  0  0  0  0  0  0  0  0
    8.8975   -0.3029   45.3267 O   0  0  0  0  0  0  0  0  0  0  0  0
    4.8299   -4.4637   46.4212 C   0  0  0  0  0  0  0  0  0  0  0  0
    4.2707   -4.9248   47.6295 N   0  0  0  0  0  0  0  0  0  0  0  0
    3.2045   -5.2092   47.1521 C   0  0  0  0  0  0  0  0  0  0  0  0
    1.4482   -4.6186   45.4134 C   0  0  2  0  0  0  0  0  0  0  0  0
    1.2398   -3.5043   44.6236 O   0  0  0  0  0  0  0  0  0  0  0  0
    6.3317   -3.9297   46.0870 C   0  0  2  0  0  0  0  0  0  0  0  0
    9.5296   -2.5449   46.9776 C   0  0  0  0  0  0  0  0  0  0  0  0
    9.7921   -1.7530   47.9018 O   0  0  0  0  0  0  0  0  0  0  0  0
    7.4454   -3.8344   46.8035 C   0  0  0  0  0  0  0  0  0  0  0  0
   10.5010   -3.0847   46.3190 O   0  0  0  0  0  0  0  0  0  0  0  0
    0.5569   -4.7693   46.5649 C   0  0  0  0  0  0  0  0  0  0  0  0
   11.7452   -2.8462   46.6234 C   0  0  0  0  0  0  0  0  0  0  0  0
   12.4344   -1.8951   45.7393 C   0  0  0  0  0  0  0  0  0  0  0  0
   12.4612   -3.5429   47.5581 C   0  0  0  0  0  0  0  0  0  0  0  0
   11.7737   -4.5216   48.4115 C   0  0  0  0  0  0  0  0  0  0  0  0
   13.7761   -1.6251   45.9829 C   0  0  0  0  0  0  0  0  0  0  0  0
   13.7909   -3.1787   47.7950 C   0  0  0  0  0  0  0  0  0  0  0  0
   14.4374   -0.6496   45.1506 C   0  0  0  0  0  0  0  0  0  0  0  0
   14.5863   -3.8413   48.8675 C   0  0  0  0  0  0  0  0  0  0  0  0
   14.5257   -5.1567   48.7884 C   0  0  0  0  0  0  0  0  0  0  0  0
   14.4057   -2.2102   46.9939 C   0  0  0  0  0  0  0  0  0  0  0  0
   12.9073   -5.2544   49.3082 C   0  0  0  0  0  0  0  0  0  0  0  0
  1  2  1  0
  2  3  2  0
  3  4  1  0
  1  5  2  0
  4  5  1  0
  3  6  1  0
  4  7  2  0
  6  8  1  0
  8  9  1  0
  7 10  1  0
  9 11  1  0
  5 12  1  0
  7 13  1  0
  8 13  2  0
 10 14  1  0
 12 15  1  0
 12 16  2  0
 14 17  1  0
 15 18  1  0
 13 19  1  0
 16 20  1  0
 18 20  2  0
 11 21  1  0
 19 21  2  0
 21 22  1  0
 11 23  2  0
 14 24  2  0
 24 25  1  0
 17 26  1  0
 25 26  2  0
 17 27  1  0
 15 28  1  6
 27 28  1  0
 19 29  1  0
 24 29  1  0
 22 30  1  6
 30 31  2  0
 22 32  1  0
 29 32  1  1
 30 33  1  0
 27 34  1  1
 33 35  1  0
 35 36  2  0
 35 37  1  0
 37 38  1  0
 36 39  1  0
 37 40  2  0
 39 41  1  0
 40 42  1  0
 42 43  1  0
 39 44  2  0
 40 44  1  0
 38 45  1  0
 43 45  1  0
M  END
$$$$
O14757_Pocket2Mol_idx-in-all-generaetd-513
     RDKit          3D

 38 44  0  0  0  0  0  0  0  0999 V2000
    4.5156    0.0550   42.9895 N   0  0  0  0  0  0  0  0  0  0  0  0
    5.0618   -0.8645   43.5295 C   0  0  0  0  0  0  0  0  0  0  0  0
    4.4350   -2.0604   43.7783 C   0  0  0  0  0  0  0  0  0  0  0  0
    4.9987   -3.0994   44.5839 C   0  0  0  0  0  0  0  0  0  0  0  0
    3.2714   -1.8664   43.0632 C   0  0  0  0  0  0  0  0  0  0  0  0
    6.4064   -0.5942   44.3204 N   0  0  0  0  0  0  0  0  0  0  0  0
    4.3422   -4.3256   44.7203 C   0  0  0  0  0  0  0  0  0  0  0  0
    2.1845   -2.6668   42.8270 N   0  0  0  0  0  0  0  0  0  0  0  0
    3.3305   -0.5395   42.5465 N   0  0  0  0  0  0  0  0  0  0  0  0
    1.9502   -3.8972   43.4076 C   0  0  0  0  0  0  0  0  0  0  0  0
    2.7156   -4.1184   44.6954 N   0  0  0  0  0  0  0  0  0  0  0  0
    6.8581   -1.5862   45.1101 C   0  0  0  0  0  0  0  0  0  0  0  0
    6.1801   -2.8430   45.2383 C   0  0  0  0  0  0  0  0  0  0  0  0
    2.1454   -5.1901   45.5771 C   0  0  0  0  0  0  0  0  0  0  0  0
    8.0137   -1.3946   45.8526 C   0  0  0  0  0  0  0  0  0  0  0  0
    0.9733   -4.5725   43.2066 O   0  0  0  0  0  0  0  0  0  0  0  0
    2.2437    0.0035   41.8733 C   0  0  0  0  0  0  0  0  0  0  0  0
    1.3210   -2.2077   41.7009 C   0  0  0  0  0  0  0  0  0  0  0  0
    8.6047   -2.2876   46.6923 C   0  0  0  0  0  0  0  0  0  0  0  0
    7.9141   -3.5157   46.8869 C   0  0  0  0  0  0  0  0  0  0  0  0
    1.0501   -0.8658   41.6612 C   0  0  0  0  0  0  0  0  0  0  0  0
    6.7278   -3.7718   46.2525 C   0  0  0  0  0  0  0  0  0  0  0  0
    9.8280   -2.0492   47.3361 C   0  0  0  0  0  0  0  0  0  0  0  0
    9.8262   -1.5735   48.5432 C   0  0  0  0  0  0  0  0  0  0  0  0
   11.0745   -2.0905   46.6735 C   0  0  0  0  0  0  0  0  0  0  0  0
    8.5798   -1.4294   49.3788 F   0  0  0  0  0  0  0  0  0  0  0  0
   10.9754   -1.2454   49.3173 C   0  0  0  0  0  0  0  0  0  0  0  0
   12.2431   -1.7844   47.3194 C   0  0  0  0  0  0  0  0  0  0  0  0
   12.3027   -1.4029   48.7252 C   0  0  0  0  0  0  0  0  0  0  0  0
   13.5212   -1.8824   46.5853 C   0  0  0  0  0  0  0  0  0  0  0  0
    1.0433   -4.5208   46.3540 C   0  0  0  0  0  0  0  0  0  0  0  0
   13.6066   -1.3002   45.3939 C   0  0  0  0  0  0  0  0  0  0  0  0
   14.5955   -2.4639   47.1696 C   0  0  0  0  0  0  0  0  0  0  0  0
   15.8168   -2.5830   46.5159 C   0  0  0  0  0  0  0  0  0  0  0  0
   14.8225   -1.3422   44.6758 C   0  0  0  0  0  0  0  0  0  0  0  0
   14.9289   -0.7952   43.3581 C   0  0  0  0  0  0  0  0  0  0  0  0
   14.4910    0.3394   43.1945 C   0  0  0  0  0  0  0  0  0  0  0  0
   15.9037   -2.0364   45.2544 C   0  0  0  0  0  0  0  0  0  0  0  0
  1  2  2  0
  2  3  1  0
  3  4  1  0
  3  5  2  0
  2  6  1  0
  4  7  1  0
  5  8  1  0
  1  9  1  0
  5  9  1  0
  8 10  1  0
  7 11  1  0
 10 11  1  0
  6 12  2  0
  4 13  2  0
 12 13  1  0
 11 14  1  0
 12 15  1  0
 10 16  2  0
  9 17  1  0
  8 18  1  0
 15 19  2  0
 19 20  1  0
 17 21  1  0
 18 21  1  0
 13 22  1  0
 20 22  2  0
 19 23  1  0
 23 24  2  0
 23 25  1  0
 24 26  1  0
 24 27  1  0
 25 28  2  0
 27 29  2  0
 28 29  1  0
 28 30  1  0
 14 31  1  0
 30 32  2  0
 30 33  1  0
 33 34  2  0
 32 35  1  0
 35 36  1  0
 36 37  1  0
 34 38  1  0
 35 38  2  0
M  END
$$$$
O14757_Pocket2Mol_idx-in-all-generaetd-514
     RDKit          3D

 29 34  0  0  0  0  0  0  0  0999 V2000
    4.8173    0.2791   42.6993 N   0  0  0  0  0  0  0  0  0  0  0  0
    5.3297   -0.7477   43.3688 C   0  0  0  0  0  0  0  0  0  0  0  0
    3.4732   -0.2235   42.4530 C   0  0  0  0  0  0  0  0  0  0  0  0
    4.4984   -1.7876   43.6214 C   0  0  0  0  0  0  0  0  0  0  0  0
    3.3438   -1.5190   42.9379 C   0  0  0  0  0  0  0  0  0  0  0  0
    2.1381   -2.3401   42.8254 C   0  0  0  0  0  0  0  0  0  0  0  0
    2.3894    0.3572   41.9843 N   0  0  0  0  0  0  0  0  0  0  0  0
    4.9180   -3.0430   44.3829 C   0  0  0  0  0  0  0  0  0  0  0  0
    5.9444   -2.9314   45.3934 C   0  0  0  0  0  0  0  0  0  0  0  0
    4.2808   -4.1329   44.3252 C   0  0  0  0  0  0  0  0  0  0  0  0
    3.1588   -4.4221   43.4852 O   0  0  0  0  0  0  0  0  0  0  0  0
    4.5704   -5.2518   45.1995 C   0  0  0  0  0  0  0  0  0  0  0  0
    1.9853   -3.6792   43.3495 C   0  0  0  0  0  0  0  0  0  0  0  0
    0.9181   -4.3294   43.4638 C   0  0  0  0  0  0  0  0  0  0  0  0
    6.1667   -3.9106   46.0813 C   0  0  0  0  0  0  0  0  0  0  0  0
    0.9627   -1.7613   42.3940 C   0  0  0  0  0  0  0  0  0  0  0  0
    3.8296   -6.4325   45.0544 F   0  0  0  0  0  0  0  0  0  0  0  0
   -0.2646   -3.7780   42.9121 C   0  0  0  0  0  0  0  0  0  0  0  0
    5.4599   -5.1112   46.0385 C   0  0  0  0  0  0  0  0  0  0  0  0
    7.3541   -3.7011   47.1652 C   0  0  0  0  0  0  0  0  0  0  0  0
    8.4146   -3.0196   46.7433 C   0  0  0  0  0  0  0  0  0  0  0  0
   -0.1899   -2.5032   42.3318 C   0  0  0  0  0  0  0  0  0  0  0  0
    1.1541   -0.3970   41.8264 C   0  0  0  0  0  0  0  0  0  0  0  0
    9.3823   -3.3931   46.2612 C   0  0  0  0  0  0  0  0  0  0  0  0
    8.4060   -1.5015   46.7824 C   0  0  0  0  0  0  0  0  0  0  0  0
    9.6782   -4.8066   46.1177 C   0  0  0  0  0  0  0  0  0  0  0  0
    9.5921   -1.1143   46.2163 N   0  0  0  0  0  0  0  0  0  0  0  0
   10.2316   -2.3016   45.9490 N   0  0  0  0  0  0  0  0  0  0  0  0
   11.5589   -2.2777   45.4363 C   0  0  0  0  0  0  0  0  0  0  0  0
  1  2  2  0
  1  3  1  0
  2  4  1  0
  3  5  1  0
  4  5  2  0
  5  6  1  0
  3  7  2  0
  4  8  1  0
  8  9  1  0
  8 10  2  0
 10 11  1  0
 10 12  1  0
  6 13  1  0
 11 13  1  0
 13 14  2  0
  9 15  2  0
  6 16  2  0
 12 17  1  0
 14 18  1  0
 12 19  2  0
 15 19  1  0
 15 20  1  0
 20 21  1  0
 16 22  1  0
 18 22  2  0
  7 23  1  0
 16 23  1  0
 21 24  2  0
 21 25  1  0
 24 26  1  0
 25 27  2  0
 24 28  1  0
 27 28  1  0
 28 29  1  0
M  END
$$$$
O14757_Pocket2Mol_idx-in-all-generaetd-515
     RDKit          3D

 41 46  0  0  0  0  0  0  0  0999 V2000
    1.5482   -0.3111   41.9233 C   0  0  0  0  0  0  0  0  0  0  0  0
    2.7284    0.2018   42.1525 N   0  0  0  0  0  0  0  0  0  0  0  0
    3.7893   -0.3016   42.7005 C   0  0  0  0  0  0  0  0  0  0  0  0
    3.3781   -1.7350   43.0000 C   0  0  0  0  0  0  0  0  0  0  0  0
    2.0339   -1.9619   42.6217 C   0  0  0  0  0  0  0  0  0  0  0  0
    4.1166   -2.4997   43.8458 C   0  0  0  0  0  0  0  0  0  0  0  0
    1.1731   -3.0051   42.5773 C   0  0  0  0  0  0  0  0  0  0  0  0
    0.4701   -3.2344   41.4901 C   0  0  0  0  0  0  0  0  0  0  0  0
    5.3799   -1.7814   44.2691 C   0  0  0  0  0  0  0  0  0  0  0  0
    5.0159   -0.0180   43.1201 N   0  0  0  0  0  0  0  0  0  0  0  0
    5.7693   -0.6937   43.8418 C   0  0  0  0  0  0  0  0  0  0  0  0
    0.8078   -3.6166   43.6782 C   0  0  0  0  0  0  0  0  0  0  0  0
    0.0663   -4.7011   43.7415 N   0  0  0  0  0  0  0  0  0  0  0  0
    6.2223   -2.6843   45.1565 C   0  0  0  0  0  0  0  0  0  0  0  0
    6.9599   -0.2351   44.2608 N   0  0  0  0  0  0  0  0  0  0  0  0
    5.9065   -3.9037   45.7499 N   0  0  0  0  0  0  0  0  0  0  0  0
   -0.5459   -5.1185   42.5870 C   0  0  0  0  0  0  0  0  0  0  0  0
    5.7480   -4.0340   46.9810 C   0  0  0  0  0  0  0  0  0  0  0  0
    7.4448   -1.8511   45.4198 C   0  0  0  0  0  0  0  0  0  0  0  0
    7.7572   -0.7827   45.0128 C   0  0  0  0  0  0  0  0  0  0  0  0
    8.4076   -2.7217   46.4541 C   0  0  0  0  0  0  0  0  0  0  0  0
    9.3167   -2.0988   47.1049 N   0  0  0  0  0  0  0  0  0  0  0  0
   -0.4719   -4.3893   41.5406 C   0  0  0  0  0  0  0  0  0  0  0  0
    8.3667   -4.0284   46.5743 N   0  0  0  0  0  0  0  0  0  0  0  0
   10.1532   -2.5726   47.9567 C   0  0  0  0  0  0  0  0  0  0  0  0
   11.0726   -1.7892   48.6998 C   0  0  0  0  0  0  0  0  0  0  0  0
   10.4886   -0.9372   49.4584 C   0  0  0  0  0  0  0  0  0  0  0  0
   10.2139   -3.8947   48.0407 C   0  0  0  0  0  0  0  0  0  0  0  0
    6.6188   -4.9855   47.3969 N   0  0  0  0  0  0  0  0  0  0  0  0
    5.1401   -3.1961   47.7242 O   0  0  0  0  0  0  0  0  0  0  0  0
    9.2230   -4.6492   47.2923 C   0  0  0  0  0  0  0  0  0  0  0  0
   12.4306   -1.6942   48.6002 C   0  0  0  0  0  0  0  0  0  0  0  0
   13.1277   -2.5738   47.4657 C   0  0  0  0  0  0  0  0  0  0  0  0
   13.0390   -2.0905   46.2012 C   0  0  0  0  0  0  0  0  0  0  0  0
   13.1676   -1.0416   49.3094 C   0  0  0  0  0  0  0  0  0  0  0  0
   11.9759   -1.8738   45.6069 O   0  0  0  0  0  0  0  0  0  0  0  0
   12.5381   -0.3083   50.1763 C   0  0  0  0  0  0  0  0  0  0  0  0
   13.2710    0.5538   51.1968 F   0  0  0  0  0  0  0  0  0  0  0  0
    8.9870   -0.9397   49.6744 F   0  0  0  0  0  0  0  0  0  0  0  0
   11.1532   -0.1990   50.3834 C   0  0  0  0  0  0  0  0  0  0  0  0
   14.0457   -1.5179   45.5909 O   0  0  0  0  0  0  0  0  0  0  0  0
  1  2  1  0
  2  3  2  0
  3  4  1  0
  1  5  2  0
  4  5  1  0
  4  6  2  0
  5  7  1  0
  7  8  2  0
  6  9  1  0
  3 10  1  0
  9 11  2  0
 10 11  1  0
  7 12  1  0
 12 13  2  0
  9 14  1  0
 11 15  1  0
 14 16  1  0
 13 17  1  0
 16 18  1  0
 14 19  2  0
 15 20  2  0
 19 20  1  0
 19 21  1  0
 21 22  2  0
  8 23  1  0
 17 23  2  0
 21 24  1  0
 22 25  1  0
 25 26  1  0
 26 27  2  0
 25 28  2  0
 18 29  1  0
 18 30  2  0
 24 31  2  0
 28 31  1  0
 26 32  1  0
 32 33  1  0
 33 34  1  0
 32 35  2  0
 34 36  2  0
 35 37  1  0
 37 38  1  0
 27 39  1  0
 27 40  1  0
 37 40  2  0
 34 41  1  0
M  END
$$$$
O14757_Pocket2Mol_idx-in-all-generaetd-516
     RDKit          3D

 23 26  0  0  0  0  0  0  0  0999 V2000
    1.5482   -0.3111   41.9233 C   0  0  0  0  0  0  0  0  0  0  0  0
    2.1579   -1.4414   42.1844 C   0  0  0  0  0  0  0  0  0  0  0  0
    1.7235   -2.7265   42.1948 N   0  0  0  0  0  0  0  0  0  0  0  0
    2.4810    0.7142   42.0806 N   0  0  0  0  0  0  0  0  0  0  0  0
    3.6321    0.3151   42.5470 N   0  0  0  0  0  0  0  0  0  0  0  0
    3.5004   -1.0568   42.6736 N   0  0  0  0  0  0  0  0  0  0  0  0
    4.4647   -1.8504   43.2944 C   0  0  0  0  0  0  0  0  0  0  0  0
    4.1483   -3.0323   43.9097 C   0  0  0  0  0  0  0  0  0  0  0  0
    0.3624   -2.9079   41.7946 C   0  0  0  0  0  0  0  0  0  0  0  0
    5.0853   -3.7063   44.6606 C   0  0  0  0  0  0  0  0  0  0  0  0
   -0.1608   -4.1416   41.6561 N   0  0  0  0  0  0  0  0  0  0  0  0
    6.2745   -3.0375   45.0306 C   0  0  0  0  0  0  0  0  0  0  0  0
    5.6184   -1.1248   43.7034 C   0  0  0  0  0  0  0  0  0  0  0  0
   -0.4334   -1.6636   41.3911 N   0  0  0  0  0  0  0  0  0  0  0  0
    0.1992   -0.5057   41.6108 C   0  0  0  0  0  0  0  0  0  0  0  0
    7.2812   -3.6349   45.9093 N   0  0  0  0  0  0  0  0  0  0  0  0
    6.5411   -1.7779   44.5314 C   0  0  0  0  0  0  0  0  0  0  0  0
    8.3752   -3.1512   46.2691 C   0  0  0  0  0  0  0  0  0  0  0  0
    8.5612   -1.8045   46.5703 C   0  0  0  0  0  0  0  0  0  0  0  0
    9.3475   -4.0088   46.6589 C   0  0  0  0  0  0  0  0  0  0  0  0
    9.7304   -1.3015   47.1013 C   0  0  0  0  0  0  0  0  0  0  0  0
   10.7734   -2.4934   47.2485 C   0  0  0  0  0  0  0  0  0  0  0  0
   10.5233   -3.6911   47.0924 C   0  0  0  0  0  0  0  0  0  0  0  0
  1  2  2  0
  2  3  1  0
  1  4  1  0
  4  5  2  0
  2  6  1  0
  5  6  1  0
  6  7  1  0
  7  8  2  0
  3  9  2  0
  8 10  1  0
  9 11  1  0
 10 12  2  0
  7 13  1  0
  9 14  1  0
  1 15  1  0
 14 15  1  0
 12 16  1  0
 12 17  1  0
 13 17  2  0
 16 18  1  0
 18 19  2  0
 18 20  1  0
 19 21  1  0
 21 22  2  0
 20 23  2  0
 22 23  1  0
M  END
$$$$
O14757_Pocket2Mol_idx-in-all-generaetd-517
     RDKit          3D

 40 46  0  0  0  0  0  0  0  0999 V2000
    5.3420    0.2589   42.8836 O   0  0  0  0  0  0  0  0  0  0  0  0
    5.1627   -0.7554   43.4753 C   0  0  0  0  0  0  0  0  0  0  0  0
    4.0509   -1.4657   43.4177 N   0  0  0  0  0  0  0  0  0  0  0  0
    5.9969   -1.2317   44.6840 C   0  0  0  0  0  0  0  0  0  0  0  0
    2.9618   -1.1021   42.5918 C   0  0  1  0  0  0  0  0  0  0  0  0
    7.3392   -0.8596   44.8412 C   0  0  0  0  0  0  0  0  0  0  0  0
    1.9754   -2.0820   42.2741 C   0  0  0  0  0  0  0  0  0  0  0  0
    5.5910   -2.4282   45.3439 C   0  0  0  0  0  0  0  0  0  0  0  0
    6.5874   -2.9636   46.1581 C   0  0  0  0  0  0  0  0  0  0  0  0
    4.2763   -3.0680   45.0493 N   0  0  0  0  0  0  0  0  0  0  0  0
    3.6188   -2.5886   44.2024 C   0  0  0  0  0  0  0  0  0  0  0  0
    8.1921   -1.4071   45.7505 C   0  0  0  0  0  0  0  0  0  0  0  0
    1.0154   -1.8839   41.2980 C   0  0  0  0  0  0  0  0  0  0  0  0
    2.5720   -3.3564   43.9063 C   0  0  0  0  0  0  0  0  0  0  0  0
    0.2502   -2.8976   41.0751 C   0  0  0  0  0  0  0  0  0  0  0  0
    6.1761   -4.1775   47.0209 C   0  0  0  0  0  0  0  0  0  0  0  0
    1.7266   -3.1047   43.0115 C   0  0  2  0  0  0  0  0  0  0  0  0
    2.3696   -4.5367   44.7536 N   0  0  0  0  0  0  0  0  0  0  0  0
    1.2264   -5.2346   44.4693 C   0  0  0  0  0  0  0  0  0  0  0  0
    0.7187   -3.8955   42.5465 C   0  0  0  0  0  0  0  0  0  0  0  0
    9.4576   -0.8949   46.0327 N   0  0  0  0  0  0  0  0  0  0  0  0
    0.8625   -6.3901   45.2462 C   0  0  0  0  0  0  0  0  0  0  0  0
    7.6467   -2.5139   46.4892 C   0  0  0  0  0  0  0  0  0  0  0  0
   10.4908   -1.5336   45.8242 C   0  0  0  0  0  0  0  0  0  0  0  0
    0.3057   -4.9299   43.2909 C   0  0  0  0  0  0  0  0  0  0  0  0
   11.5916   -1.4291   46.7436 C   0  0  0  0  0  0  0  0  0  0  0  0
   10.5566   -2.3672   44.8649 O   0  0  0  0  0  0  0  0  0  0  0  0
   12.8421   -1.9355   46.2823 C   0  0  0  0  0  0  0  0  0  0  0  0
   13.4833   -2.8582   46.9841 C   0  0  0  0  0  0  0  0  0  0  0  0
   11.4002   -1.1447   48.0540 C   0  0  0  0  0  0  0  0  0  0  0  0
   10.2867   -0.4569   48.4999 O   0  0  0  0  0  0  0  0  0  0  0  0
   12.3327   -1.4798   48.9564 C   0  0  0  0  0  0  0  0  0  0  0  0
   14.7901   -3.3162   46.6439 C   0  0  0  0  0  0  0  0  0  0  0  0
    2.4608    0.2113   42.8511 C   0  0  0  0  0  0  0  0  0  0  0  0
   13.6779   -2.2436   48.5402 C   0  0  0  0  0  0  0  0  0  0  0  0
   15.7804   -2.8363   45.9884 C   0  0  0  0  0  0  0  0  0  0  0  0
   16.8968   -3.6083   45.5097 C   0  0  0  0  0  0  0  0  0  0  0  0
   16.9662   -4.9390   45.8576 C   0  0  0  0  0  0  0  0  0  0  0  0
   15.9696   -5.5438   46.5603 C   0  0  0  0  0  0  0  0  0  0  0  0
   14.8413   -4.8274   46.9818 C   0  0  0  0  0  0  0  0  0  0  0  0
  1  2  2  0
  2  3  1  0
  2  4  1  0
  3  5  1  0
  4  6  2  0
  5  7  1  0
  4  8  1  0
  8  9  2  0
  8 10  1  0
  3 11  1  0
 10 11  2  0
  6 12  1  0
  7 13  2  0
 11 14  1  0
 13 15  1  0
  9 16  1  0
 17  7  1  6
 14 17  1  0
 14 18  2  0
 18 19  1  0
 15 20  2  0
 17 20  1  0
 12 21  1  0
 19 22  1  0
  9 23  1  0
 12 23  2  0
 21 24  1  0
 19 25  2  0
 20 25  1  0
 24 26  1  0
 24 27  2  0
 26 28  2  0
 28 29  1  0
 26 30  1  0
 30 31  1  0
 30 32  2  0
 29 33  1  0
  5 34  1  1
 29 35  2  0
 32 35  1  0
 33 36  2  0
 36 37  1  0
 37 38  2  0
 38 39  1  0
 33 40  1  0
 39 40  2  0
M  END
$$$$
O14757_Pocket2Mol_idx-in-all-generaetd-518
     RDKit          3D

 40 46  0  0  0  0  0  0  0  0999 V2000
    1.5482   -0.3111   41.9233 C   0  0  0  0  0  0  0  0  0  0  0  0
    2.7284    0.2018   42.1525 N   0  0  0  0  0  0  0  0  0  0  0  0
    3.7893   -0.3016   42.7005 C   0  0  0  0  0  0  0  0  0  0  0  0
    3.3781   -1.7350   43.0000 C   0  0  0  0  0  0  0  0  0  0  0  0
    2.0339   -1.9619   42.6217 C   0  0  0  0  0  0  0  0  0  0  0  0
    4.1166   -2.4997   43.8458 C   0  0  0  0  0  0  0  0  0  0  0  0
    1.1731   -3.0051   42.5773 C   0  0  0  0  0  0  0  0  0  0  0  0
    0.4701   -3.2344   41.4901 C   0  0  0  0  0  0  0  0  0  0  0  0
    5.3799   -1.7814   44.2691 C   0  0  0  0  0  0  0  0  0  0  0  0
    5.0159   -0.0180   43.1201 N   0  0  0  0  0  0  0  0  0  0  0  0
    5.7693   -0.6937   43.8418 C   0  0  0  0  0  0  0  0  0  0  0  0
    0.8078   -3.6166   43.6782 C   0  0  0  0  0  0  0  0  0  0  0  0
    0.0663   -4.7011   43.7415 N   0  0  0  0  0  0  0  0  0  0  0  0
    6.2223   -2.6843   45.1565 C   0  0  0  0  0  0  0  0  0  0  0  0
    6.9599   -0.2351   44.2608 N   0  0  0  0  0  0  0  0  0  0  0  0
    5.9065   -3.9037   45.7499 N   0  0  0  0  0  0  0  0  0  0  0  0
   -0.5459   -5.1185   42.5870 C   0  0  0  0  0  0  0  0  0  0  0  0
    5.7480   -4.0340   46.9810 C   0  0  0  0  0  0  0  0  0  0  0  0
    7.4448   -1.8511   45.4198 C   0  0  0  0  0  0  0  0  0  0  0  0
    7.7572   -0.7827   45.0128 C   0  0  0  0  0  0  0  0  0  0  0  0
    8.4076   -2.7217   46.4541 C   0  0  0  0  0  0  0  0  0  0  0  0
    9.3167   -2.0988   47.1049 N   0  0  0  0  0  0  0  0  0  0  0  0
   -0.4719   -4.3893   41.5406 C   0  0  0  0  0  0  0  0  0  0  0  0
    8.3667   -4.0284   46.5743 N   0  0  0  0  0  0  0  0  0  0  0  0
    9.5309   -4.3147   47.3094 C   0  0  0  0  0  0  0  0  0  0  0  0
    5.3113   -3.3789   47.8005 O   0  0  0  0  0  0  0  0  0  0  0  0
    9.9022   -5.6301   47.7684 C   0  0  0  0  0  0  0  0  0  0  0  0
    5.4470   -5.5868   47.2096 C   0  0  0  0  0  0  0  0  0  0  0  0
   11.2254   -5.8679   48.0402 C   0  0  0  0  0  0  0  0  0  0  0  0
    8.9736   -6.6532   47.8548 C   0  0  0  0  0  0  0  0  0  0  0  0
   10.0616   -3.0670   47.6360 C   0  0  0  0  0  0  0  0  0  0  0  0
    9.2755   -7.8884   48.2076 C   0  0  0  0  0  0  0  0  0  0  0  0
   12.3151   -4.8393   47.9221 O   0  0  0  0  0  0  0  0  0  0  0  0
    8.2519   -8.9331   48.3446 C   0  0  0  0  0  0  0  0  0  0  0  0
   10.5780   -8.0935   48.4113 C   0  0  0  0  0  0  0  0  0  0  0  0
   11.7297   -7.1780   48.3936 C   0  0  0  0  0  0  0  0  0  0  0  0
    7.1530   -8.7018   47.6605 O   0  0  0  0  0  0  0  0  0  0  0  0
    6.1187   -8.1945   48.4779 C   0  0  0  0  0  0  0  0  0  0  0  0
    5.9447   -6.1248   48.5320 C   0  0  0  0  0  0  0  0  0  0  0  0
    5.3646   -7.2751   48.9122 C   0  0  0  0  0  0  0  0  0  0  0  0
  1  2  1  0
  2  3  2  0
  3  4  1  0
  1  5  2  0
  4  5  1  0
  4  6  2  0
  5  7  1  0
  7  8  2  0
  6  9  1  0
  3 10  1  0
  9 11  2  0
 10 11  1  0
  7 12  1  0
 12 13  2  0
  9 14  1  0
 11 15  1  0
 14 16  1  0
 13 17  1  0
 16 18  1  0
 14 19  2  0
 15 20  2  0
 19 20  1  0
 19 21  1  0
 21 22  2  0
  8 23  1  0
 17 23  2  0
 21 24  1  0
 24 25  1  0
 18 26  2  0
 25 27  1  0
 18 28  1  0
 27 29  2  0
 27 30  1  0
 22 31  1  0
 25 31  2  0
 30 32  2  0
 29 33  1  0
 32 34  1  0
 32 35  1  0
 29 36  1  0
 35 36  2  0
 34 37  1  0
 37 38  1  0
 28 39  1  0
 38 40  1  0
 39 40  1  0
M  END
$$$$
O14757_Pocket2Mol_idx-in-all-generaetd-519
     RDKit          3D

 35 42  0  0  0  0  0  0  0  0999 V2000
    1.5482   -0.3111   41.9233 C   0  0  0  0  0  0  0  0  0  0  0  0
    2.7284    0.2018   42.1525 N   0  0  0  0  0  0  0  0  0  0  0  0
    3.7893   -0.3016   42.7005 C   0  0  0  0  0  0  0  0  0  0  0  0
    3.3781   -1.7350   43.0000 C   0  0  0  0  0  0  0  0  0  0  0  0
    2.0339   -1.9619   42.6217 C   0  0  0  0  0  0  0  0  0  0  0  0
    5.0090    0.1219   42.9340 N   0  0  0  0  0  0  0  0  0  0  0  0
    4.2895   -2.4979   43.6707 C   0  0  0  0  0  0  0  0  0  0  0  0
    5.8391   -0.6675   43.6343 C   0  0  0  0  0  0  0  0  0  0  0  0
    6.9849   -0.2377   44.0028 N   0  0  0  0  0  0  0  0  0  0  0  0
    4.0426   -3.8794   44.0832 C   0  0  0  0  0  0  0  0  0  0  0  0
    7.6796   -0.8734   44.9326 C   0  0  0  0  0  0  0  0  0  0  0  0
    1.1064   -2.9576   42.4211 C   0  0  0  0  0  0  0  0  0  0  0  0
    5.5298   -1.9496   44.0315 C   0  0  0  0  0  0  0  0  0  0  0  0
    3.8954   -4.1817   45.4718 C   0  0  0  0  0  0  0  0  0  0  0  0
    0.6765   -3.5480   43.4006 C   0  0  1  0  0  0  0  0  0  0  0  0
    0.5804   -3.2191   41.1635 C   0  0  0  0  0  0  0  0  0  0  0  0
    2.8083   -4.8227   45.9203 N   0  0  0  0  0  0  0  0  0  0  0  0
   -0.1574   -4.5754   42.9329 N   0  0  0  0  0  0  0  0  0  0  0  0
    6.5271   -2.5531   44.9677 C   0  0  0  0  0  0  0  0  0  0  0  0
   -0.2272   -4.3703   41.5137 C   0  0  0  0  0  0  0  0  0  0  0  0
    7.5095   -2.0029   45.3993 C   0  0  0  0  0  0  0  0  0  0  0  0
    8.2550   -2.6982   46.3988 C   0  0  2  0  0  0  0  0  0  0  0  0
    8.8975   -0.3029   45.3267 O   0  0  0  0  0  0  0  0  0  0  0  0
    4.8299   -4.4637   46.4212 C   0  0  0  0  0  0  0  0  0  0  0  0
    4.2707   -4.9248   47.6295 N   0  0  0  0  0  0  0  0  0  0  0  0
    3.2045   -5.2092   47.1521 C   0  0  0  0  0  0  0  0  0  0  0  0
    1.4482   -4.6186   45.4134 C   0  0  1  0  0  0  0  0  0  0  0  0
    1.2398   -3.5043   44.6236 O   0  0  0  0  0  0  0  0  0  0  0  0
    6.3317   -3.9297   46.0870 C   0  0  2  0  0  0  0  0  0  0  0  0
    9.5296   -2.5449   46.9776 C   0  0  0  0  0  0  0  0  0  0  0  0
    9.7921   -1.7530   47.9018 O   0  0  0  0  0  0  0  0  0  0  0  0
    7.4454   -3.8344   46.8035 C   0  0  0  0  0  0  0  0  0  0  0  0
   10.5010   -3.0847   46.3190 O   0  0  0  0  0  0  0  0  0  0  0  0
   11.6678   -2.3573   46.1207 C   0  0  0  0  0  0  0  0  0  0  0  0
    1.2465   -5.7813   44.5616 C   0  0  0  0  0  0  0  0  0  0  0  0
  1  2  1  0
  2  3  2  0
  3  4  1  0
  1  5  2  0
  4  5  1  0
  3  6  1  0
  4  7  2  0
  6  8  1  0
  8  9  1  0
  7 10  1  0
  9 11  1  0
  5 12  1  0
  7 13  1  0
  8 13  2  0
 10 14  1  0
 12 15  1  0
 12 16  2  0
 14 17  1  0
 15 18  1  0
 13 19  1  0
 16 20  1  0
 18 20  2  0
 11 21  1  0
 19 21  2  0
 21 22  1  0
 11 23  2  0
 14 24  2  0
 24 25  1  0
 17 26  1  0
 25 26  2  0
 17 27  1  0
 15 28  1  6
 27 28  1  0
 19 29  1  0
 24 29  1  0
 22 30  1  6
 30 31  2  0
 22 32  1  0
 29 32  1  1
 30 33  1  0
 33 34  1  0
 27 35  1  6
M  END
$$$$
O14757_Pocket2Mol_idx-in-all-generaetd-520
     RDKit          3D

 40 47  0  0  0  0  0  0  0  0999 V2000
    1.5482   -0.3111   41.9233 C   0  0  0  0  0  0  0  0  0  0  0  0
    2.7284    0.2018   42.1525 N   0  0  0  0  0  0  0  0  0  0  0  0
    3.7893   -0.3016   42.7005 C   0  0  0  0  0  0  0  0  0  0  0  0
    3.3781   -1.7350   43.0000 C   0  0  0  0  0  0  0  0  0  0  0  0
    2.0339   -1.9619   42.6217 C   0  0  0  0  0  0  0  0  0  0  0  0
    4.1166   -2.4997   43.8458 C   0  0  0  0  0  0  0  0  0  0  0  0
    1.1731   -3.0051   42.5773 C   0  0  0  0  0  0  0  0  0  0  0  0
    0.4701   -3.2344   41.4901 C   0  0  0  0  0  0  0  0  0  0  0  0
    5.3799   -1.7814   44.2691 C   0  0  0  0  0  0  0  0  0  0  0  0
    5.0159   -0.0180   43.1201 N   0  0  0  0  0  0  0  0  0  0  0  0
    5.7693   -0.6937   43.8418 C   0  0  0  0  0  0  0  0  0  0  0  0
    0.8078   -3.6166   43.6782 C   0  0  0  0  0  0  0  0  0  0  0  0
    0.0663   -4.7011   43.7415 N   0  0  0  0  0  0  0  0  0  0  0  0
    6.2223   -2.6843   45.1565 C   0  0  0  0  0  0  0  0  0  0  0  0
    6.9599   -0.2351   44.2608 N   0  0  0  0  0  0  0  0  0  0  0  0
    5.9065   -3.9037   45.7499 N   0  0  0  0  0  0  0  0  0  0  0  0
   -0.5459   -5.1185   42.5870 C   0  0  0  0  0  0  0  0  0  0  0  0
    5.7480   -4.0340   46.9810 C   0  0  0  0  0  0  0  0  0  0  0  0
    7.4448   -1.8511   45.4198 C   0  0  0  0  0  0  0  0  0  0  0  0
    7.7572   -0.7827   45.0128 C   0  0  0  0  0  0  0  0  0  0  0  0
    8.4076   -2.7217   46.4541 C   0  0  0  0  0  0  0  0  0  0  0  0
    9.3167   -2.0988   47.1049 N   0  0  0  0  0  0  0  0  0  0  0  0
   -0.4719   -4.3893   41.5406 C   0  0  0  0  0  0  0  0  0  0  0  0
    8.3667   -4.0284   46.5743 N   0  0  0  0  0  0  0  0  0  0  0  0
    9.5309   -4.3147   47.3094 C   0  0  0  0  0  0  0  0  0  0  0  0
    5.3113   -3.3789   47.8005 O   0  0  0  0  0  0  0  0  0  0  0  0
    9.9022   -5.6301   47.7684 C   0  0  0  0  0  0  0  0  0  0  0  0
    5.4470   -5.5868   47.2096 C   0  0  0  0  0  0  0  0  0  0  0  0
   11.2254   -5.8679   48.0402 C   0  0  0  0  0  0  0  0  0  0  0  0
    8.9736   -6.6532   47.8548 C   0  0  0  0  0  0  0  0  0  0  0  0
   10.0616   -3.0670   47.6360 C   0  0  0  0  0  0  0  0  0  0  0  0
    7.5566   -6.3564   47.5477 N   0  0  0  0  0  0  0  0  0  0  0  0
   12.3328   -4.8893   47.9268 C   0  0  0  0  0  0  0  0  0  0  0  0
   12.2085   -3.9673   46.9997 C   0  0  0  0  0  0  0  0  0  0  0  0
    9.2156   -7.8300   48.4499 C   0  0  0  0  0  0  0  0  0  0  0  0
   11.4851   -2.8378   47.7540 C   0  0  0  0  0  0  0  0  0  0  0  0
    6.4874   -6.3039   48.2799 C   0  0  0  0  0  0  0  0  0  0  0  0
   11.5168   -7.0924   48.4641 C   0  0  0  0  0  0  0  0  0  0  0  0
    8.2951   -8.8860   48.5773 O   0  0  0  0  0  0  0  0  0  0  0  0
   10.4931   -8.1310   48.6546 C   0  0  0  0  0  0  0  0  0  0  0  0
  1  2  1  0
  2  3  2  0
  3  4  1  0
  1  5  2  0
  4  5  1  0
  4  6  2  0
  5  7  1  0
  7  8  2  0
  6  9  1  0
  3 10  1  0
  9 11  2  0
 10 11  1  0
  7 12  1  0
 12 13  2  0
  9 14  1  0
 11 15  1  0
 14 16  1  0
 13 17  1  0
 16 18  1  0
 14 19  2  0
 15 20  2  0
 19 20  1  0
 19 21  1  0
 21 22  2  0
  8 23  1  0
 17 23  2  0
 21 24  1  0
 24 25  1  0
 18 26  2  0
 25 27  1  0
 18 28  1  0
 27 29  2  0
 27 30  1  0
 22 31  1  0
 25 31  2  0
 30 32  1  0
 29 33  1  0
 33 34  1  0
 30 35  2  0
 31 36  1  0
 34 36  1  0
 28 37  1  0
 32 37  1  0
 29 38  1  0
 35 39  1  0
 35 40  1  0
 38 40  2  0
M  END
$$$$
O14757_Pocket2Mol_idx-in-all-generaetd-521
     RDKit          3D

 50 59  0  0  0  0  0  0  0  0999 V2000
    1.5482   -0.3111   41.9233 C   0  0  0  0  0  0  0  0  0  0  0  0
    2.7284    0.2018   42.1525 N   0  0  0  0  0  0  0  0  0  0  0  0
    3.7893   -0.3016   42.7005 C   0  0  0  0  0  0  0  0  0  0  0  0
    3.3781   -1.7350   43.0000 C   0  0  0  0  0  0  0  0  0  0  0  0
    2.0339   -1.9619   42.6217 C   0  0  0  0  0  0  0  0  0  0  0  0
    5.0090    0.1219   42.9340 N   0  0  0  0  0  0  0  0  0  0  0  0
    4.2895   -2.4979   43.6707 C   0  0  0  0  0  0  0  0  0  0  0  0
    5.8391   -0.6675   43.6343 C   0  0  0  0  0  0  0  0  0  0  0  0
    6.9849   -0.2377   44.0028 N   0  0  0  0  0  0  0  0  0  0  0  0
    4.0426   -3.8794   44.0832 C   0  0  0  0  0  0  0  0  0  0  0  0
    7.6796   -0.8734   44.9326 C   0  0  0  0  0  0  0  0  0  0  0  0
    1.1064   -2.9576   42.4211 C   0  0  0  0  0  0  0  0  0  0  0  0
    5.5298   -1.9496   44.0315 C   0  0  0  0  0  0  0  0  0  0  0  0
    3.8954   -4.1817   45.4718 C   0  0  0  0  0  0  0  0  0  0  0  0
    0.6765   -3.5480   43.4006 C   0  0  1  0  0  0  0  0  0  0  0  0
    0.5804   -3.2191   41.1635 C   0  0  0  0  0  0  0  0  0  0  0  0
    2.8083   -4.8227   45.9203 N   0  0  0  0  0  0  0  0  0  0  0  0
   -0.1574   -4.5754   42.9329 N   0  0  0  0  0  0  0  0  0  0  0  0
    6.5271   -2.5531   44.9677 C   0  0  0  0  0  0  0  0  0  0  0  0
   -0.2272   -4.3703   41.5137 C   0  0  0  0  0  0  0  0  0  0  0  0
    7.5095   -2.0029   45.3993 C   0  0  0  0  0  0  0  0  0  0  0  0
    8.2550   -2.6982   46.3988 C   0  0  1  0  0  0  0  0  0  0  0  0
    8.8975   -0.3029   45.3267 O   0  0  0  0  0  0  0  0  0  0  0  0
    4.8299   -4.4637   46.4212 C   0  0  0  0  0  0  0  0  0  0  0  0
    4.2707   -4.9248   47.6295 N   0  0  0  0  0  0  0  0  0  0  0  0
    3.2045   -5.2092   47.1521 C   0  0  0  0  0  0  0  0  0  0  0  0
    1.4482   -4.6186   45.4134 C   0  0  0  0  0  0  0  0  0  0  0  0
    1.3256   -3.7660   44.6394 N   0  0  0  0  0  0  0  0  0  0  0  0
    9.2816   -2.1418   47.1273 N   0  0  0  0  0  0  0  0  0  0  0  0
   10.0629   -3.1324   47.8508 C   0  0  0  0  0  0  0  0  0  0  0  0
    6.3491   -3.8960   46.0844 C   0  0  2  0  0  0  0  0  0  0  0  0
    7.4349   -3.5889   46.9054 C   0  0  0  0  0  0  0  0  0  0  0  0
   10.3145   -2.7271   49.0818 O   0  0  0  0  0  0  0  0  0  0  0  0
    0.6213   -5.4445   45.7455 O   0  0  0  0  0  0  0  0  0  0  0  0
   11.0262   -3.8136   47.1050 C   0  0  0  0  0  0  0  0  0  0  0  0
   12.1704   -3.3854   46.7547 C   0  0  0  0  0  0  0  0  0  0  0  0
   13.1080   -4.1111   46.0053 C   0  0  0  0  0  0  0  0  0  0  0  0
   14.3489   -3.5966   45.7888 C   0  0  0  0  0  0  0  0  0  0  0  0
   12.7430   -5.2725   45.5056 C   0  0  0  0  0  0  0  0  0  0  0  0
   14.6935   -2.2816   45.3353 C   0  0  0  0  0  0  0  0  0  0  0  0
   15.8828   -1.9964   44.9887 C   0  0  0  0  0  0  0  0  0  0  0  0
   15.4347   -4.4529   45.9716 C   0  0  0  0  0  0  0  0  0  0  0  0
   16.1869   -0.5957   44.4528 O   0  0  0  0  0  0  0  0  0  0  0  0
   10.8168   -5.3072   46.8157 C   0  0  0  0  0  0  0  0  0  0  0  0
   16.9691   -2.7691   45.1797 C   0  0  0  0  0  0  0  0  0  0  0  0
   18.2618   -2.3821   44.8230 O   0  0  0  0  0  0  0  0  0  0  0  0
   16.7414   -4.0682   45.6662 C   0  0  0  0  0  0  0  0  0  0  0  0
   15.0506    0.1148   44.1556 C   0  0  0  0  0  0  0  0  0  0  0  0
   11.6703   -5.8563   46.0400 C   0  0  0  0  0  0  0  0  0  0  0  0
   18.8571   -2.9602   43.7855 C   0  0  0  0  0  0  0  0  0  0  0  0
  1  2  1  0
  2  3  2  0
  3  4  1  0
  1  5  2  0
  4  5  1  0
  3  6  1  0
  4  7  2  0
  6  8  1  0
  8  9  1  0
  7 10  1  0
  9 11  1  0
  5 12  1  0
  7 13  1  0
  8 13  2  0
 10 14  1  0
 12 15  1  0
 12 16  2  0
 14 17  1  0
 15 18  1  0
 13 19  1  0
 16 20  1  0
 18 20  2  0
 11 21  1  0
 19 21  2  0
 21 22  1  0
 11 23  2  0
 14 24  2  0
 24 25  1  0
 17 26  1  0
 25 26  2  0
 17 27  1  0
 15 28  1  6
 27 28  1  0
 22 29  1  1
 29 30  1  0
 19 31  1  0
 24 31  1  0
 22 32  1  0
 31 32  1  1
 30 33  2  0
 27 34  2  0
 30 35  1  0
 35 36  2  0
 36 37  1  0
 37 38  1  0
 37 39  2  0
 38 40  2  0
 40 41  1  0
 38 42  1  0
 41 43  1  0
 35 44  1  0
 41 45  2  0
 45 46  1  0
 42 47  2  0
 45 47  1  0
 43 48  1  0
 39 49  1  0
 44 49  2  0
 46 50  1  0
M  END
$$$$
O14757_Pocket2Mol_idx-in-all-generaetd-522
     RDKit          3D

 46 52  0  0  0  0  0  0  0  0999 V2000
    5.3420    0.2589   42.8836 O   0  0  0  0  0  0  0  0  0  0  0  0
    5.1627   -0.7554   43.4753 C   0  0  0  0  0  0  0  0  0  0  0  0
    4.0509   -1.4657   43.4177 N   0  0  0  0  0  0  0  0  0  0  0  0
    5.9969   -1.2317   44.6840 C   0  0  0  0  0  0  0  0  0  0  0  0
    2.9618   -1.1021   42.5918 C   0  0  1  0  0  0  0  0  0  0  0  0
    7.3392   -0.8596   44.8412 C   0  0  0  0  0  0  0  0  0  0  0  0
    1.9754   -2.0820   42.2741 C   0  0  0  0  0  0  0  0  0  0  0  0
    5.5910   -2.4282   45.3439 C   0  0  0  0  0  0  0  0  0  0  0  0
    6.5874   -2.9636   46.1581 C   0  0  0  0  0  0  0  0  0  0  0  0
    4.2763   -3.0680   45.0493 N   0  0  0  0  0  0  0  0  0  0  0  0
    3.6188   -2.5886   44.2024 C   0  0  0  0  0  0  0  0  0  0  0  0
    8.1921   -1.4071   45.7505 C   0  0  0  0  0  0  0  0  0  0  0  0
    1.0154   -1.8839   41.2980 C   0  0  0  0  0  0  0  0  0  0  0  0
    2.5720   -3.3564   43.9063 C   0  0  0  0  0  0  0  0  0  0  0  0
    0.2502   -2.8976   41.0751 C   0  0  0  0  0  0  0  0  0  0  0  0
    6.1761   -4.1775   47.0209 C   0  0  0  0  0  0  0  0  0  0  0  0
    1.7266   -3.1047   43.0115 C   0  0  2  0  0  0  0  0  0  0  0  0
    2.3696   -4.5367   44.7536 N   0  0  0  0  0  0  0  0  0  0  0  0
    1.2264   -5.2346   44.4693 C   0  0  0  0  0  0  0  0  0  0  0  0
    0.7187   -3.8955   42.5465 C   0  0  0  0  0  0  0  0  0  0  0  0
    9.4576   -0.8949   46.0327 N   0  0  0  0  0  0  0  0  0  0  0  0
    0.8625   -6.3901   45.2462 C   0  0  0  0  0  0  0  0  0  0  0  0
    7.6467   -2.5139   46.4892 C   0  0  0  0  0  0  0  0  0  0  0  0
   10.4908   -1.5336   45.8242 C   0  0  0  0  0  0  0  0  0  0  0  0
    0.3057   -4.9299   43.2909 C   0  0  0  0  0  0  0  0  0  0  0  0
   11.5916   -1.4291   46.7436 C   0  0  0  0  0  0  0  0  0  0  0  0
   10.5566   -2.3672   44.8649 O   0  0  0  0  0  0  0  0  0  0  0  0
   12.8421   -1.9355   46.2823 C   0  0  0  0  0  0  0  0  0  0  0  0
   13.4833   -2.8582   46.9841 C   0  0  0  0  0  0  0  0  0  0  0  0
   11.4002   -1.1447   48.0540 C   0  0  0  0  0  0  0  0  0  0  0  0
   10.2867   -0.4569   48.4999 O   0  0  0  0  0  0  0  0  0  0  0  0
   12.3327   -1.4798   48.9564 C   0  0  0  0  0  0  0  0  0  0  0  0
   14.7901   -3.3162   46.6439 C   0  0  0  0  0  0  0  0  0  0  0  0
   12.1651   -1.3050   50.3239 O   0  0  0  0  0  0  0  0  0  0  0  0
   15.6765   -2.5740   46.0979 C   0  0  0  0  0  0  0  0  0  0  0  0
   13.4417   -2.4710   48.5369 C   0  0  0  0  0  0  0  0  0  0  0  0
   15.5553   -1.2853   45.8338 C   0  0  0  0  0  0  0  0  0  0  0  0
    2.4633    0.2112   42.8553 C   0  0  0  0  0  0  0  0  0  0  0  0
   15.4040   -0.8809   44.5109 C   0  0  0  0  0  0  0  0  0  0  0  0
   14.8738    0.3113   44.1938 C   0  0  0  0  0  0  0  0  0  0  0  0
   14.7152    1.1803   45.2021 C   0  0  0  0  0  0  0  0  0  0  0  0
   14.9830    0.9587   46.4703 C   0  0  0  0  0  0  0  0  0  0  0  0
   14.6729    1.9187   47.5393 C   0  0  0  0  0  0  0  0  0  0  0  0
   15.4965   -0.3066   46.7749 C   0  0  0  0  0  0  0  0  0  0  0  0
   13.4142    2.2165   47.7341 O   0  0  0  0  0  0  0  0  0  0  0  0
   15.5461    2.2455   48.3601 O   0  0  0  0  0  0  0  0  0  0  0  0
  1  2  2  0
  2  3  1  0
  2  4  1  0
  3  5  1  0
  4  6  2  0
  5  7  1  0
  4  8  1  0
  8  9  2  0
  8 10  1  0
  3 11  1  0
 10 11  2  0
  6 12  1  0
  7 13  2  0
 11 14  1  0
 13 15  1  0
  9 16  1  0
 17  7  1  6
 14 17  1  0
 14 18  2  0
 18 19  1  0
 15 20  2  0
 17 20  1  0
 12 21  1  0
 19 22  1  0
  9 23  1  0
 12 23  2  0
 21 24  1  0
 19 25  2  0
 20 25  1  0
 24 26  1  0
 24 27  2  0
 26 28  2  0
 28 29  1  0
 26 30  1  0
 30 31  1  0
 30 32  2  0
 29 33  1  0
 32 34  1  0
 33 35  2  3
 29 36  2  0
 32 36  1  0
 35 37  1  0
  5 38  1  1
 37 39  2  0
 39 40  1  0
 40 41  2  0
 41 42  1  0
 42 43  1  0
 37 44  1  0
 42 44  2  0
 43 45  2  0
 43 46  1  0
M  END
$$$$
O14757_Pocket2Mol_idx-in-all-generaetd-523
     RDKit          3D

 33 38  0  0  0  0  0  0  0  0999 V2000
    4.5156    0.0550   42.9895 N   0  0  0  0  0  0  0  0  0  0  0  0
    5.0618   -0.8645   43.5295 C   0  0  0  0  0  0  0  0  0  0  0  0
    4.4350   -2.0604   43.7783 C   0  0  0  0  0  0  0  0  0  0  0  0
    4.9987   -3.0994   44.5839 C   0  0  0  0  0  0  0  0  0  0  0  0
    3.2714   -1.8664   43.0632 C   0  0  0  0  0  0  0  0  0  0  0  0
    6.4064   -0.5942   44.3204 N   0  0  0  0  0  0  0  0  0  0  0  0
    4.3422   -4.3256   44.7203 C   0  0  0  0  0  0  0  0  0  0  0  0
    2.1845   -2.6668   42.8270 N   0  0  0  0  0  0  0  0  0  0  0  0
    3.3305   -0.5395   42.5465 N   0  0  0  0  0  0  0  0  0  0  0  0
    1.9502   -3.8972   43.4076 C   0  0  0  0  0  0  0  0  0  0  0  0
    2.7156   -4.1184   44.6954 N   0  0  0  0  0  0  0  0  0  0  0  0
    6.8581   -1.5862   45.1101 C   0  0  0  0  0  0  0  0  0  0  0  0
    6.1801   -2.8430   45.2383 C   0  0  0  0  0  0  0  0  0  0  0  0
    2.1454   -5.1901   45.5771 C   0  0  0  0  0  0  0  0  0  0  0  0
    8.0137   -1.3946   45.8526 C   0  0  0  0  0  0  0  0  0  0  0  0
    0.9733   -4.5725   43.2066 O   0  0  0  0  0  0  0  0  0  0  0  0
    2.2437    0.0035   41.8733 C   0  0  0  0  0  0  0  0  0  0  0  0
    1.3210   -2.2077   41.7009 C   0  0  0  0  0  0  0  0  0  0  0  0
    8.6047   -2.2876   46.6923 C   0  0  0  0  0  0  0  0  0  0  0  0
    7.9141   -3.5157   46.8869 C   0  0  0  0  0  0  0  0  0  0  0  0
    1.0501   -0.8658   41.6612 C   0  0  0  0  0  0  0  0  0  0  0  0
    6.7278   -3.7718   46.2525 C   0  0  0  0  0  0  0  0  0  0  0  0
    9.8280   -2.0492   47.3361 C   0  0  0  0  0  0  0  0  0  0  0  0
    9.8262   -1.5735   48.5432 C   0  0  0  0  0  0  0  0  0  0  0  0
   11.0745   -2.0905   46.6735 C   0  0  0  0  0  0  0  0  0  0  0  0
    8.5798   -1.4294   49.3788 F   0  0  0  0  0  0  0  0  0  0  0  0
   10.9754   -1.2454   49.3173 C   0  0  0  0  0  0  0  0  0  0  0  0
   12.2431   -1.7844   47.3194 C   0  0  0  0  0  0  0  0  0  0  0  0
   12.2188   -1.4453   48.6667 C   0  0  0  0  0  0  0  0  0  0  0  0
   13.6595   -1.9732   46.5664 C   0  0  0  0  0  0  0  0  0  0  0  0
    1.0428   -4.5213   46.3539 C   0  0  0  0  0  0  0  0  0  0  0  0
   14.4619   -2.7140   46.9849 O   0  0  0  0  0  0  0  0  0  0  0  0
   13.9270   -1.0052   45.7203 O   0  0  0  0  0  0  0  0  0  0  0  0
  1  2  2  0
  2  3  1  0
  3  4  1  0
  3  5  2  0
  2  6  1  0
  4  7  1  0
  5  8  1  0
  1  9  1  0
  5  9  1  0
  8 10  1  0
  7 11  1  0
 10 11  1  0
  6 12  2  0
  4 13  2  0
 12 13  1  0
 11 14  1  0
 12 15  1  0
 10 16  2  0
  9 17  1  0
  8 18  1  0
 15 19  2  0
 19 20  1  0
 17 21  1  0
 18 21  1  0
 13 22  1  0
 20 22  2  0
 19 23  1  0
 23 24  2  0
 23 25  1  0
 24 26  1  0
 24 27  1  0
 25 28  2  0
 27 29  2  0
 28 29  1  0
 28 30  1  0
 14 31  1  0
 30 32  1  0
 30 33  2  0
M  END
$$$$
O14757_Pocket2Mol_idx-in-all-generaetd-524
     RDKit          3D

 44 52  0  0  0  0  0  0  0  0999 V2000
    1.5482   -0.3111   41.9233 C   0  0  0  0  0  0  0  0  0  0  0  0
    2.7284    0.2018   42.1525 N   0  0  0  0  0  0  0  0  0  0  0  0
    3.7893   -0.3016   42.7005 C   0  0  0  0  0  0  0  0  0  0  0  0
    3.3781   -1.7350   43.0000 C   0  0  0  0  0  0  0  0  0  0  0  0
    2.0339   -1.9619   42.6217 C   0  0  0  0  0  0  0  0  0  0  0  0
    5.0090    0.1219   42.9340 N   0  0  0  0  0  0  0  0  0  0  0  0
    4.2895   -2.4979   43.6707 C   0  0  0  0  0  0  0  0  0  0  0  0
    5.8391   -0.6675   43.6343 C   0  0  0  0  0  0  0  0  0  0  0  0
    6.9849   -0.2377   44.0028 N   0  0  0  0  0  0  0  0  0  0  0  0
    4.0426   -3.8794   44.0832 C   0  0  0  0  0  0  0  0  0  0  0  0
    7.6796   -0.8734   44.9326 C   0  0  0  0  0  0  0  0  0  0  0  0
    1.1064   -2.9576   42.4211 C   0  0  0  0  0  0  0  0  0  0  0  0
    5.5298   -1.9496   44.0315 C   0  0  0  0  0  0  0  0  0  0  0  0
    3.8954   -4.1817   45.4718 C   0  0  0  0  0  0  0  0  0  0  0  0
    0.6765   -3.5480   43.4006 C   0  0  1  0  0  0  0  0  0  0  0  0
    0.5804   -3.2191   41.1635 C   0  0  0  0  0  0  0  0  0  0  0  0
    2.8083   -4.8227   45.9203 N   0  0  0  0  0  0  0  0  0  0  0  0
   -0.1574   -4.5754   42.9329 N   0  0  0  0  0  0  0  0  0  0  0  0
    6.5271   -2.5531   44.9677 C   0  0  0  0  0  0  0  0  0  0  0  0
   -0.2272   -4.3703   41.5137 C   0  0  0  0  0  0  0  0  0  0  0  0
    7.5095   -2.0029   45.3993 C   0  0  0  0  0  0  0  0  0  0  0  0
    8.2550   -2.6982   46.3988 C   0  0  0  0  0  0  0  0  0  0  0  0
    8.8975   -0.3029   45.3267 O   0  0  0  0  0  0  0  0  0  0  0  0
    4.8299   -4.4637   46.4212 C   0  0  0  0  0  0  0  0  0  0  0  0
    4.2707   -4.9248   47.6295 N   0  0  0  0  0  0  0  0  0  0  0  0
    3.2045   -5.2092   47.1521 C   0  0  0  0  0  0  0  0  0  0  0  0
    1.4482   -4.6186   45.4134 C   0  0  2  0  0  0  0  0  0  0  0  0
    1.2398   -3.5043   44.6236 O   0  0  0  0  0  0  0  0  0  0  0  0
    6.3317   -3.9297   46.0870 C   0  0  2  0  0  0  0  0  0  0  0  0
    9.5296   -2.5449   46.9776 C   0  0  0  0  0  0  0  0  0  0  0  0
    9.7921   -1.7530   47.9018 O   0  0  0  0  0  0  0  0  0  0  0  0
    7.3972   -3.8130   46.7939 C   0  0  0  0  0  0  0  0  0  0  0  0
   10.4154   -3.4217   46.6883 O   0  0  0  0  0  0  0  0  0  0  0  0
    0.5555   -4.7535   46.5674 C   0  0  0  0  0  0  0  0  0  0  0  0
   11.6497   -3.0596   47.0439 C   0  0  0  0  0  0  0  0  0  0  0  0
   12.3878   -4.1125   47.6990 C   0  0  1  0  0  0  0  0  0  0  0  0
   11.8800   -5.2760   47.5659 O   0  0  0  0  0  0  0  0  0  0  0  0
   12.1402   -1.9273   46.5416 C   0  0  0  0  0  0  0  0  0  0  0  0
   13.7566   -3.9428   47.4635 C   0  0  0  0  0  0  0  0  0  0  0  0
   11.3924   -5.9178   48.7514 C   0  0  0  0  0  0  0  0  0  0  0  0
   14.4126   -2.7430   47.0678 C   0  0  0  0  0  0  0  0  0  0  0  0
   13.4817   -1.7494   46.5455 C   0  0  0  0  0  0  0  0  0  0  0  0
   15.7358   -2.5357   47.0594 O   0  0  0  0  0  0  0  0  0  0  0  0
   14.0345   -0.7849   45.7652 O   0  0  0  0  0  0  0  0  0  0  0  0
  1  2  1  0
  2  3  2  0
  3  4  1  0
  1  5  2  0
  4  5  1  0
  3  6  1  0
  4  7  2  0
  6  8  1  0
  8  9  1  0
  7 10  1  0
  9 11  1  0
  5 12  1  0
  7 13  1  0
  8 13  2  0
 10 14  1  0
 12 15  1  0
 12 16  2  0
 14 17  1  0
 15 18  1  0
 13 19  1  0
 16 20  1  0
 18 20  2  0
 11 21  1  0
 19 21  2  0
 21 22  1  0
 11 23  2  0
 14 24  2  0
 24 25  1  0
 17 26  1  0
 25 26  2  0
 17 27  1  0
 15 28  1  6
 27 28  1  0
 19 29  1  0
 24 29  1  0
 22 30  1  0
 30 31  2  0
 22 32  2  0
 29 32  1  1
 30 33  1  0
 27 34  1  1
 33 35  1  0
 35 36  1  0
 36 37  1  6
 35 38  2  0
 36 39  1  0
 37 40  1  0
 39 41  2  0
 38 42  1  0
 41 42  1  0
 41 43  1  0
 42 44  2  0
M  END
$$$$
O14757_Pocket2Mol_idx-in-all-generaetd-525
     RDKit          3D

 38 43  0  0  0  0  0  0  0  0999 V2000
    5.3420    0.2589   42.8836 O   0  0  0  0  0  0  0  0  0  0  0  0
    5.1627   -0.7554   43.4753 C   0  0  0  0  0  0  0  0  0  0  0  0
    4.0509   -1.4657   43.4177 N   0  0  0  0  0  0  0  0  0  0  0  0
    5.9969   -1.2317   44.6840 C   0  0  0  0  0  0  0  0  0  0  0  0
    2.9618   -1.1021   42.5918 C   0  0  0  0  0  0  0  0  0  0  0  0
    7.3392   -0.8596   44.8412 C   0  0  0  0  0  0  0  0  0  0  0  0
    1.9754   -2.0820   42.2741 C   0  0  0  0  0  0  0  0  0  0  0  0
    5.5910   -2.4282   45.3439 C   0  0  0  0  0  0  0  0  0  0  0  0
    6.5874   -2.9636   46.1581 C   0  0  0  0  0  0  0  0  0  0  0  0
    4.2763   -3.0680   45.0493 N   0  0  0  0  0  0  0  0  0  0  0  0
    3.6188   -2.5886   44.2024 C   0  0  0  0  0  0  0  0  0  0  0  0
    8.1921   -1.4071   45.7505 C   0  0  0  0  0  0  0  0  0  0  0  0
    1.0154   -1.8839   41.2980 C   0  0  0  0  0  0  0  0  0  0  0  0
    2.5720   -3.3564   43.9063 C   0  0  0  0  0  0  0  0  0  0  0  0
    0.2502   -2.8976   41.0751 C   0  0  0  0  0  0  0  0  0  0  0  0
    6.1761   -4.1775   47.0209 C   0  0  0  0  0  0  0  0  0  0  0  0
    1.7266   -3.1047   43.0115 C   0  0  2  0  0  0  0  0  0  0  0  0
    2.3696   -4.5367   44.7536 N   0  0  0  0  0  0  0  0  0  0  0  0
    1.2264   -5.2346   44.4693 C   0  0  0  0  0  0  0  0  0  0  0  0
    0.7187   -3.8955   42.5465 C   0  0  0  0  0  0  0  0  0  0  0  0
    9.4576   -0.8949   46.0327 N   0  0  0  0  0  0  0  0  0  0  0  0
    0.8625   -6.3901   45.2462 C   0  0  0  0  0  0  0  0  0  0  0  0
    7.6467   -2.5139   46.4892 C   0  0  0  0  0  0  0  0  0  0  0  0
   10.4908   -1.5336   45.8242 C   0  0  0  0  0  0  0  0  0  0  0  0
    0.3057   -4.9299   43.2909 C   0  0  0  0  0  0  0  0  0  0  0  0
   11.5916   -1.4291   46.7436 C   0  0  0  0  0  0  0  0  0  0  0  0
   10.5566   -2.3672   44.8649 O   0  0  0  0  0  0  0  0  0  0  0  0
   12.8421   -1.9355   46.2823 C   0  0  0  0  0  0  0  0  0  0  0  0
   13.4833   -2.8582   46.9841 C   0  0  0  0  0  0  0  0  0  0  0  0
   11.4002   -1.1447   48.0540 C   0  0  0  0  0  0  0  0  0  0  0  0
   10.2867   -0.4569   48.4999 O   0  0  0  0  0  0  0  0  0  0  0  0
   12.3327   -1.4798   48.9564 C   0  0  0  0  0  0  0  0  0  0  0  0
   14.7901   -3.3162   46.6439 C   0  0  0  0  0  0  0  0  0  0  0  0
   12.1651   -1.3050   50.3239 O   0  0  0  0  0  0  0  0  0  0  0  0
    3.0229    0.0743   42.0638 O   0  0  0  0  0  0  0  0  0  0  0  0
   13.6523   -2.3051   48.5597 C   0  0  0  0  0  0  0  0  0  0  0  0
   15.1431   -4.4276   46.8208 O   0  0  0  0  0  0  0  0  0  0  0  0
   15.4138   -2.7647   45.5952 O   0  0  0  0  0  0  0  0  0  0  0  0
  1  2  2  0
  2  3  1  0
  2  4  1  0
  3  5  1  0
  4  6  2  0
  5  7  1  0
  4  8  1  0
  8  9  2  0
  8 10  1  0
  3 11  1  0
 10 11  2  0
  6 12  1  0
  7 13  2  0
 11 14  1  0
 13 15  1  0
  9 16  1  0
 17  7  1  6
 14 17  1  0
 14 18  2  0
 18 19  1  0
 15 20  2  0
 17 20  1  0
 12 21  1  0
 19 22  1  0
  9 23  1  0
 12 23  2  0
 21 24  1  0
 19 25  2  0
 20 25  1  0
 24 26  1  0
 24 27  2  0
 26 28  2  0
 28 29  1  0
 26 30  1  0
 30 31  1  0
 30 32  2  0
 29 33  1  0
 32 34  1  0
  5 35  2  0
 29 36  2  0
 32 36  1  0
 33 37  1  0
 33 38  2  0
M  END
$$$$
O14757_Pocket2Mol_idx-in-all-generaetd-526
     RDKit          3D

 30 35  0  0  0  0  0  0  0  0999 V2000
    1.5482   -0.3111   41.9233 C   0  0  0  0  0  0  0  0  0  0  0  0
    2.7284    0.2018   42.1525 N   0  0  0  0  0  0  0  0  0  0  0  0
    3.7893   -0.3016   42.7005 C   0  0  0  0  0  0  0  0  0  0  0  0
    3.3781   -1.7350   43.0000 C   0  0  0  0  0  0  0  0  0  0  0  0
    2.0339   -1.9619   42.6217 C   0  0  0  0  0  0  0  0  0  0  0  0
    5.0090    0.1219   42.9340 N   0  0  0  0  0  0  0  0  0  0  0  0
    4.2895   -2.4979   43.6707 C   0  0  0  0  0  0  0  0  0  0  0  0
    5.8391   -0.6675   43.6343 C   0  0  0  0  0  0  0  0  0  0  0  0
    6.9849   -0.2377   44.0028 N   0  0  0  0  0  0  0  0  0  0  0  0
    4.0426   -3.8794   44.0832 C   0  0  0  0  0  0  0  0  0  0  0  0
    7.6796   -0.8734   44.9326 C   0  0  0  0  0  0  0  0  0  0  0  0
    1.1064   -2.9576   42.4211 C   0  0  0  0  0  0  0  0  0  0  0  0
    5.5298   -1.9496   44.0315 C   0  0  0  0  0  0  0  0  0  0  0  0
    3.8954   -4.1817   45.4718 C   0  0  0  0  0  0  0  0  0  0  0  0
    0.6765   -3.5480   43.4006 C   0  0  0  0  0  0  0  0  0  0  0  0
    0.5804   -3.2191   41.1635 C   0  0  0  0  0  0  0  0  0  0  0  0
    2.8083   -4.8227   45.9203 N   0  0  0  0  0  0  0  0  0  0  0  0
   -0.2895   -4.3411   41.4783 C   0  0  0  0  0  0  0  0  0  0  0  0
    1.6241   -4.1113   46.2493 C   0  0  0  0  0  0  0  0  0  0  0  0
    6.2863   -2.7050   44.9803 C   0  0  0  0  0  0  0  0  0  0  0  0
    1.0882   -3.7164   44.7216 C   0  0  0  0  0  0  0  0  0  0  0  0
    8.8985   -0.3341   45.3420 O   0  0  0  0  0  0  0  0  0  0  0  0
   -0.2726   -4.5743   42.8227 N   0  0  0  0  0  0  0  0  0  0  0  0
    7.4039   -2.1328   45.4227 C   0  0  0  0  0  0  0  0  0  0  0  0
    8.1076   -2.6939   46.5326 C   0  0  0  0  0  0  0  0  0  0  0  0
    8.0522   -4.0492   46.7477 C   0  0  0  0  0  0  0  0  0  0  0  0
    8.7538   -4.6089   47.8438 C   0  0  0  0  0  0  0  0  0  0  0  0
    9.1907   -2.0527   47.2946 C   0  0  0  0  0  0  0  0  0  0  0  0
    9.6542   -3.9560   48.6047 C   0  0  0  0  0  0  0  0  0  0  0  0
    9.8192   -2.5147   48.2806 C   0  0  0  0  0  0  0  0  0  0  0  0
  1  2  1  0
  2  3  2  0
  3  4  1  0
  1  5  2  0
  4  5  1  0
  3  6  1  0
  4  7  2  0
  6  8  1  0
  8  9  1  0
  7 10  1  0
  9 11  1  0
  5 12  1  0
  7 13  1  0
  8 13  2  0
 10 14  1  0
 12 15  1  0
 12 16  2  0
 14 17  1  0
 16 18  1  0
 17 19  1  0
 13 20  1  0
 15 21  2  3
 19 21  1  0
 11 22  2  0
 15 23  1  0
 18 23  2  0
 11 24  1  0
 20 24  2  0
 24 25  1  0
 25 26  2  0
 26 27  1  0
 25 28  1  0
 27 29  2  0
 28 30  2  0
 29 30  1  0
M  END
$$$$
O14757_Pocket2Mol_idx-in-all-generaetd-527
     RDKit          3D

 47 56  0  0  0  0  0  0  0  0999 V2000
    1.5482   -0.3111   41.9233 C   0  0  0  0  0  0  0  0  0  0  0  0
    2.7284    0.2018   42.1525 N   0  0  0  0  0  0  0  0  0  0  0  0
    3.7893   -0.3016   42.7005 C   0  0  0  0  0  0  0  0  0  0  0  0
    3.3781   -1.7350   43.0000 C   0  0  0  0  0  0  0  0  0  0  0  0
    2.0339   -1.9619   42.6217 C   0  0  0  0  0  0  0  0  0  0  0  0
    5.0090    0.1219   42.9340 N   0  0  0  0  0  0  0  0  0  0  0  0
    4.2895   -2.4979   43.6707 C   0  0  0  0  0  0  0  0  0  0  0  0
    5.8391   -0.6675   43.6343 C   0  0  0  0  0  0  0  0  0  0  0  0
    6.9849   -0.2377   44.0028 N   0  0  0  0  0  0  0  0  0  0  0  0
    4.0426   -3.8794   44.0832 C   0  0  0  0  0  0  0  0  0  0  0  0
    7.6796   -0.8734   44.9326 C   0  0  0  0  0  0  0  0  0  0  0  0
    1.1064   -2.9576   42.4211 C   0  0  0  0  0  0  0  0  0  0  0  0
    5.5298   -1.9496   44.0315 C   0  0  0  0  0  0  0  0  0  0  0  0
    3.8954   -4.1817   45.4718 C   0  0  0  0  0  0  0  0  0  0  0  0
    0.6765   -3.5480   43.4006 C   0  0  1  0  0  0  0  0  0  0  0  0
    0.5804   -3.2191   41.1635 C   0  0  0  0  0  0  0  0  0  0  0  0
    2.8083   -4.8227   45.9203 N   0  0  0  0  0  0  0  0  0  0  0  0
   -0.1574   -4.5754   42.9329 N   0  0  0  0  0  0  0  0  0  0  0  0
    6.5271   -2.5531   44.9677 C   0  0  0  0  0  0  0  0  0  0  0  0
   -0.2272   -4.3703   41.5137 C   0  0  0  0  0  0  0  0  0  0  0  0
    7.5095   -2.0029   45.3993 C   0  0  0  0  0  0  0  0  0  0  0  0
    8.2550   -2.6982   46.3988 C   0  0  0  0  0  0  0  0  0  0  0  0
    8.8975   -0.3029   45.3267 O   0  0  0  0  0  0  0  0  0  0  0  0
    4.8299   -4.4637   46.4212 C   0  0  0  0  0  0  0  0  0  0  0  0
    4.2707   -4.9248   47.6295 N   0  0  0  0  0  0  0  0  0  0  0  0
    3.2045   -5.2092   47.1521 C   0  0  0  0  0  0  0  0  0  0  0  0
    1.4482   -4.6186   45.4134 C   0  0  2  0  0  0  0  0  0  0  0  0
    1.2398   -3.5043   44.6236 O   0  0  0  0  0  0  0  0  0  0  0  0
    6.3317   -3.9297   46.0870 C   0  0  2  0  0  0  0  0  0  0  0  0
    9.5296   -2.5449   46.9776 C   0  0  0  0  0  0  0  0  0  0  0  0
    9.7921   -1.7530   47.9018 O   0  0  0  0  0  0  0  0  0  0  0  0
    7.3972   -3.8130   46.7939 C   0  0  0  0  0  0  0  0  0  0  0  0
   10.4154   -3.4217   46.6883 O   0  0  0  0  0  0  0  0  0  0  0  0
    0.5555   -4.7535   46.5674 C   0  0  0  0  0  0  0  0  0  0  0  0
   11.6497   -3.0596   47.0439 C   0  0  0  0  0  0  0  0  0  0  0  0
   12.3878   -4.1125   47.6990 C   0  0  1  0  0  0  0  0  0  0  0  0
   11.8800   -5.2760   47.5659 O   0  0  0  0  0  0  0  0  0  0  0  0
   12.1402   -1.9273   46.5416 C   0  0  0  0  0  0  0  0  0  0  0  0
   13.7566   -3.9428   47.4635 C   0  0  0  0  0  0  0  0  0  0  0  0
   11.3924   -5.9178   48.7514 C   0  0  0  0  0  0  0  0  0  0  0  0
   14.4126   -2.7430   47.0678 C   0  0  0  0  0  0  0  0  0  0  0  0
   13.4817   -1.7494   46.5455 C   0  0  0  0  0  0  0  0  0  0  0  0
   15.7358   -2.5357   47.0594 C   0  0  0  0  0  0  0  0  0  0  0  0
   14.0100   -0.6243   46.0829 C   0  0  0  0  0  0  0  0  0  0  0  0
   16.6116   -3.5372   47.4683 O   0  0  0  0  0  0  0  0  0  0  0  0
   15.3911   -0.3392   46.0948 C   0  0  0  0  0  0  0  0  0  0  0  0
   16.3498   -1.3793   46.5448 C   0  0  0  0  0  0  0  0  0  0  0  0
  1  2  1  0
  2  3  2  0
  3  4  1  0
  1  5  2  0
  4  5  1  0
  3  6  1  0
  4  7  2  0
  6  8  1  0
  8  9  1  0
  7 10  1  0
  9 11  1  0
  5 12  1  0
  7 13  1  0
  8 13  2  0
 10 14  1  0
 12 15  1  0
 12 16  2  0
 14 17  1  0
 15 18  1  0
 13 19  1  0
 16 20  1  0
 18 20  2  0
 11 21  1  0
 19 21  2  0
 21 22  1  0
 11 23  2  0
 14 24  2  0
 24 25  1  0
 17 26  1  0
 25 26  2  0
 17 27  1  0
 15 28  1  6
 27 28  1  0
 19 29  1  0
 24 29  1  0
 22 30  1  0
 30 31  2  0
 22 32  2  0
 29 32  1  1
 30 33  1  0
 27 34  1  1
 33 35  1  0
 35 36  1  0
 36 37  1  6
 35 38  2  0
 36 39  1  0
 37 40  1  0
 39 41  2  0
 38 42  1  0
 41 42  1  0
 41 43  1  0
 42 44  2  0
 43 45  1  0
 44 46  1  0
 43 47  2  0
 46 47  2  0
M  END
$$$$
O14757_Pocket2Mol_idx-in-all-generaetd-528
     RDKit          3D

 35 43  0  0  0  0  0  0  0  0999 V2000
    1.5482   -0.3111   41.9233 C   0  0  0  0  0  0  0  0  0  0  0  0
    2.7284    0.2018   42.1525 N   0  0  0  0  0  0  0  0  0  0  0  0
    3.7893   -0.3016   42.7005 C   0  0  0  0  0  0  0  0  0  0  0  0
    3.3781   -1.7350   43.0000 C   0  0  0  0  0  0  0  0  0  0  0  0
    2.0339   -1.9619   42.6217 C   0  0  0  0  0  0  0  0  0  0  0  0
    5.0090    0.1219   42.9340 N   0  0  0  0  0  0  0  0  0  0  0  0
    4.2895   -2.4979   43.6707 C   0  0  0  0  0  0  0  0  0  0  0  0
    5.8391   -0.6675   43.6343 C   0  0  0  0  0  0  0  0  0  0  0  0
    6.9849   -0.2377   44.0028 N   0  0  0  0  0  0  0  0  0  0  0  0
    4.0426   -3.8794   44.0832 C   0  0  0  0  0  0  0  0  0  0  0  0
    7.6796   -0.8734   44.9326 C   0  0  0  0  0  0  0  0  0  0  0  0
    1.1064   -2.9576   42.4211 C   0  0  0  0  0  0  0  0  0  0  0  0
    5.5298   -1.9496   44.0315 C   0  0  0  0  0  0  0  0  0  0  0  0
    3.8954   -4.1817   45.4718 C   0  0  0  0  0  0  0  0  0  0  0  0
    0.6765   -3.5480   43.4006 C   0  0  1  0  0  0  0  0  0  0  0  0
    0.5804   -3.2191   41.1635 C   0  0  0  0  0  0  0  0  0  0  0  0
    2.8083   -4.8227   45.9203 N   0  0  0  0  0  0  0  0  0  0  0  0
   -0.1574   -4.5754   42.9329 N   0  0  0  0  0  0  0  0  0  0  0  0
    6.5271   -2.5531   44.9677 C   0  0  0  0  0  0  0  0  0  0  0  0
   -0.2272   -4.3703   41.5137 C   0  0  0  0  0  0  0  0  0  0  0  0
    7.5095   -2.0029   45.3993 C   0  0  0  0  0  0  0  0  0  0  0  0
    8.2550   -2.6982   46.3988 C   0  0  0  0  0  0  0  0  0  0  0  0
    8.8975   -0.3029   45.3267 O   0  0  0  0  0  0  0  0  0  0  0  0
    4.8299   -4.4637   46.4212 C   0  0  0  0  0  0  0  0  0  0  0  0
    4.2707   -4.9248   47.6295 N   0  0  0  0  0  0  0  0  0  0  0  0
    3.2045   -5.2092   47.1521 C   0  0  0  0  0  0  0  0  0  0  0  0
    1.4482   -4.6186   45.4134 C   0  0  2  0  0  0  0  0  0  0  0  0
    1.2398   -3.5043   44.6236 O   0  0  0  0  0  0  0  0  0  0  0  0
    7.8521   -3.9584   46.8773 C   0  0  0  0  0  0  0  0  0  0  0  0
    8.4079   -4.7553   47.7407 C   0  0  0  0  0  0  0  0  0  0  0  0
    6.2843   -3.8191   46.0063 C   0  0  2  0  0  0  0  0  0  0  0  0
    0.5313   -4.7420   46.5885 C   0  0  0  0  0  0  0  0  0  0  0  0
    9.6517   -2.6917   47.0982 C   0  0  0  0  0  0  0  0  0  0  0  0
   10.3945   -1.5317   46.7908 C   0  0  0  0  0  0  0  0  0  0  0  0
    9.7838   -3.7199   47.9223 C   0  0  0  0  0  0  0  0  0  0  0  0
  1  2  1  0
  2  3  2  0
  3  4  1  0
  1  5  2  0
  4  5  1  0
  3  6  1  0
  4  7  2  0
  6  8  1  0
  8  9  1  0
  7 10  1  0
  9 11  1  0
  5 12  1  0
  7 13  1  0
  8 13  2  0
 10 14  1  0
 12 15  1  0
 12 16  2  0
 14 17  1  0
 15 18  1  0
 13 19  1  0
 16 20  1  0
 18 20  2  0
 11 21  1  0
 19 21  2  0
 21 22  1  0
 11 23  2  0
 14 24  2  0
 24 25  1  0
 17 26  1  0
 25 26  2  0
 17 27  1  0
 15 28  1  6
 27 28  1  0
 22 29  2  0
 29 30  1  0
 19 31  1  0
 31 24  1  1
 29 31  1  0
 27 32  1  1
 22 33  1  0
 33 34  1  0
 30 35  2  0
 33 35  2  0
M  END
$$$$
O14757_Pocket2Mol_idx-in-all-generaetd-529
     RDKit          3D

 34 40  0  0  0  0  0  0  0  0999 V2000
    4.5156    0.0550   42.9895 N   0  0  0  0  0  0  0  0  0  0  0  0
    5.0618   -0.8645   43.5295 C   0  0  0  0  0  0  0  0  0  0  0  0
    4.4350   -2.0604   43.7783 C   0  0  0  0  0  0  0  0  0  0  0  0
    4.9987   -3.0994   44.5839 C   0  0  0  0  0  0  0  0  0  0  0  0
    3.2714   -1.8664   43.0632 C   0  0  0  0  0  0  0  0  0  0  0  0
    6.4064   -0.5942   44.3204 N   0  0  0  0  0  0  0  0  0  0  0  0
    4.3422   -4.3256   44.7203 C   0  0  0  0  0  0  0  0  0  0  0  0
    2.1845   -2.6668   42.8270 N   0  0  0  0  0  0  0  0  0  0  0  0
    3.3305   -0.5395   42.5465 N   0  0  0  0  0  0  0  0  0  0  0  0
    1.9502   -3.8972   43.4076 C   0  0  0  0  0  0  0  0  0  0  0  0
    2.7156   -4.1184   44.6954 N   0  0  0  0  0  0  0  0  0  0  0  0
    6.8581   -1.5862   45.1101 C   0  0  0  0  0  0  0  0  0  0  0  0
    6.1801   -2.8430   45.2383 C   0  0  0  0  0  0  0  0  0  0  0  0
    2.1454   -5.1901   45.5771 C   0  0  0  0  0  0  0  0  0  0  0  0
    8.0137   -1.3946   45.8526 C   0  0  0  0  0  0  0  0  0  0  0  0
    0.9733   -4.5725   43.2066 O   0  0  0  0  0  0  0  0  0  0  0  0
    2.2437    0.0035   41.8733 C   0  0  0  0  0  0  0  0  0  0  0  0
    1.3210   -2.2077   41.7009 C   0  0  0  0  0  0  0  0  0  0  0  0
    8.6047   -2.2876   46.6923 C   0  0  0  0  0  0  0  0  0  0  0  0
    7.9141   -3.5157   46.8869 C   0  0  0  0  0  0  0  0  0  0  0  0
    1.0501   -0.8658   41.6612 C   0  0  0  0  0  0  0  0  0  0  0  0
    6.7278   -3.7718   46.2525 C   0  0  0  0  0  0  0  0  0  0  0  0
    9.8280   -2.0492   47.3361 C   0  0  0  0  0  0  0  0  0  0  0  0
    9.8262   -1.5735   48.5432 C   0  0  0  0  0  0  0  0  0  0  0  0
   11.0745   -2.0905   46.6735 C   0  0  0  0  0  0  0  0  0  0  0  0
    8.5798   -1.4294   49.3788 F   0  0  0  0  0  0  0  0  0  0  0  0
   12.2255   -1.7445   47.2852 C   0  0  0  0  0  0  0  0  0  0  0  0
   11.0129   -1.2913   49.2988 C   0  0  0  0  0  0  0  0  0  0  0  0
   11.0580   -2.4152   45.0953 C   0  0  0  0  0  0  0  0  0  0  0  0
   12.2034   -1.4549   48.6570 C   0  0  0  0  0  0  0  0  0  0  0  0
   13.4827   -1.8601   46.6777 C   0  0  0  0  0  0  0  0  0  0  0  0
   13.5403   -1.8928   45.2940 N   0  0  0  0  0  0  0  0  0  0  0  0
   12.3305   -2.0610   44.6134 C   0  0  0  0  0  0  0  0  0  0  0  0
    1.0415   -4.5205   46.3533 C   0  0  0  0  0  0  0  0  0  0  0  0
  1  2  2  0
  2  3  1  0
  3  4  1  0
  3  5  2  0
  2  6  1  0
  4  7  1  0
  5  8  1  0
  1  9  1  0
  5  9  1  0
  8 10  1  0
  7 11  1  0
 10 11  1  0
  6 12  2  0
  4 13  2  0
 12 13  1  0
 11 14  1  0
 12 15  1  0
 10 16  2  0
  9 17  1  0
  8 18  1  0
 15 19  2  0
 19 20  1  0
 17 21  1  0
 18 21  1  0
 13 22  1  0
 20 22  2  0
 19 23  1  0
 23 24  2  0
 23 25  1  0
 24 26  1  0
 25 27  2  0
 24 28  1  0
 25 29  1  0
 27 30  1  0
 28 30  2  0
 27 31  1  0
 31 32  2  0
 29 33  2  0
 32 33  1  0
 14 34  1  0
M  END
$$$$
O14757_Pocket2Mol_idx-in-all-generaetd-530
     RDKit          3D

 49 57  0  0  0  0  0  0  0  0999 V2000
    5.3420    0.2589   42.8836 O   0  0  0  0  0  0  0  0  0  0  0  0
    5.1627   -0.7554   43.4753 C   0  0  0  0  0  0  0  0  0  0  0  0
    4.0509   -1.4657   43.4177 N   0  0  0  0  0  0  0  0  0  0  0  0
    5.9969   -1.2317   44.6840 C   0  0  0  0  0  0  0  0  0  0  0  0
    2.9618   -1.1021   42.5918 C   0  0  1  0  0  0  0  0  0  0  0  0
    7.3392   -0.8596   44.8412 C   0  0  0  0  0  0  0  0  0  0  0  0
    1.9754   -2.0820   42.2741 C   0  0  0  0  0  0  0  0  0  0  0  0
    5.5910   -2.4282   45.3439 C   0  0  0  0  0  0  0  0  0  0  0  0
    6.5874   -2.9636   46.1581 C   0  0  0  0  0  0  0  0  0  0  0  0
    4.2763   -3.0680   45.0493 N   0  0  0  0  0  0  0  0  0  0  0  0
    3.6188   -2.5886   44.2024 C   0  0  0  0  0  0  0  0  0  0  0  0
    8.1921   -1.4071   45.7505 C   0  0  0  0  0  0  0  0  0  0  0  0
    1.0154   -1.8839   41.2980 C   0  0  0  0  0  0  0  0  0  0  0  0
    2.5720   -3.3564   43.9063 C   0  0  0  0  0  0  0  0  0  0  0  0
    0.2502   -2.8976   41.0751 C   0  0  0  0  0  0  0  0  0  0  0  0
    6.1761   -4.1775   47.0209 C   0  0  0  0  0  0  0  0  0  0  0  0
    1.7266   -3.1047   43.0115 C   0  0  2  0  0  0  0  0  0  0  0  0
    2.3696   -4.5367   44.7536 N   0  0  0  0  0  0  0  0  0  0  0  0
    1.2264   -5.2346   44.4693 C   0  0  0  0  0  0  0  0  0  0  0  0
    0.7187   -3.8955   42.5465 C   0  0  0  0  0  0  0  0  0  0  0  0
    9.4576   -0.8949   46.0327 N   0  0  0  0  0  0  0  0  0  0  0  0
    0.8625   -6.3901   45.2462 C   0  0  0  0  0  0  0  0  0  0  0  0
    7.6467   -2.5139   46.4892 C   0  0  0  0  0  0  0  0  0  0  0  0
   10.4908   -1.5336   45.8242 C   0  0  0  0  0  0  0  0  0  0  0  0
    0.3057   -4.9299   43.2909 C   0  0  0  0  0  0  0  0  0  0  0  0
   11.5916   -1.4291   46.7436 C   0  0  0  0  0  0  0  0  0  0  0  0
   10.5566   -2.3672   44.8649 O   0  0  0  0  0  0  0  0  0  0  0  0
    2.4730    0.2084   42.8389 O   0  0  0  0  0  0  0  0  0  0  0  0
   11.6027   -2.2081   47.7725 N   0  0  0  0  0  0  0  0  0  0  0  0
   12.6189   -0.5862   46.5415 C   0  0  0  0  0  0  0  0  0  0  0  0
   13.6413   -0.4484   47.4129 C   0  0  0  0  0  0  0  0  0  0  0  0
   10.4764   -3.1097   48.1134 C   0  0  0  0  0  0  0  0  0  0  0  0
    9.5762   -2.4717   49.0753 C   0  0  0  0  0  0  0  0  0  0  0  0
    9.7761   -1.2394   49.5167 C   0  0  0  0  0  0  0  0  0  0  0  0
    8.6397   -3.3252   49.7339 C   0  0  0  0  0  0  0  0  0  0  0  0
    8.9861   -0.7034   50.5819 C   0  0  0  0  0  0  0  0  0  0  0  0
   14.7137    0.5128   47.0925 C   0  0  0  0  0  0  0  0  0  0  0  0
    8.3536   -4.6815   49.2042 C   0  0  0  0  0  0  0  0  0  0  0  0
    7.9034   -2.7594   50.6763 C   0  0  0  0  0  0  0  0  0  0  0  0
    6.9327   -5.0150   49.0248 N   0  0  0  0  0  0  0  0  0  0  0  0
    8.1305   -1.4992   51.1482 C   0  0  0  0  0  0  0  0  0  0  0  0
    6.3852   -3.9495   48.3951 C   0  0  0  0  0  0  0  0  0  0  0  0
   13.6768   -1.2836   48.4696 C   0  0  0  0  0  0  0  0  0  0  0  0
   14.7714   -1.2324   49.3357 C   0  0  0  0  0  0  0  0  0  0  0  0
   14.6039    1.3613   46.0092 O   0  0  0  0  0  0  0  0  0  0  0  0
   15.6148    0.5183   47.8553 C   0  0  0  0  0  0  0  0  0  0  0  0
   12.6372   -2.2072   48.7464 C   0  0  0  0  0  0  0  0  0  0  0  0
   15.5031    1.4968   45.2865 C   0  0  0  0  0  0  0  0  0  0  0  0
   15.7188   -0.3247   49.0474 C   0  0  0  0  0  0  0  0  0  0  0  0
  1  2  2  0
  2  3  1  0
  2  4  1  0
  3  5  1  0
  4  6  2  0
  5  7  1  0
  4  8  1  0
  8  9  2  0
  8 10  1  0
  3 11  1  0
 10 11  2  0
  6 12  1  0
  7 13  2  0
 11 14  1  0
 13 15  1  0
  9 16  1  0
 17  7  1  6
 14 17  1  0
 14 18  2  0
 18 19  1  0
 15 20  2  0
 17 20  1  0
 12 21  1  0
 19 22  1  0
  9 23  1  0
 12 23  2  0
 21 24  1  0
 19 25  2  0
 20 25  1  0
 24 26  1  0
 24 27  2  0
  5 28  1  1
 26 29  1  0
 26 30  2  0
 30 31  1  0
 29 32  1  0
 32 33  1  0
 33 34  1  0
 33 35  2  0
 34 36  2  0
 31 37  2  0
 35 38  1  0
 35 39  1  0
 38 40  1  0
 36 41  1  0
 39 41  2  0
 16 42  1  0
 40 42  1  0
 31 43  1  0
 43 44  2  0
 37 45  1  0
 37 46  1  0
 29 47  1  0
 43 47  1  0
 45 48  1  0
 44 49  1  0
 46 49  2  0
M  END
$$$$
O14757_Pocket2Mol_idx-in-all-generaetd-531
     RDKit          3D

 48 55  0  0  0  0  0  0  0  0999 V2000
    5.3420    0.2589   42.8836 O   0  0  0  0  0  0  0  0  0  0  0  0
    5.1627   -0.7554   43.4753 C   0  0  0  0  0  0  0  0  0  0  0  0
    4.0509   -1.4657   43.4177 N   0  0  0  0  0  0  0  0  0  0  0  0
    5.9969   -1.2317   44.6840 C   0  0  0  0  0  0  0  0  0  0  0  0
    2.9618   -1.1021   42.5918 C   0  0  1  0  0  0  0  0  0  0  0  0
    7.3392   -0.8596   44.8412 C   0  0  0  0  0  0  0  0  0  0  0  0
    1.9754   -2.0820   42.2741 C   0  0  0  0  0  0  0  0  0  0  0  0
    5.5910   -2.4282   45.3439 C   0  0  0  0  0  0  0  0  0  0  0  0
    6.5874   -2.9636   46.1581 C   0  0  0  0  0  0  0  0  0  0  0  0
    4.2763   -3.0680   45.0493 N   0  0  0  0  0  0  0  0  0  0  0  0
    3.6188   -2.5886   44.2024 C   0  0  0  0  0  0  0  0  0  0  0  0
    8.1921   -1.4071   45.7505 C   0  0  0  0  0  0  0  0  0  0  0  0
    1.0154   -1.8839   41.2980 C   0  0  0  0  0  0  0  0  0  0  0  0
    2.5720   -3.3564   43.9063 C   0  0  0  0  0  0  0  0  0  0  0  0
    0.2502   -2.8976   41.0751 C   0  0  0  0  0  0  0  0  0  0  0  0
    6.1761   -4.1775   47.0209 C   0  0  0  0  0  0  0  0  0  0  0  0
    1.7266   -3.1047   43.0115 C   0  0  2  0  0  0  0  0  0  0  0  0
    2.3696   -4.5367   44.7536 N   0  0  0  0  0  0  0  0  0  0  0  0
    1.2264   -5.2346   44.4693 C   0  0  0  0  0  0  0  0  0  0  0  0
    0.7187   -3.8955   42.5465 C   0  0  0  0  0  0  0  0  0  0  0  0
    9.4576   -0.8949   46.0327 N   0  0  0  0  0  0  0  0  0  0  0  0
    0.8625   -6.3901   45.2462 C   0  0  0  0  0  0  0  0  0  0  0  0
    7.6467   -2.5139   46.4892 C   0  0  0  0  0  0  0  0  0  0  0  0
   10.4908   -1.5336   45.8242 C   0  0  0  0  0  0  0  0  0  0  0  0
    0.3057   -4.9299   43.2909 C   0  0  0  0  0  0  0  0  0  0  0  0
   11.5916   -1.4291   46.7436 C   0  0  0  0  0  0  0  0  0  0  0  0
   10.5566   -2.3672   44.8649 O   0  0  0  0  0  0  0  0  0  0  0  0
   12.8421   -1.9355   46.2823 C   0  0  0  0  0  0  0  0  0  0  0  0
   13.4833   -2.8582   46.9841 C   0  0  0  0  0  0  0  0  0  0  0  0
   11.4002   -1.1447   48.0540 C   0  0  0  0  0  0  0  0  0  0  0  0
   10.2867   -0.4569   48.4999 O   0  0  0  0  0  0  0  0  0  0  0  0
   12.3327   -1.4798   48.9564 C   0  0  0  0  0  0  0  0  0  0  0  0
   14.7901   -3.3162   46.6439 C   0  0  0  0  0  0  0  0  0  0  0  0
   12.1651   -1.3050   50.3239 O   0  0  0  0  0  0  0  0  0  0  0  0
   15.6765   -2.5740   46.0979 C   0  0  0  0  0  0  0  0  0  0  0  0
   13.4417   -2.4710   48.5369 C   0  0  0  0  0  0  0  0  0  0  0  0
   15.5553   -1.2853   45.8338 C   0  0  0  0  0  0  0  0  0  0  0  0
    2.4633    0.2112   42.8553 O   0  0  0  0  0  0  0  0  0  0  0  0
   15.3909   -0.8808   44.5119 C   0  0  0  0  0  0  0  0  0  0  0  0
   14.8684    0.3217   44.1996 C   0  0  0  0  0  0  0  0  0  0  0  0
   14.3830    0.6137   42.7600 C   0  0  0  0  0  0  0  0  0  0  0  0
   14.7134    1.3866   45.0637 C   0  0  0  0  0  0  0  0  0  0  0  0
   14.0665    2.6619   44.8118 C   0  0  0  0  0  0  0  0  0  0  0  0
   13.7989    2.8281   43.3634 C   0  0  0  0  0  0  0  0  0  0  0  0
   15.2908    1.1045   46.3753 C   0  0  0  0  0  0  0  0  0  0  0  0
   14.4646    2.0131   42.4225 C   0  0  0  0  0  0  0  0  0  0  0  0
   15.2103    2.0804   47.4524 O   0  0  0  0  0  0  0  0  0  0  0  0
   15.7006   -0.2027   46.7062 C   0  0  0  0  0  0  0  0  0  0  0  0
  1  2  2  0
  2  3  1  0
  2  4  1  0
  3  5  1  0
  4  6  2  0
  5  7  1  0
  4  8  1  0
  8  9  2  0
  8 10  1  0
  3 11  1  0
 10 11  2  0
  6 12  1  0
  7 13  2  0
 11 14  1  0
 13 15  1  0
  9 16  1  0
 17  7  1  6
 14 17  1  0
 14 18  2  0
 18 19  1  0
 15 20  2  0
 17 20  1  0
 12 21  1  0
 19 22  1  0
  9 23  1  0
 12 23  2  0
 21 24  1  0
 19 25  2  0
 20 25  1  0
 24 26  1  0
 24 27  2  0
 26 28  2  0
 28 29  1  0
 26 30  1  0
 30 31  1  0
 30 32  2  0
 29 33  1  0
 32 34  1  0
 33 35  2  3
 29 36  2  0
 32 36  1  0
 35 37  1  0
  5 38  1  1
 37 39  2  0
 39 40  1  0
 40 41  1  0
 40 42  2  0
 42 43  1  0
 43 44  1  0
 42 45  1  0
 41 46  1  0
 44 46  1  0
 45 47  1  0
 37 48  1  0
 45 48  2  0
M  END
$$$$
O14757_Pocket2Mol_idx-in-all-generaetd-532
     RDKit          3D

 28 33  0  0  0  0  0  0  0  0999 V2000
    5.5575   -0.4055   43.2321 N   0  0  0  0  0  0  0  0  0  0  0  0
    5.4916   -1.4617   44.0350 C   0  0  0  0  0  0  0  0  0  0  0  0
    4.3553   -0.1547   42.7099 N   0  0  0  0  0  0  0  0  0  0  0  0
    3.5224   -1.1568   42.9284 C   0  0  0  0  0  0  0  0  0  0  0  0
    2.1507   -1.3006   42.5845 C   0  0  0  0  0  0  0  0  0  0  0  0
    4.2124   -1.9924   43.9667 C   0  0  1  0  0  0  0  0  0  0  0  0
    3.6929   -3.2283   44.3876 C   0  0  0  0  0  0  0  0  0  0  0  0
    6.5651   -2.0426   44.8298 C   0  0  0  0  0  0  0  0  0  0  0  0
    7.6833   -1.2716   45.0970 C   0  0  0  0  0  0  0  0  0  0  0  0
    6.2468   -2.9038   45.8838 C   0  0  0  0  0  0  0  0  0  0  0  0
    1.4576   -2.4785   42.6650 C   0  0  1  0  0  0  0  0  0  0  0  0
    1.5384   -0.1297   42.0802 C   0  0  0  0  0  0  0  0  0  0  0  0
    2.6511   -3.8570   44.0676 C   0  0  0  0  0  0  0  0  0  0  0  0
    1.6090   -3.4980   43.1647 C   0  0  0  0  0  0  0  0  0  0  0  0
    0.6908   -4.5477   43.0875 N   0  0  0  0  0  0  0  0  0  0  0  0
    0.2168   -2.0759   41.9239 C   0  0  0  0  0  0  0  0  0  0  0  0
    7.5356   -3.1085   46.6525 C   0  0  0  0  0  0  0  0  0  0  0  0
    2.4864   -5.1883   44.6960 C   0  0  0  0  0  0  0  0  0  0  0  0
    8.4346   -1.9391   46.2039 N   0  0  0  0  0  0  0  0  0  0  0  0
    9.7431   -1.8109   46.6107 C   0  0  0  0  0  0  0  0  0  0  0  0
    0.2121   -0.5211   41.5014 C   0  0  0  0  0  0  0  0  0  0  0  0
    0.7918   -5.6770   43.8758 C   0  0  0  0  0  0  0  0  0  0  0  0
    7.7909   -3.8448   47.6035 O   0  0  0  0  0  0  0  0  0  0  0  0
   10.7232   -2.0714   45.7430 C   0  0  0  0  0  0  0  0  0  0  0  0
   12.0562   -1.9331   46.1981 C   0  0  0  0  0  0  0  0  0  0  0  0
    9.8833   -1.3737   47.9118 C   0  0  0  0  0  0  0  0  0  0  0  0
   11.2175   -1.2854   48.4877 C   0  0  0  0  0  0  0  0  0  0  0  0
   12.3143   -1.5597   47.6508 C   0  0  0  0  0  0  0  0  0  0  0  0
  1  2  2  0
  1  3  1  0
  3  4  2  0
  4  5  1  0
  2  6  1  0
  4  6  1  0
  6  7  1  6
  2  8  1  0
  8  9  1  0
  8 10  2  0
  5 11  1  0
  5 12  2  0
  7 13  2  0
 11 14  1  0
 13 14  1  0
 14 15  2  0
 11 16  1  1
 10 17  1  0
 13 18  1  0
  9 19  1  0
 17 19  1  0
 19 20  1  0
 12 21  1  0
 16 21  2  0
 15 22  1  0
 18 22  2  0
 17 23  2  0
 20 24  2  0
 24 25  1  0
 20 26  1  0
 26 27  2  0
 25 28  2  0
 27 28  1  0
M  END
$$$$
O14757_Pocket2Mol_idx-in-all-generaetd-533
     RDKit          3D

 48 57  0  0  0  0  0  0  0  0999 V2000
    1.5482   -0.3111   41.9233 C   0  0  0  0  0  0  0  0  0  0  0  0
    2.7284    0.2018   42.1525 N   0  0  0  0  0  0  0  0  0  0  0  0
    3.7893   -0.3016   42.7005 C   0  0  0  0  0  0  0  0  0  0  0  0
    3.3781   -1.7350   43.0000 C   0  0  0  0  0  0  0  0  0  0  0  0
    2.0339   -1.9619   42.6217 C   0  0  0  0  0  0  0  0  0  0  0  0
    5.0090    0.1219   42.9340 N   0  0  0  0  0  0  0  0  0  0  0  0
    4.2895   -2.4979   43.6707 C   0  0  0  0  0  0  0  0  0  0  0  0
    5.8391   -0.6675   43.6343 C   0  0  0  0  0  0  0  0  0  0  0  0
    6.9849   -0.2377   44.0028 N   0  0  0  0  0  0  0  0  0  0  0  0
    4.0426   -3.8794   44.0832 C   0  0  0  0  0  0  0  0  0  0  0  0
    7.6796   -0.8734   44.9326 C   0  0  0  0  0  0  0  0  0  0  0  0
    1.1064   -2.9576   42.4211 C   0  0  0  0  0  0  0  0  0  0  0  0
    5.5298   -1.9496   44.0315 C   0  0  0  0  0  0  0  0  0  0  0  0
    3.8954   -4.1817   45.4718 C   0  0  0  0  0  0  0  0  0  0  0  0
    0.6765   -3.5480   43.4006 C   0  0  1  0  0  0  0  0  0  0  0  0
    0.5804   -3.2191   41.1635 C   0  0  0  0  0  0  0  0  0  0  0  0
    2.8083   -4.8227   45.9203 N   0  0  0  0  0  0  0  0  0  0  0  0
   -0.1574   -4.5754   42.9329 N   0  0  0  0  0  0  0  0  0  0  0  0
    6.5271   -2.5531   44.9677 C   0  0  0  0  0  0  0  0  0  0  0  0
   -0.2272   -4.3703   41.5137 C   0  0  0  0  0  0  0  0  0  0  0  0
    7.5095   -2.0029   45.3993 C   0  0  0  0  0  0  0  0  0  0  0  0
    8.2550   -2.6982   46.3988 C   0  0  0  0  0  0  0  0  0  0  0  0
    8.8975   -0.3029   45.3267 O   0  0  0  0  0  0  0  0  0  0  0  0
    4.8299   -4.4637   46.4212 C   0  0  0  0  0  0  0  0  0  0  0  0
    4.2707   -4.9248   47.6295 N   0  0  0  0  0  0  0  0  0  0  0  0
    3.2045   -5.2092   47.1521 C   0  0  0  0  0  0  0  0  0  0  0  0
    1.4482   -4.6186   45.4134 C   0  0  2  0  0  0  0  0  0  0  0  0
    1.2398   -3.5043   44.6236 O   0  0  0  0  0  0  0  0  0  0  0  0
    6.3317   -3.9297   46.0870 C   0  0  2  0  0  0  0  0  0  0  0  0
    9.5296   -2.5449   46.9776 C   0  0  0  0  0  0  0  0  0  0  0  0
    9.7921   -1.7530   47.9018 O   0  0  0  0  0  0  0  0  0  0  0  0
    7.3972   -3.8130   46.7939 C   0  0  0  0  0  0  0  0  0  0  0  0
   10.4154   -3.4217   46.6883 O   0  0  0  0  0  0  0  0  0  0  0  0
    0.5555   -4.7535   46.5674 C   0  0  0  0  0  0  0  0  0  0  0  0
   11.6497   -3.0596   47.0439 C   0  0  0  0  0  0  0  0  0  0  0  0
   12.3878   -4.1125   47.6990 C   0  0  1  0  0  0  0  0  0  0  0  0
   11.8800   -5.2760   47.5659 O   0  0  0  0  0  0  0  0  0  0  0  0
   12.1402   -1.9273   46.5416 C   0  0  0  0  0  0  0  0  0  0  0  0
   13.7566   -3.9428   47.4635 C   0  0  0  0  0  0  0  0  0  0  0  0
   11.3924   -5.9178   48.7514 C   0  0  0  0  0  0  0  0  0  0  0  0
   14.4126   -2.7430   47.0678 C   0  0  0  0  0  0  0  0  0  0  0  0
   13.4817   -1.7494   46.5455 C   0  0  0  0  0  0  0  0  0  0  0  0
   15.7358   -2.5357   47.0594 C   0  0  1  0  0  0  0  0  0  0  0  0
   14.1460   -0.8459   45.7964 C   0  0  0  0  0  0  0  0  0  0  0  0
   16.5904   -3.5170   47.6347 O   0  0  0  0  0  0  0  0  0  0  0  0
   13.2490    0.2931   45.1774 O   0  0  0  0  0  0  0  0  0  0  0  0
   15.4827   -0.4630   45.7844 C   0  0  0  0  0  0  0  0  0  0  0  0
   16.3036   -1.4244   46.3943 C   0  0  0  0  0  0  0  0  0  0  0  0
  1  2  1  0
  2  3  2  0
  3  4  1  0
  1  5  2  0
  4  5  1  0
  3  6  1  0
  4  7  2  0
  6  8  1  0
  8  9  1  0
  7 10  1  0
  9 11  1  0
  5 12  1  0
  7 13  1  0
  8 13  2  0
 10 14  1  0
 12 15  1  0
 12 16  2  0
 14 17  1  0
 15 18  1  0
 13 19  1  0
 16 20  1  0
 18 20  2  0
 11 21  1  0
 19 21  2  0
 21 22  1  0
 11 23  2  0
 14 24  2  0
 24 25  1  0
 17 26  1  0
 25 26  2  0
 17 27  1  0
 15 28  1  6
 27 28  1  0
 19 29  1  0
 24 29  1  0
 22 30  1  0
 30 31  2  0
 22 32  2  0
 29 32  1  1
 30 33  1  0
 27 34  1  1
 33 35  1  0
 35 36  1  0
 36 37  1  6
 35 38  2  0
 36 39  1  0
 37 40  1  0
 39 41  2  0
 38 42  1  0
 41 42  1  0
 41 43  1  0
 42 44  2  0
 43 45  1  6
 44 46  1  0
 44 47  1  0
 43 48  1  0
 47 48  1  0
M  END
$$$$
O14757_Pocket2Mol_idx-in-all-generaetd-534
     RDKit          3D

 47 56  0  0  0  0  0  0  0  0999 V2000
    1.5482   -0.3111   41.9233 C   0  0  0  0  0  0  0  0  0  0  0  0
    2.7284    0.2018   42.1525 N   0  0  0  0  0  0  0  0  0  0  0  0
    3.7893   -0.3016   42.7005 C   0  0  0  0  0  0  0  0  0  0  0  0
    3.3781   -1.7350   43.0000 C   0  0  0  0  0  0  0  0  0  0  0  0
    2.0339   -1.9619   42.6217 C   0  0  0  0  0  0  0  0  0  0  0  0
    5.0090    0.1219   42.9340 N   0  0  0  0  0  0  0  0  0  0  0  0
    4.2895   -2.4979   43.6707 C   0  0  0  0  0  0  0  0  0  0  0  0
    5.8391   -0.6675   43.6343 C   0  0  0  0  0  0  0  0  0  0  0  0
    6.9849   -0.2377   44.0028 N   0  0  0  0  0  0  0  0  0  0  0  0
    4.0426   -3.8794   44.0832 C   0  0  0  0  0  0  0  0  0  0  0  0
    7.6796   -0.8734   44.9326 C   0  0  0  0  0  0  0  0  0  0  0  0
    1.1064   -2.9576   42.4211 C   0  0  0  0  0  0  0  0  0  0  0  0
    5.5298   -1.9496   44.0315 C   0  0  0  0  0  0  0  0  0  0  0  0
    3.8954   -4.1817   45.4718 C   0  0  0  0  0  0  0  0  0  0  0  0
    0.6765   -3.5480   43.4006 C   0  0  1  0  0  0  0  0  0  0  0  0
    0.5804   -3.2191   41.1635 C   0  0  0  0  0  0  0  0  0  0  0  0
    2.8083   -4.8227   45.9203 N   0  0  0  0  0  0  0  0  0  0  0  0
   -0.1574   -4.5754   42.9329 N   0  0  0  0  0  0  0  0  0  0  0  0
    6.5271   -2.5531   44.9677 C   0  0  0  0  0  0  0  0  0  0  0  0
   -0.2272   -4.3703   41.5137 C   0  0  0  0  0  0  0  0  0  0  0  0
    7.5095   -2.0029   45.3993 C   0  0  0  0  0  0  0  0  0  0  0  0
    8.2550   -2.6982   46.3988 C   0  0  1  0  0  0  0  0  0  0  0  0
    8.8975   -0.3029   45.3267 O   0  0  0  0  0  0  0  0  0  0  0  0
    4.8299   -4.4637   46.4212 C   0  0  0  0  0  0  0  0  0  0  0  0
    4.2707   -4.9248   47.6295 N   0  0  0  0  0  0  0  0  0  0  0  0
    3.2045   -5.2092   47.1521 C   0  0  0  0  0  0  0  0  0  0  0  0
    1.4482   -4.6186   45.4134 C   0  0  0  0  0  0  0  0  0  0  0  0
    1.3256   -3.7660   44.6394 N   0  0  0  0  0  0  0  0  0  0  0  0
    9.2816   -2.1418   47.1273 N   0  0  0  0  0  0  0  0  0  0  0  0
   10.0629   -3.1324   47.8508 C   0  0  0  0  0  0  0  0  0  0  0  0
    6.3491   -3.8960   46.0844 C   0  0  2  0  0  0  0  0  0  0  0  0
    7.4349   -3.5889   46.9054 C   0  0  0  0  0  0  0  0  0  0  0  0
   10.3145   -2.7271   49.0818 O   0  0  0  0  0  0  0  0  0  0  0  0
    0.6213   -5.4445   45.7455 O   0  0  0  0  0  0  0  0  0  0  0  0
   11.0262   -3.8136   47.1050 C   0  0  0  0  0  0  0  0  0  0  0  0
   12.1704   -3.3854   46.7547 C   0  0  0  0  0  0  0  0  0  0  0  0
   13.1080   -4.1111   46.0053 C   0  0  0  0  0  0  0  0  0  0  0  0
   14.3489   -3.5966   45.7888 C   0  0  0  0  0  0  0  0  0  0  0  0
   12.7430   -5.2725   45.5056 C   0  0  0  0  0  0  0  0  0  0  0  0
   14.6935   -2.2816   45.3353 C   0  0  0  0  0  0  0  0  0  0  0  0
   10.5583   -5.1175   46.7236 C   0  0  0  0  0  0  0  0  0  0  0  0
   15.8430   -1.9507   45.0515 C   0  0  0  0  0  0  0  0  0  0  0  0
   11.4646   -5.8285   45.8737 C   0  0  0  0  0  0  0  0  0  0  0  0
   16.1863   -0.5663   44.5680 C   0  0  0  0  0  0  0  0  0  0  0  0
   15.0453    0.2149   44.4296 C   0  0  0  0  0  0  0  0  0  0  0  0
   13.5400   -1.2998   45.3448 C   0  0  0  0  0  0  0  0  0  0  0  0
   13.7707   -0.1194   44.8547 C   0  0  0  0  0  0  0  0  0  0  0  0
  1  2  1  0
  2  3  2  0
  3  4  1  0
  1  5  2  0
  4  5  1  0
  3  6  1  0
  4  7  2  0
  6  8  1  0
  8  9  1  0
  7 10  1  0
  9 11  1  0
  5 12  1  0
  7 13  1  0
  8 13  2  0
 10 14  1  0
 12 15  1  0
 12 16  2  0
 14 17  1  0
 15 18  1  0
 13 19  1  0
 16 20  1  0
 18 20  2  0
 11 21  1  0
 19 21  2  0
 21 22  1  0
 11 23  2  0
 14 24  2  0
 24 25  1  0
 17 26  1  0
 25 26  2  0
 17 27  1  0
 15 28  1  6
 27 28  1  0
 22 29  1  1
 29 30  1  0
 19 31  1  0
 24 31  1  0
 22 32  1  0
 31 32  1  1
 30 33  2  0
 27 34  2  0
 30 35  1  0
 35 36  2  0
 36 37  1  0
 37 38  1  0
 37 39  2  0
 38 40  1  0
 35 41  1  0
 40 42  2  0
 39 43  1  0
 41 43  2  0
 42 44  1  0
 44 45  2  0
 40 46  1  0
 45 47  1  0
 46 47  2  0
M  END
$$$$
O14757_Pocket2Mol_idx-in-all-generaetd-535
     RDKit          3D

 29 32  0  0  0  0  0  0  0  0999 V2000
    5.5575   -0.4055   43.2321 N   0  0  0  0  0  0  0  0  0  0  0  0
    4.5233    0.0727   42.5988 N   0  0  0  0  0  0  0  0  0  0  0  0
    5.1726   -1.5114   43.9314 C   0  0  0  0  0  0  0  0  0  0  0  0
    5.9080   -2.2268   44.9217 C   0  0  0  0  0  0  0  0  0  0  0  0
    5.3635   -3.3861   45.5121 C   0  0  0  0  0  0  0  0  0  0  0  0
    7.1791   -1.7734   45.4544 C   0  0  0  0  0  0  0  0  0  0  0  0
    3.4069   -0.5377   42.5980 C   0  0  0  0  0  0  0  0  0  0  0  0
    2.1839   -0.4257   41.9942 C   0  0  0  0  0  0  0  0  0  0  0  0
    3.7449   -1.7453   43.5024 C   0  0  0  0  0  0  0  0  0  0  0  0
    7.8525   -0.6503   45.0420 O   0  0  0  0  0  0  0  0  0  0  0  0
    7.8789   -2.5576   46.3941 C   0  0  0  0  0  0  0  0  0  0  0  0
    2.8045   -2.7414   43.6928 C   0  0  0  0  0  0  0  0  0  0  0  0
    9.2115   -2.0969   46.8642 C   0  0  0  0  0  0  0  0  0  0  0  0
    4.0793   -3.8977   45.1232 C   0  0  0  0  0  0  0  0  0  0  0  0
    9.4064   -1.6424   47.9232 O   0  0  0  0  0  0  0  0  0  0  0  0
    3.1160   -3.7348   44.5196 N   0  0  0  0  0  0  0  0  0  0  0  0
   10.2271   -2.0181   45.9902 O   0  0  0  0  0  0  0  0  0  0  0  0
    1.5846   -2.6820   43.0143 C   0  0  0  0  0  0  0  0  0  0  0  0
   11.4761   -2.1798   46.4472 C   0  0  0  0  0  0  0  0  0  0  0  0
    7.2409   -3.6513   46.9381 C   0  0  0  0  0  0  0  0  0  0  0  0
    1.2492   -1.5070   42.1695 C   0  0  0  0  0  0  0  0  0  0  0  0
    0.5019   -3.7675   43.1967 C   0  0  0  0  0  0  0  0  0  0  0  0
    6.0495   -4.1366   46.6035 C   0  0  0  0  0  0  0  0  0  0  0  0
   -0.0338   -4.1944   42.0509 O   0  0  0  0  0  0  0  0  0  0  0  0
    0.1450   -4.1044   44.2749 O   0  0  0  0  0  0  0  0  0  0  0  0
   11.8524   -3.4462   46.5303 C   0  0  0  0  0  0  0  0  0  0  0  0
   12.9040   -3.8286   47.1036 O   0  0  0  0  0  0  0  0  0  0  0  0
   11.2231   -4.3484   45.7421 O   0  0  0  0  0  0  0  0  0  0  0  0
   10.8824   -5.5974   46.3460 C   0  0  0  0  0  0  0  0  0  0  0  0
  1  2  2  0
  1  3  1  0
  3  4  1  0
  4  5  2  0
  4  6  1  0
  2  7  1  0
  7  8  2  0
  3  9  2  0
  7  9  1  0
  6 10  1  0
  6 11  2  0
  9 12  1  0
 11 13  1  0
  5 14  1  0
 13 15  2  0
 12 16  1  0
 14 16  2  0
 13 17  1  0
 12 18  1  0
 17 19  1  0
 11 20  1  0
  8 21  1  0
 18 21  2  0
 18 22  1  0
  5 23  1  0
 20 23  2  0
 22 24  2  0
 22 25  1  0
 19 26  1  0
 26 27  2  0
 26 28  1  0
 28 29  1  0
M  END
$$$$
O14757_Pocket2Mol_idx-in-all-generaetd-536
     RDKit          3D

 43 51  0  0  0  0  0  0  0  0999 V2000
    1.5482   -0.3111   41.9233 C   0  0  0  0  0  0  0  0  0  0  0  0
    2.7284    0.2018   42.1525 N   0  0  0  0  0  0  0  0  0  0  0  0
    3.7893   -0.3016   42.7005 C   0  0  0  0  0  0  0  0  0  0  0  0
    3.3781   -1.7350   43.0000 C   0  0  0  0  0  0  0  0  0  0  0  0
    2.0339   -1.9619   42.6217 C   0  0  0  0  0  0  0  0  0  0  0  0
    5.0090    0.1219   42.9340 N   0  0  0  0  0  0  0  0  0  0  0  0
    4.2895   -2.4979   43.6707 C   0  0  0  0  0  0  0  0  0  0  0  0
    5.8391   -0.6675   43.6343 C   0  0  0  0  0  0  0  0  0  0  0  0
    6.9849   -0.2377   44.0028 N   0  0  0  0  0  0  0  0  0  0  0  0
    4.0426   -3.8794   44.0832 C   0  0  0  0  0  0  0  0  0  0  0  0
    7.6796   -0.8734   44.9326 C   0  0  0  0  0  0  0  0  0  0  0  0
    1.1064   -2.9576   42.4211 C   0  0  0  0  0  0  0  0  0  0  0  0
    5.5298   -1.9496   44.0315 C   0  0  0  0  0  0  0  0  0  0  0  0
    3.8954   -4.1817   45.4718 C   0  0  0  0  0  0  0  0  0  0  0  0
    0.6765   -3.5480   43.4006 C   0  0  1  0  0  0  0  0  0  0  0  0
    0.5804   -3.2191   41.1635 C   0  0  0  0  0  0  0  0  0  0  0  0
    2.8083   -4.8227   45.9203 N   0  0  0  0  0  0  0  0  0  0  0  0
   -0.1574   -4.5754   42.9329 N   0  0  0  0  0  0  0  0  0  0  0  0
    6.5271   -2.5531   44.9677 C   0  0  0  0  0  0  0  0  0  0  0  0
   -0.2272   -4.3703   41.5137 C   0  0  0  0  0  0  0  0  0  0  0  0
    7.5095   -2.0029   45.3993 C   0  0  0  0  0  0  0  0  0  0  0  0
    8.2550   -2.6982   46.3988 C   0  0  2  0  0  0  0  0  0  0  0  0
    8.8975   -0.3029   45.3267 O   0  0  0  0  0  0  0  0  0  0  0  0
    4.8299   -4.4637   46.4212 C   0  0  0  0  0  0  0  0  0  0  0  0
    4.2707   -4.9248   47.6295 N   0  0  0  0  0  0  0  0  0  0  0  0
    3.2045   -5.2092   47.1521 C   0  0  0  0  0  0  0  0  0  0  0  0
    1.4482   -4.6186   45.4134 C   0  0  2  0  0  0  0  0  0  0  0  0
    1.2398   -3.5043   44.6236 O   0  0  0  0  0  0  0  0  0  0  0  0
    6.3317   -3.9297   46.0870 C   0  0  2  0  0  0  0  0  0  0  0  0
    9.5296   -2.5449   46.9776 C   0  0  0  0  0  0  0  0  0  0  0  0
    9.7921   -1.7530   47.9018 O   0  0  0  0  0  0  0  0  0  0  0  0
    7.4454   -3.8344   46.8035 C   0  0  0  0  0  0  0  0  0  0  0  0
   10.5010   -3.0847   46.3190 O   0  0  0  0  0  0  0  0  0  0  0  0
    0.5569   -4.7693   46.5649 C   0  0  0  0  0  0  0  0  0  0  0  0
   11.7452   -2.8462   46.6234 C   0  0  1  0  0  0  0  0  0  0  0  0
   12.4186   -3.8680   47.1468 C   0  0  1  0  0  0  0  0  0  0  0  0
   11.9026   -5.0270   47.0501 O   0  0  0  0  0  0  0  0  0  0  0  0
   12.4007   -2.3595   45.2496 C   0  0  0  0  0  0  0  0  0  0  0  0
   11.9866   -5.9663   48.0884 C   0  0  0  0  0  0  0  0  0  0  0  0
   13.8038   -3.9309   46.8282 O   0  0  0  0  0  0  0  0  0  0  0  0
   14.4962   -2.6699   46.5519 C   0  0  1  0  0  0  0  0  0  0  0  0
   15.8681   -2.8090   46.4758 C   0  0  0  0  0  0  0  0  0  0  0  0
   13.8393   -2.1823   45.2611 C   0  0  0  0  0  0  0  0  0  0  0  0
  1  2  1  0
  2  3  2  0
  3  4  1  0
  1  5  2  0
  4  5  1  0
  3  6  1  0
  4  7  2  0
  6  8  1  0
  8  9  1  0
  7 10  1  0
  9 11  1  0
  5 12  1  0
  7 13  1  0
  8 13  2  0
 10 14  1  0
 12 15  1  0
 12 16  2  0
 14 17  1  0
 15 18  1  0
 13 19  1  0
 16 20  1  0
 18 20  2  0
 11 21  1  0
 19 21  2  0
 21 22  1  0
 11 23  2  0
 14 24  2  0
 24 25  1  0
 17 26  1  0
 25 26  2  0
 17 27  1  0
 15 28  1  6
 27 28  1  0
 19 29  1  0
 24 29  1  0
 22 30  1  6
 30 31  2  0
 22 32  1  0
 29 32  1  1
 30 33  1  0
 27 34  1  1
 35 33  1  6
 35 36  1  0
 36 37  1  6
 35 38  1  0
 37 39  1  0
 36 40  1  0
 40 41  1  0
 41 42  1  6
 38 43  1  0
 41 43  1  0
M  END
$$$$
O14757_Pocket2Mol_idx-in-all-generaetd-537
     RDKit          3D

 29 34  0  0  0  0  0  0  0  0999 V2000
    4.5156    0.0550   42.9895 N   0  0  0  0  0  0  0  0  0  0  0  0
    5.0618   -0.8645   43.5295 C   0  0  0  0  0  0  0  0  0  0  0  0
    4.4350   -2.0604   43.7783 C   0  0  0  0  0  0  0  0  0  0  0  0
    4.9987   -3.0994   44.5839 C   0  0  0  0  0  0  0  0  0  0  0  0
    3.2714   -1.8664   43.0632 C   0  0  0  0  0  0  0  0  0  0  0  0
    6.4064   -0.5942   44.3204 N   0  0  0  0  0  0  0  0  0  0  0  0
    4.3422   -4.3256   44.7203 C   0  0  0  0  0  0  0  0  0  0  0  0
    2.1845   -2.6668   42.8270 N   0  0  0  0  0  0  0  0  0  0  0  0
    3.3305   -0.5395   42.5465 N   0  0  0  0  0  0  0  0  0  0  0  0
    1.9502   -3.8972   43.4076 C   0  0  0  0  0  0  0  0  0  0  0  0
    2.7156   -4.1184   44.6954 N   0  0  0  0  0  0  0  0  0  0  0  0
    6.8581   -1.5862   45.1101 C   0  0  0  0  0  0  0  0  0  0  0  0
    6.1801   -2.8430   45.2383 C   0  0  0  0  0  0  0  0  0  0  0  0
    2.1454   -5.1901   45.5771 C   0  0  0  0  0  0  0  0  0  0  0  0
    8.0137   -1.3946   45.8526 C   0  0  0  0  0  0  0  0  0  0  0  0
    0.9733   -4.5725   43.2066 O   0  0  0  0  0  0  0  0  0  0  0  0
    2.2437    0.0035   41.8733 C   0  0  0  0  0  0  0  0  0  0  0  0
    1.3210   -2.2077   41.7009 C   0  0  0  0  0  0  0  0  0  0  0  0
    8.6047   -2.2876   46.6923 C   0  0  0  0  0  0  0  0  0  0  0  0
    7.9141   -3.5157   46.8869 C   0  0  0  0  0  0  0  0  0  0  0  0
    1.0501   -0.8658   41.6612 C   0  0  0  0  0  0  0  0  0  0  0  0
    6.7473   -3.8283   46.2372 C   0  0  0  0  0  0  0  0  0  0  0  0
    1.0568   -4.5170   46.3522 C   0  0  0  0  0  0  0  0  0  0  0  0
    9.8008   -2.0643   47.3760 C   0  0  0  0  0  0  0  0  0  0  0  0
   10.9776   -2.0111   46.7028 N   0  0  0  0  0  0  0  0  0  0  0  0
   12.1432   -1.7842   47.1175 C   0  0  0  0  0  0  0  0  0  0  0  0
   10.8292   -1.7400   45.2065 C   0  0  0  0  0  0  0  0  0  0  0  0
   12.2619   -2.2715   44.7784 C   0  0  0  0  0  0  0  0  0  0  0  0
   12.9743   -2.4318   45.9917 C   0  0  0  0  0  0  0  0  0  0  0  0
  1  2  2  0
  2  3  1  0
  3  4  1  0
  3  5  2  0
  2  6  1  0
  4  7  1  0
  5  8  1  0
  1  9  1  0
  5  9  1  0
  8 10  1  0
  7 11  1  0
 10 11  1  0
  6 12  2  0
  4 13  2  0
 12 13  1  0
 11 14  1  0
 12 15  1  0
 10 16  2  0
  9 17  1  0
  8 18  1  0
 15 19  2  0
 19 20  1  0
 17 21  1  0
 18 21  1  0
 13 22  1  0
 20 22  2  0
 14 23  1  0
 19 24  1  0
 24 25  1  0
 25 26  1  0
 25 27  1  0
 27 28  1  0
 26 29  1  0
 28 29  1  0
M  END
$$$$
O14757_Pocket2Mol_idx-in-all-generaetd-538
     RDKit          3D

 34 38  0  0  0  0  0  0  0  0999 V2000
    2.2688    0.3052   42.1942 N   0  0  0  0  0  0  0  0  0  0  0  0
    1.5681   -0.5985   42.0391 C   0  0  0  0  0  0  0  0  0  0  0  0
    0.2713   -0.6749   41.4483 C   0  0  0  0  0  0  0  0  0  0  0  0
    3.6365    0.2703   42.6880 C   0  0  0  0  0  0  0  0  0  0  0  0
    3.8321   -1.1348   42.9762 C   0  0  0  0  0  0  0  0  0  0  0  0
    2.8260   -2.0201   42.8203 C   0  0  0  0  0  0  0  0  0  0  0  0
    1.7444   -1.8415   42.3318 N   0  0  0  0  0  0  0  0  0  0  0  0
    3.2538   -3.3101   43.4270 N   0  0  0  0  0  0  0  0  0  0  0  0
    2.4413   -4.3420   43.6264 C   0  0  0  0  0  0  0  0  0  0  0  0
    4.5709   -3.0849   43.9583 C   0  0  0  0  0  0  0  0  0  0  0  0
    4.9539   -1.7198   43.6718 C   0  0  0  0  0  0  0  0  0  0  0  0
    1.7950   -4.3815   44.9098 C   0  0  0  0  0  0  0  0  0  0  0  0
    6.2203   -1.1385   44.0326 C   0  0  0  0  0  0  0  0  0  0  0  0
    2.4006   -4.9997   45.9013 O   0  0  0  0  0  0  0  0  0  0  0  0
    6.9025   -1.6501   45.0796 C   0  0  0  0  0  0  0  0  0  0  0  0
    5.4101   -3.6941   45.0229 C   0  0  0  0  0  0  0  0  0  0  0  0
    5.0219   -4.9002   45.5161 O   0  0  0  0  0  0  0  0  0  0  0  0
    6.6083   -3.0238   45.5442 C   0  0  0  0  0  0  0  0  0  0  0  0
    7.4531   -3.6409   46.5606 C   0  0  0  0  0  0  0  0  0  0  0  0
    8.0146   -0.9691   45.5874 C   0  0  0  0  0  0  0  0  0  0  0  0
    7.1412   -4.8399   47.0721 O   0  0  0  0  0  0  0  0  0  0  0  0
    8.5485   -2.8812   47.0742 C   0  0  0  0  0  0  0  0  0  0  0  0
    9.3616   -3.5571   48.1369 C   0  0  0  0  0  0  0  0  0  0  0  0
    8.8032   -1.5552   46.6208 C   0  0  0  0  0  0  0  0  0  0  0  0
    9.2256   -3.1439   49.3560 O   0  0  0  0  0  0  0  0  0  0  0  0
   10.2084   -4.4536   47.7782 O   0  0  0  0  0  0  0  0  0  0  0  0
   11.3089   -4.0551   47.0923 C   0  0  0  0  0  0  0  0  0  0  0  0
   12.4348   -3.9266   47.8990 C   0  0  0  0  0  0  0  0  0  0  0  0
   13.6088   -3.3770   47.3003 C   0  0  0  0  0  0  0  0  0  0  0  0
   11.3319   -4.2954   45.7907 C   0  0  0  0  0  0  0  0  0  0  0  0
   14.7562   -2.9496   48.0619 O   0  0  0  0  0  0  0  0  0  0  0  0
   14.8313   -2.0011   48.8208 C   0  0  0  0  0  0  0  0  0  0  0  0
   12.5426   -3.8640   45.1483 C   0  0  0  0  0  0  0  0  0  0  0  0
   13.7788   -3.4106   45.8628 C   0  0  0  0  0  0  0  0  0  0  0  0
  1  2  2  0
  2  3  1  0
  1  4  1  0
  4  5  1  0
  5  6  2  0
  2  7  1  0
  6  7  1  0
  6  8  1  0
  8  9  1  0
  8 10  1  0
  5 11  1  0
 10 11  2  0
  9 12  1  0
 11 13  1  0
 12 14  1  0
 13 15  2  0
 10 16  1  0
 16 17  1  0
 15 18  1  0
 16 18  2  0
 18 19  1  0
 15 20  1  0
 19 21  1  0
 19 22  2  0
 22 23  1  0
 20 24  2  0
 22 24  1  0
 23 25  2  0
 23 26  1  0
 26 27  1  0
 27 28  2  0
 28 29  1  0
 27 30  1  0
 29 31  1  0
 31 32  1  0
 30 33  2  0
 29 34  2  0
 33 34  1  0
M  END
$$$$
O14757_Pocket2Mol_idx-in-all-generaetd-539
     RDKit          3D

 33 38  0  0  0  0  0  0  0  0999 V2000
    4.5156    0.0550   42.9895 N   0  0  0  0  0  0  0  0  0  0  0  0
    5.0618   -0.8645   43.5295 C   0  0  0  0  0  0  0  0  0  0  0  0
    4.4350   -2.0604   43.7783 C   0  0  0  0  0  0  0  0  0  0  0  0
    4.9987   -3.0994   44.5839 C   0  0  0  0  0  0  0  0  0  0  0  0
    3.2714   -1.8664   43.0632 C   0  0  0  0  0  0  0  0  0  0  0  0
    6.4064   -0.5942   44.3204 N   0  0  0  0  0  0  0  0  0  0  0  0
    4.3422   -4.3256   44.7203 C   0  0  0  0  0  0  0  0  0  0  0  0
    2.1845   -2.6668   42.8270 N   0  0  0  0  0  0  0  0  0  0  0  0
    3.3305   -0.5395   42.5465 N   0  0  0  0  0  0  0  0  0  0  0  0
    1.9502   -3.8972   43.4076 C   0  0  0  0  0  0  0  0  0  0  0  0
    2.7156   -4.1184   44.6954 N   0  0  0  0  0  0  0  0  0  0  0  0
    6.8581   -1.5862   45.1101 C   0  0  0  0  0  0  0  0  0  0  0  0
    6.1801   -2.8430   45.2383 C   0  0  0  0  0  0  0  0  0  0  0  0
    2.1454   -5.1901   45.5771 C   0  0  0  0  0  0  0  0  0  0  0  0
    8.0137   -1.3946   45.8526 C   0  0  0  0  0  0  0  0  0  0  0  0
    0.9733   -4.5725   43.2066 O   0  0  0  0  0  0  0  0  0  0  0  0
    2.2437    0.0035   41.8733 C   0  0  0  0  0  0  0  0  0  0  0  0
    1.3210   -2.2077   41.7009 C   0  0  0  0  0  0  0  0  0  0  0  0
    8.6047   -2.2876   46.6923 C   0  0  0  0  0  0  0  0  0  0  0  0
    7.9141   -3.5157   46.8869 C   0  0  0  0  0  0  0  0  0  0  0  0
    1.0501   -0.8658   41.6612 C   0  0  0  0  0  0  0  0  0  0  0  0
    6.7278   -3.7718   46.2525 C   0  0  0  0  0  0  0  0  0  0  0  0
    9.8280   -2.0492   47.3361 C   0  0  0  0  0  0  0  0  0  0  0  0
    9.8262   -1.5735   48.5432 C   0  0  0  0  0  0  0  0  0  0  0  0
   11.0745   -2.0905   46.6735 C   0  0  0  0  0  0  0  0  0  0  0  0
   11.1189   -2.5101   45.2315 C   0  0  0  0  0  0  0  0  0  0  0  0
   12.2489   -1.7755   47.2629 C   0  0  0  0  0  0  0  0  0  0  0  0
   11.2018   -3.6539   44.9133 O   0  0  0  0  0  0  0  0  0  0  0  0
    8.6514   -1.4344   49.3511 O   0  0  0  0  0  0  0  0  0  0  0  0
   13.4748   -1.9213   46.5455 O   0  0  0  0  0  0  0  0  0  0  0  0
   12.2982   -1.6446   48.4789 C   0  0  0  0  0  0  0  0  0  0  0  0
   10.8478   -1.5946   44.3346 O   0  0  0  0  0  0  0  0  0  0  0  0
   11.0858   -1.4319   49.3651 C   0  0  0  0  0  0  0  0  0  0  0  0
  1  2  2  0
  2  3  1  0
  3  4  1  0
  3  5  2  0
  2  6  1  0
  4  7  1  0
  5  8  1  0
  1  9  1  0
  5  9  1  0
  8 10  1  0
  7 11  1  0
 10 11  1  0
  6 12  2  0
  4 13  2  0
 12 13  1  0
 11 14  1  0
 12 15  1  0
 10 16  2  0
  9 17  1  0
  8 18  1  0
 15 19  2  0
 19 20  1  0
 17 21  1  0
 18 21  1  0
 13 22  1  0
 20 22  2  0
 19 23  1  0
 23 24  2  0
 23 25  1  0
 25 26  1  0
 25 27  2  0
 26 28  1  0
 24 29  1  0
 27 30  1  0
 27 31  1  0
 26 32  2  0
 24 33  1  0
 31 33  2  0
M  END
$$$$
O14757_Pocket2Mol_idx-in-all-generaetd-540
     RDKit          3D

 38 43  0  0  0  0  0  0  0  0999 V2000
    4.5156    0.0550   42.9895 N   0  0  0  0  0  0  0  0  0  0  0  0
    5.0618   -0.8645   43.5295 C   0  0  0  0  0  0  0  0  0  0  0  0
    4.4350   -2.0604   43.7783 C   0  0  0  0  0  0  0  0  0  0  0  0
    4.9987   -3.0994   44.5839 C   0  0  0  0  0  0  0  0  0  0  0  0
    3.2714   -1.8664   43.0632 C   0  0  0  0  0  0  0  0  0  0  0  0
    6.4064   -0.5942   44.3204 N   0  0  0  0  0  0  0  0  0  0  0  0
    4.3422   -4.3256   44.7203 C   0  0  0  0  0  0  0  0  0  0  0  0
    2.1845   -2.6668   42.8270 N   0  0  0  0  0  0  0  0  0  0  0  0
    3.3305   -0.5395   42.5465 N   0  0  0  0  0  0  0  0  0  0  0  0
    1.9502   -3.8972   43.4076 C   0  0  0  0  0  0  0  0  0  0  0  0
    2.7156   -4.1184   44.6954 N   0  0  0  0  0  0  0  0  0  0  0  0
    6.8581   -1.5862   45.1101 C   0  0  0  0  0  0  0  0  0  0  0  0
    6.1801   -2.8430   45.2383 C   0  0  0  0  0  0  0  0  0  0  0  0
    2.1454   -5.1901   45.5771 C   0  0  0  0  0  0  0  0  0  0  0  0
    8.0137   -1.3946   45.8526 C   0  0  0  0  0  0  0  0  0  0  0  0
    0.9733   -4.5725   43.2066 O   0  0  0  0  0  0  0  0  0  0  0  0
    2.2437    0.0035   41.8733 C   0  0  0  0  0  0  0  0  0  0  0  0
    1.3210   -2.2077   41.7009 C   0  0  0  0  0  0  0  0  0  0  0  0
    8.6047   -2.2876   46.6923 C   0  0  0  0  0  0  0  0  0  0  0  0
    7.9141   -3.5157   46.8869 C   0  0  0  0  0  0  0  0  0  0  0  0
    1.0501   -0.8658   41.6612 C   0  0  0  0  0  0  0  0  0  0  0  0
    6.7278   -3.7718   46.2525 C   0  0  0  0  0  0  0  0  0  0  0  0
    9.8280   -2.0492   47.3361 C   0  0  0  0  0  0  0  0  0  0  0  0
    9.8262   -1.5735   48.5432 C   0  0  0  0  0  0  0  0  0  0  0  0
   11.0745   -2.0905   46.6735 C   0  0  0  0  0  0  0  0  0  0  0  0
    8.5798   -1.4294   49.3788 F   0  0  0  0  0  0  0  0  0  0  0  0
   12.2255   -1.7445   47.2852 C   0  0  0  0  0  0  0  0  0  0  0  0
   11.0129   -1.2913   49.2988 C   0  0  0  0  0  0  0  0  0  0  0  0
   10.9974   -0.9794   50.7055 O   0  0  0  0  0  0  0  0  0  0  0  0
   11.7986   -1.6311   51.4746 C   0  0  0  0  0  0  0  0  0  0  0  0
   12.2158   -1.4370   48.6166 C   0  0  0  0  0  0  0  0  0  0  0  0
   13.6355   -1.8870   46.5068 C   0  0  0  0  0  0  0  0  0  0  0  0
   13.6118   -1.2794   45.3477 N   0  0  0  0  0  0  0  0  0  0  0  0
   14.0042   -0.0586   45.2088 C   0  0  0  0  0  0  0  0  0  0  0  0
   14.2382    0.3882   43.8792 C   0  0  0  0  0  0  0  0  0  0  0  0
   14.5353    1.7551   43.7289 C   0  0  0  0  0  0  0  0  0  0  0  0
   14.6879    0.5175   46.1647 O   0  0  0  0  0  0  0  0  0  0  0  0
   14.3566    2.3464   42.4562 C   0  0  0  0  0  0  0  0  0  0  0  0
  1  2  2  0
  2  3  1  0
  3  4  1  0
  3  5  2  0
  2  6  1  0
  4  7  1  0
  5  8  1  0
  1  9  1  0
  5  9  1  0
  8 10  1  0
  7 11  1  0
 10 11  1  0
  6 12  2  0
  4 13  2  0
 12 13  1  0
 11 14  1  0
 12 15  1  0
 10 16  2  0
  9 17  1  0
  8 18  1  0
 15 19  2  0
 19 20  1  0
 17 21  1  0
 18 21  1  0
 13 22  1  0
 20 22  2  0
 19 23  1  0
 23 24  2  0
 23 25  1  0
 24 26  1  0
 25 27  2  0
 24 28  1  0
 28 29  1  0
 29 30  1  0
 27 31  1  0
 28 31  2  0
 27 32  1  0
 32 33  1  0
 33 34  1  0
 34 35  1  0
 35 36  1  0
 34 37  2  0
 36 38  1  0
M  END
$$$$
O14757_Pocket2Mol_idx-in-all-generaetd-541
     RDKit          3D

 28 30  0  0  0  0  0  0  0  0999 V2000
    4.5142    0.3543   42.7132 N   0  0  0  0  0  0  0  0  0  0  0  0
    3.5107   -0.4860   42.6298 C   0  0  0  0  0  0  0  0  0  0  0  0
    3.5891   -1.7637   43.2512 N   0  0  0  0  0  0  0  0  0  0  0  0
    5.5470   -0.0112   43.3539 C   0  0  0  0  0  0  0  0  0  0  0  0
    2.1469   -0.1899   41.9512 C   0  0  0  0  0  0  0  0  0  0  0  0
    4.6725   -2.0734   43.8606 C   0  0  0  0  0  0  0  0  0  0  0  0
    5.7749   -1.1829   43.9325 C   0  0  0  0  0  0  0  0  0  0  0  0
    4.7150   -3.3068   44.6440 C   0  0  0  0  0  0  0  0  0  0  0  0
    6.9086   -1.5797   44.6919 C   0  0  0  0  0  0  0  0  0  0  0  0
    3.5691   -4.2517   44.6407 C   0  0  0  0  0  0  0  0  0  0  0  0
    2.3573   -4.0060   44.5430 C   0  0  0  0  0  0  0  0  0  0  0  0
    6.9170   -2.8018   45.4663 C   0  0  0  0  0  0  0  0  0  0  0  0
    5.8006   -3.6152   45.4297 C   0  0  0  0  0  0  0  0  0  0  0  0
    8.0903   -3.1108   46.2193 C   0  0  0  0  0  0  0  0  0  0  0  0
    4.0064   -5.4798   44.1304 O   0  0  0  0  0  0  0  0  0  0  0  0
    1.3499   -4.4927   43.7488 C   0  0  0  0  0  0  0  0  0  0  0  0
    8.9407   -2.1153   46.7855 N   0  0  0  0  0  0  0  0  0  0  0  0
    9.9131   -2.4307   47.6296 C   0  0  0  0  0  0  0  0  0  0  0  0
    9.9401   -2.1931   48.7722 O   0  0  0  0  0  0  0  0  0  0  0  0
    1.6925   -3.8787   45.7737 C   0  0  0  0  0  0  0  0  0  0  0  0
    0.0956   -4.4506   43.8726 C   0  0  0  0  0  0  0  0  0  0  0  0
   -0.4743   -4.1254   44.9651 C   0  0  0  0  0  0  0  0  0  0  0  0
    0.3478   -3.8227   46.0202 C   0  0  0  0  0  0  0  0  0  0  0  0
   11.2616   -2.5305   46.8592 C   0  0  0  0  0  0  0  0  0  0  0  0
    8.2380   -4.1903   46.9793 O   0  0  0  0  0  0  0  0  0  0  0  0
   11.8588   -1.4933   46.3365 C   0  0  0  0  0  0  0  0  0  0  0  0
   12.1275   -3.3025   47.8138 C   0  0  0  0  0  0  0  0  0  0  0  0
   11.0559   -3.5848   45.9623 O   0  0  0  0  0  0  0  0  0  0  0  0
  1  2  2  0
  2  3  1  0
  1  4  1  0
  2  5  1  0
  3  6  2  0
  4  7  2  0
  6  7  1  0
  6  8  1  0
  7  9  1  0
  8 10  1  0
 10 11  1  0
  9 12  2  0
  8 13  2  0
 12 13  1  0
 12 14  1  0
 10 15  2  0
 11 16  2  0
 14 17  1  0
 17 18  1  0
 18 19  2  0
 11 20  1  0
 16 21  1  0
 21 22  2  0
 20 23  2  0
 22 23  1  0
 18 24  1  0
 14 25  2  0
 24 26  1  0
 24 27  1  0
 24 28  1  0
M  END
$$$$
O14757_Pocket2Mol_idx-in-all-generaetd-542
     RDKit          3D

 40 46  0  0  0  0  0  0  0  0999 V2000
    1.5482   -0.3111   41.9233 C   0  0  0  0  0  0  0  0  0  0  0  0
    2.7284    0.2018   42.1525 N   0  0  0  0  0  0  0  0  0  0  0  0
    3.7893   -0.3016   42.7005 C   0  0  0  0  0  0  0  0  0  0  0  0
    3.3781   -1.7350   43.0000 C   0  0  0  0  0  0  0  0  0  0  0  0
    2.0339   -1.9619   42.6217 C   0  0  0  0  0  0  0  0  0  0  0  0
    4.1166   -2.4997   43.8458 C   0  0  0  0  0  0  0  0  0  0  0  0
    1.1731   -3.0051   42.5773 C   0  0  0  0  0  0  0  0  0  0  0  0
    0.4701   -3.2344   41.4901 C   0  0  0  0  0  0  0  0  0  0  0  0
    5.3799   -1.7814   44.2691 C   0  0  0  0  0  0  0  0  0  0  0  0
    5.0159   -0.0180   43.1201 N   0  0  0  0  0  0  0  0  0  0  0  0
    5.7693   -0.6937   43.8418 C   0  0  0  0  0  0  0  0  0  0  0  0
    0.8078   -3.6166   43.6782 C   0  0  0  0  0  0  0  0  0  0  0  0
    0.0663   -4.7011   43.7415 N   0  0  0  0  0  0  0  0  0  0  0  0
    6.2223   -2.6843   45.1565 C   0  0  0  0  0  0  0  0  0  0  0  0
    6.9599   -0.2351   44.2608 N   0  0  0  0  0  0  0  0  0  0  0  0
    5.9065   -3.9037   45.7499 N   0  0  0  0  0  0  0  0  0  0  0  0
   -0.5459   -5.1185   42.5870 C   0  0  0  0  0  0  0  0  0  0  0  0
    5.7480   -4.0340   46.9810 C   0  0  0  0  0  0  0  0  0  0  0  0
    7.4448   -1.8511   45.4198 C   0  0  0  0  0  0  0  0  0  0  0  0
    7.7572   -0.7827   45.0128 C   0  0  0  0  0  0  0  0  0  0  0  0
    8.4076   -2.7217   46.4541 C   0  0  0  0  0  0  0  0  0  0  0  0
    9.3167   -2.0988   47.1049 N   0  0  0  0  0  0  0  0  0  0  0  0
   -0.4719   -4.3893   41.5406 C   0  0  0  0  0  0  0  0  0  0  0  0
    8.3667   -4.0284   46.5743 N   0  0  0  0  0  0  0  0  0  0  0  0
    9.5309   -4.3147   47.3094 C   0  0  0  0  0  0  0  0  0  0  0  0
    5.3113   -3.3789   47.8005 O   0  0  0  0  0  0  0  0  0  0  0  0
    9.9022   -5.6301   47.7684 C   0  0  0  0  0  0  0  0  0  0  0  0
    5.4470   -5.5868   47.2096 C   0  0  0  0  0  0  0  0  0  0  0  0
   11.2254   -5.8679   48.0402 C   0  0  0  0  0  0  0  0  0  0  0  0
    8.9736   -6.6532   47.8548 C   0  0  0  0  0  0  0  0  0  0  0  0
   10.0616   -3.0670   47.6360 C   0  0  0  0  0  0  0  0  0  0  0  0
    9.2755   -7.8884   48.2076 C   0  0  0  0  0  0  0  0  0  0  0  0
   12.3151   -4.8393   47.9221 O   0  0  0  0  0  0  0  0  0  0  0  0
    8.2519   -8.9331   48.3446 C   0  0  0  0  0  0  0  0  0  0  0  0
   10.5780   -8.0935   48.4113 C   0  0  0  0  0  0  0  0  0  0  0  0
   11.7297   -7.1780   48.3936 C   0  0  0  0  0  0  0  0  0  0  0  0
    7.1530   -8.7018   47.6605 O   0  0  0  0  0  0  0  0  0  0  0  0
    6.1187   -8.1945   48.4779 C   0  0  0  0  0  0  0  0  0  0  0  0
    5.9447   -6.1248   48.5320 C   0  0  0  0  0  0  0  0  0  0  0  0
    5.3646   -7.2751   48.9122 C   0  0  0  0  0  0  0  0  0  0  0  0
  1  2  1  0
  2  3  2  0
  3  4  1  0
  1  5  2  0
  4  5  1  0
  4  6  2  0
  5  7  1  0
  7  8  2  0
  6  9  1  0
  3 10  1  0
  9 11  2  0
 10 11  1  0
  7 12  1  0
 12 13  2  0
  9 14  1  0
 11 15  1  0
 14 16  1  0
 13 17  1  0
 16 18  1  0
 14 19  2  0
 15 20  2  0
 19 20  1  0
 19 21  1  0
 21 22  2  0
  8 23  1  0
 17 23  2  0
 21 24  1  0
 24 25  1  0
 18 26  2  0
 25 27  1  0
 18 28  1  0
 27 29  2  0
 27 30  1  0
 22 31  1  0
 25 31  2  0
 30 32  2  0
 29 33  1  0
 32 34  1  0
 32 35  1  0
 29 36  1  0
 35 36  2  0
 34 37  1  0
 37 38  1  0
 28 39  1  0
 38 40  2  3
 39 40  1  0
M  END
$$$$
O14757_Pocket2Mol_idx-in-all-generaetd-543
     RDKit          3D

 35 40  0  0  0  0  0  0  0  0999 V2000
    4.5156    0.0550   42.9895 N   0  0  0  0  0  0  0  0  0  0  0  0
    5.0618   -0.8645   43.5295 C   0  0  0  0  0  0  0  0  0  0  0  0
    4.4350   -2.0604   43.7783 C   0  0  0  0  0  0  0  0  0  0  0  0
    4.9987   -3.0994   44.5839 C   0  0  0  0  0  0  0  0  0  0  0  0
    3.2714   -1.8664   43.0632 C   0  0  0  0  0  0  0  0  0  0  0  0
    6.4064   -0.5942   44.3204 N   0  0  0  0  0  0  0  0  0  0  0  0
    4.3422   -4.3256   44.7203 C   0  0  0  0  0  0  0  0  0  0  0  0
    2.1845   -2.6668   42.8270 N   0  0  0  0  0  0  0  0  0  0  0  0
    3.3305   -0.5395   42.5465 N   0  0  0  0  0  0  0  0  0  0  0  0
    1.9502   -3.8972   43.4076 C   0  0  0  0  0  0  0  0  0  0  0  0
    2.7156   -4.1184   44.6954 N   0  0  0  0  0  0  0  0  0  0  0  0
    6.8581   -1.5862   45.1101 C   0  0  0  0  0  0  0  0  0  0  0  0
    6.1801   -2.8430   45.2383 C   0  0  0  0  0  0  0  0  0  0  0  0
    2.1454   -5.1901   45.5771 C   0  0  0  0  0  0  0  0  0  0  0  0
    8.0137   -1.3946   45.8526 C   0  0  0  0  0  0  0  0  0  0  0  0
    0.9733   -4.5725   43.2066 O   0  0  0  0  0  0  0  0  0  0  0  0
    2.2437    0.0035   41.8733 C   0  0  0  0  0  0  0  0  0  0  0  0
    1.3210   -2.2077   41.7009 C   0  0  0  0  0  0  0  0  0  0  0  0
    8.6047   -2.2876   46.6923 C   0  0  0  0  0  0  0  0  0  0  0  0
    7.9141   -3.5157   46.8869 C   0  0  0  0  0  0  0  0  0  0  0  0
    1.0501   -0.8658   41.6612 C   0  0  0  0  0  0  0  0  0  0  0  0
    6.7278   -3.7718   46.2525 C   0  0  0  0  0  0  0  0  0  0  0  0
    9.8280   -2.0492   47.3361 C   0  0  0  0  0  0  0  0  0  0  0  0
    9.8262   -1.5735   48.5432 C   0  0  0  0  0  0  0  0  0  0  0  0
   11.0745   -2.0905   46.6735 C   0  0  0  0  0  0  0  0  0  0  0  0
    8.5798   -1.4294   49.3788 F   0  0  0  0  0  0  0  0  0  0  0  0
   12.2255   -1.7445   47.2852 C   0  0  0  0  0  0  0  0  0  0  0  0
   11.0129   -1.2913   49.2988 C   0  0  0  0  0  0  0  0  0  0  0  0
   10.9974   -0.9794   50.7055 O   0  0  0  0  0  0  0  0  0  0  0  0
   11.7986   -1.6311   51.4746 C   0  0  0  0  0  0  0  0  0  0  0  0
   12.2158   -1.4370   48.6166 C   0  0  0  0  0  0  0  0  0  0  0  0
   13.6355   -1.8870   46.5068 C   0  0  0  0  0  0  0  0  0  0  0  0
   13.6118   -1.2794   45.3477 N   0  0  0  0  0  0  0  0  0  0  0  0
   14.5033   -2.4493   46.9976 O   0  0  0  0  0  0  0  0  0  0  0  0
   14.7702   -1.3052   44.5304 C   0  0  0  0  0  0  0  0  0  0  0  0
  1  2  2  0
  2  3  1  0
  3  4  1  0
  3  5  2  0
  2  6  1  0
  4  7  1  0
  5  8  1  0
  1  9  1  0
  5  9  1  0
  8 10  1  0
  7 11  1  0
 10 11  1  0
  6 12  2  0
  4 13  2  0
 12 13  1  0
 11 14  1  0
 12 15  1  0
 10 16  2  0
  9 17  1  0
  8 18  1  0
 15 19  2  0
 19 20  1  0
 17 21  1  0
 18 21  1  0
 13 22  1  0
 20 22  2  0
 19 23  1  0
 23 24  2  0
 23 25  1  0
 24 26  1  0
 25 27  2  0
 24 28  1  0
 28 29  1  0
 29 30  1  0
 27 31  1  0
 28 31  2  0
 27 32  1  0
 32 33  1  0
 32 34  2  0
 33 35  1  0
M  END
$$$$
O14757_Pocket2Mol_idx-in-all-generaetd-544
     RDKit          3D

 34 39  0  0  0  0  0  0  0  0999 V2000
    5.3420    0.2589   42.8836 O   0  0  0  0  0  0  0  0  0  0  0  0
    5.1627   -0.7554   43.4753 C   0  0  0  0  0  0  0  0  0  0  0  0
    4.0509   -1.4657   43.4177 N   0  0  0  0  0  0  0  0  0  0  0  0
    5.9969   -1.2317   44.6840 C   0  0  0  0  0  0  0  0  0  0  0  0
    2.9618   -1.1021   42.5918 C   0  0  1  0  0  0  0  0  0  0  0  0
    7.3392   -0.8596   44.8412 C   0  0  0  0  0  0  0  0  0  0  0  0
    1.9754   -2.0820   42.2741 C   0  0  0  0  0  0  0  0  0  0  0  0
    5.5910   -2.4282   45.3439 C   0  0  0  0  0  0  0  0  0  0  0  0
    6.5874   -2.9636   46.1581 C   0  0  0  0  0  0  0  0  0  0  0  0
    4.2763   -3.0680   45.0493 N   0  0  0  0  0  0  0  0  0  0  0  0
    3.6188   -2.5886   44.2024 C   0  0  0  0  0  0  0  0  0  0  0  0
    8.1921   -1.4071   45.7505 C   0  0  0  0  0  0  0  0  0  0  0  0
    1.0154   -1.8839   41.2980 C   0  0  0  0  0  0  0  0  0  0  0  0
    2.5720   -3.3564   43.9063 C   0  0  0  0  0  0  0  0  0  0  0  0
    0.2502   -2.8976   41.0751 C   0  0  0  0  0  0  0  0  0  0  0  0
    6.1761   -4.1775   47.0209 C   0  0  0  0  0  0  0  0  0  0  0  0
    1.7266   -3.1047   43.0115 C   0  0  2  0  0  0  0  0  0  0  0  0
    2.3696   -4.5367   44.7536 N   0  0  0  0  0  0  0  0  0  0  0  0
    1.2264   -5.2346   44.4693 C   0  0  0  0  0  0  0  0  0  0  0  0
    0.7187   -3.8955   42.5465 C   0  0  0  0  0  0  0  0  0  0  0  0
    9.4576   -0.8949   46.0327 N   0  0  0  0  0  0  0  0  0  0  0  0
    0.8625   -6.3901   45.2462 C   0  0  0  0  0  0  0  0  0  0  0  0
    7.6467   -2.5139   46.4892 C   0  0  0  0  0  0  0  0  0  0  0  0
   10.4908   -1.5336   45.8242 C   0  0  0  0  0  0  0  0  0  0  0  0
    0.3057   -4.9299   43.2909 C   0  0  0  0  0  0  0  0  0  0  0  0
   11.5916   -1.4291   46.7436 C   0  0  0  0  0  0  0  0  0  0  0  0
   10.5566   -2.3672   44.8649 O   0  0  0  0  0  0  0  0  0  0  0  0
   12.8421   -1.9355   46.2823 C   0  0  0  0  0  0  0  0  0  0  0  0
   13.4833   -2.8582   46.9841 C   0  0  0  0  0  0  0  0  0  0  0  0
   11.4002   -1.1447   48.0540 C   0  0  0  0  0  0  0  0  0  0  0  0
   10.2867   -0.4569   48.4999 O   0  0  0  0  0  0  0  0  0  0  0  0
   12.3327   -1.4798   48.9564 C   0  0  0  0  0  0  0  0  0  0  0  0
   13.4481   -2.3350   48.4962 C   0  0  0  0  0  0  0  0  0  0  0  0
    2.4583    0.2113   42.8557 C   0  0  0  0  0  0  0  0  0  0  0  0
  1  2  2  0
  2  3  1  0
  2  4  1  0
  3  5  1  0
  4  6  2  0
  5  7  1  0
  4  8  1  0
  8  9  2  0
  8 10  1  0
  3 11  1  0
 10 11  2  0
  6 12  1  0
  7 13  2  0
 11 14  1  0
 13 15  1  0
  9 16  1  0
 17  7  1  6
 14 17  1  0
 14 18  2  0
 18 19  1  0
 15 20  2  0
 17 20  1  0
 12 21  1  0
 19 22  1  0
  9 23  1  0
 12 23  2  0
 21 24  1  0
 19 25  2  0
 20 25  1  0
 24 26  1  0
 24 27  2  0
 26 28  2  0
 28 29  1  0
 26 30  1  0
 30 31  1  0
 30 32  2  0
 29 33  2  0
 32 33  1  0
  5 34  1  1
M  END
$$$$
O14757_Pocket2Mol_idx-in-all-generaetd-545
     RDKit          3D

 24 26  0  0  0  0  0  0  0  0999 V2000
    5.1775    0.2381   42.7925 N   0  0  0  0  0  0  0  0  0  0  0  0
    3.8485    0.3515   42.4285 N   0  0  0  0  0  0  0  0  0  0  0  0
    5.5201   -0.8216   43.5188 C   0  0  0  0  0  0  0  0  0  0  0  0
    4.5575   -1.7838   43.9113 C   0  0  0  0  0  0  0  0  0  0  0  0
    2.9777   -0.5504   42.6073 C   0  0  0  0  0  0  0  0  0  0  0  0
    4.8521   -2.9209   44.7316 C   0  0  0  0  0  0  0  0  0  0  0  0
    3.2351   -1.5675   43.1903 C   0  0  0  0  0  0  0  0  0  0  0  0
    1.6955   -0.2711   41.8967 C   0  0  0  0  0  0  0  0  0  0  0  0
    0.8864   -1.3663   42.0618 C   0  0  0  0  0  0  0  0  0  0  0  0
    2.3187   -2.7500   43.4543 C   0  0  0  0  0  0  0  0  0  0  0  0
    1.1071   -2.5907   42.7445 C   0  0  0  0  0  0  0  0  0  0  0  0
    6.0979   -2.8249   45.5633 C   0  0  0  0  0  0  0  0  0  0  0  0
    0.0423   -3.6939   42.8205 C   0  0  0  0  0  0  0  0  0  0  0  0
    0.2331   -4.5880   43.5917 O   0  0  0  0  0  0  0  0  0  0  0  0
    6.4257   -3.8638   46.3660 C   0  0  0  0  0  0  0  0  0  0  0  0
    6.9218   -1.6136   45.5979 C   0  0  0  0  0  0  0  0  0  0  0  0
    8.0623   -1.7273   46.3213 C   0  0  0  0  0  0  0  0  0  0  0  0
    5.4782   -4.9551   46.4171 O   0  0  0  0  0  0  0  0  0  0  0  0
   -0.7065   -3.7335   41.8291 O   0  0  0  0  0  0  0  0  0  0  0  0
    7.5465   -3.9040   47.1250 C   0  0  0  0  0  0  0  0  0  0  0  0
    8.4554   -2.8699   47.1128 C   0  0  0  0  0  0  0  0  0  0  0  0
    9.6755   -2.8717   47.8532 C   0  0  0  0  0  0  0  0  0  0  0  0
   10.0952   -1.8936   48.4812 O   0  0  0  0  0  0  0  0  0  0  0  0
   10.2291   -3.9545   47.9732 O   0  0  0  0  0  0  0  0  0  0  0  0
  1  2  2  0
  1  3  1  0
  3  4  2  0
  2  5  1  0
  4  6  1  0
  4  7  1  0
  5  7  2  0
  5  8  1  0
  8  9  2  0
  7 10  1  0
  9 11  1  0
 10 11  2  0
  6 12  1  0
 11 13  1  0
 13 14  1  0
 12 15  2  0
 12 16  1  0
 16 17  2  0
 15 18  1  0
 13 19  2  0
 15 20  1  0
 17 21  1  0
 20 21  2  0
 21 22  1  0
 22 23  1  0
 22 24  2  0
M  END
$$$$
O14757_Pocket2Mol_idx-in-all-generaetd-546
     RDKit          3D

 35 41  0  0  0  0  0  0  0  0999 V2000
    4.5156    0.0550   42.9895 N   0  0  0  0  0  0  0  0  0  0  0  0
    5.0618   -0.8645   43.5295 C   0  0  0  0  0  0  0  0  0  0  0  0
    4.4350   -2.0604   43.7783 C   0  0  0  0  0  0  0  0  0  0  0  0
    4.9987   -3.0994   44.5839 C   0  0  0  0  0  0  0  0  0  0  0  0
    3.2714   -1.8664   43.0632 C   0  0  0  0  0  0  0  0  0  0  0  0
    6.4064   -0.5942   44.3204 N   0  0  0  0  0  0  0  0  0  0  0  0
    4.3422   -4.3256   44.7203 C   0  0  0  0  0  0  0  0  0  0  0  0
    2.1845   -2.6668   42.8270 N   0  0  0  0  0  0  0  0  0  0  0  0
    3.3305   -0.5395   42.5465 N   0  0  0  0  0  0  0  0  0  0  0  0
    1.9502   -3.8972   43.4076 C   0  0  0  0  0  0  0  0  0  0  0  0
    2.7156   -4.1184   44.6954 N   0  0  0  0  0  0  0  0  0  0  0  0
    6.8581   -1.5862   45.1101 C   0  0  0  0  0  0  0  0  0  0  0  0
    6.1801   -2.8430   45.2383 C   0  0  0  0  0  0  0  0  0  0  0  0
    2.1454   -5.1901   45.5771 C   0  0  0  0  0  0  0  0  0  0  0  0
    8.0137   -1.3946   45.8526 C   0  0  0  0  0  0  0  0  0  0  0  0
    0.9733   -4.5725   43.2066 O   0  0  0  0  0  0  0  0  0  0  0  0
    2.2437    0.0035   41.8733 C   0  0  0  0  0  0  0  0  0  0  0  0
    1.3210   -2.2077   41.7009 C   0  0  0  0  0  0  0  0  0  0  0  0
    8.6047   -2.2876   46.6923 C   0  0  0  0  0  0  0  0  0  0  0  0
    7.9141   -3.5157   46.8869 C   0  0  0  0  0  0  0  0  0  0  0  0
    1.0501   -0.8658   41.6612 C   0  0  0  0  0  0  0  0  0  0  0  0
    6.7278   -3.7718   46.2525 C   0  0  0  0  0  0  0  0  0  0  0  0
    9.8280   -2.0492   47.3361 C   0  0  0  0  0  0  0  0  0  0  0  0
    9.8262   -1.5735   48.5432 C   0  0  0  0  0  0  0  0  0  0  0  0
   11.0745   -2.0905   46.6735 C   0  0  0  0  0  0  0  0  0  0  0  0
    8.5798   -1.4294   49.3788 F   0  0  0  0  0  0  0  0  0  0  0  0
   10.9035   -1.3906   49.1995 C   0  0  0  0  0  0  0  0  0  0  0  0
   12.2286   -1.8287   47.2818 C   0  0  0  0  0  0  0  0  0  0  0  0
   11.1217   -2.5052   45.1053 C   0  0  0  0  0  0  0  0  0  0  0  0
   12.1784   -1.5055   48.6600 C   0  0  0  0  0  0  0  0  0  0  0  0
   13.5805   -1.9958   46.5884 C   0  0  0  0  0  0  0  0  0  0  0  0
   13.5941   -1.9808   45.2970 N   0  0  0  0  0  0  0  0  0  0  0  0
   12.6205   -1.8747   44.5481 C   0  0  0  0  0  0  0  0  0  0  0  0
   14.6317   -1.8996   47.3022 O   0  0  0  0  0  0  0  0  0  0  0  0
    1.0412   -4.5202   46.3518 C   0  0  0  0  0  0  0  0  0  0  0  0
  1  2  2  0
  2  3  1  0
  3  4  1  0
  3  5  2  0
  2  6  1  0
  4  7  1  0
  5  8  1  0
  1  9  1  0
  5  9  1  0
  8 10  1  0
  7 11  1  0
 10 11  1  0
  6 12  2  0
  4 13  2  0
 12 13  1  0
 11 14  1  0
 12 15  1  0
 10 16  2  0
  9 17  1  0
  8 18  1  0
 15 19  2  0
 19 20  1  0
 17 21  1  0
 18 21  1  0
 13 22  1  0
 20 22  2  0
 19 23  1  0
 23 24  2  0
 23 25  1  0
 24 26  1  0
 24 27  1  0
 25 28  2  0
 25 29  1  0
 27 30  2  0
 28 30  1  0
 28 31  1  0
 31 32  1  0
 29 33  1  0
 32 33  1  0
 31 34  2  0
 14 35  1  0
M  END
$$$$
O14757_Pocket2Mol_idx-in-all-generaetd-547
     RDKit          3D

 28 32  0  0  0  0  0  0  0  0999 V2000
    3.7044    0.1389   42.5158 N   0  0  0  0  0  0  0  0  0  0  0  0
    3.0206   -1.0018   42.4929 C   0  0  0  0  0  0  0  0  0  0  0  0
    3.4791   -2.0817   43.2077 C   0  0  0  0  0  0  0  0  0  0  0  0
    4.8540    0.3862   43.0582 N   0  0  0  0  0  0  0  0  0  0  0  0
    5.1377   -0.9552   43.7144 C   0  0  0  0  0  0  0  0  0  0  0  0
    1.5846   -1.0753   41.7644 C   0  0  0  0  0  0  0  0  0  0  0  0
    2.6127   -3.2469   43.2056 C   0  0  0  0  0  0  0  0  0  0  0  0
    4.6372   -2.0125   43.8200 C   0  0  0  0  0  0  0  0  0  0  0  0
    2.9973   -4.3132   44.0699 C   0  0  0  0  0  0  0  0  0  0  0  0
    5.2490   -3.1260   44.5377 C   0  0  0  0  0  0  0  0  0  0  0  0
    2.3220   -5.3356   44.3123 O   0  0  0  0  0  0  0  0  0  0  0  0
    1.3893   -3.2604   42.5359 C   0  0  0  0  0  0  0  0  0  0  0  0
    0.9530   -2.1738   41.8390 C   0  0  0  0  0  0  0  0  0  0  0  0
    6.3785   -3.0087   45.3464 C   0  0  0  0  0  0  0  0  0  0  0  0
    4.2669   -4.1697   44.8110 C   0  0  0  0  0  0  0  0  0  0  0  0
    6.8132   -3.9057   46.1504 C   0  0  0  0  0  0  0  0  0  0  0  0
    7.9207   -3.5940   46.8627 C   0  0  0  0  0  0  0  0  0  0  0  0
    8.6773   -2.4405   46.7545 C   0  0  0  0  0  0  0  0  0  0  0  0
    7.1669   -1.6307   45.2351 C   0  0  0  0  0  0  0  0  0  0  0  0
    8.2204   -1.4657   45.9268 C   0  0  0  0  0  0  0  0  0  0  0  0
    9.8739   -2.2989   47.6038 C   0  0  0  0  0  0  0  0  0  0  0  0
    9.8890   -1.4085   48.4501 O   0  0  0  0  0  0  0  0  0  0  0  0
   11.0029   -2.6119   47.0191 N   0  0  0  0  0  0  0  0  0  0  0  0
   12.3062   -2.3573   47.6799 C   0  0  0  0  0  0  0  0  0  0  0  0
   11.0445   -3.7038   46.0903 C   0  0  0  0  0  0  0  0  0  0  0  0
   13.2705   -1.9589   46.6793 C   0  0  0  0  0  0  0  0  0  0  0  0
   13.5374   -2.9317   45.6003 O   0  0  0  0  0  0  0  0  0  0  0  0
   12.4433   -3.6198   45.4135 C   0  0  0  0  0  0  0  0  0  0  0  0
  1  2  2  0
  2  3  1  0
  1  4  1  0
  4  5  2  0
  2  6  1  0
  3  7  1  0
  3  8  2  0
  5  8  1  0
  7  9  1  0
  8 10  1  0
  9 11  2  0
  7 12  2  0
  6 13  2  0
 12 13  1  0
 10 14  1  0
  9 15  1  0
 10 15  2  0
 14 16  2  0
 16 17  1  0
 17 18  2  0
 14 19  1  0
 18 20  1  0
 19 20  2  0
 18 21  1  0
 21 22  2  0
 21 23  1  0
 23 24  1  0
 23 25  1  0
 24 26  1  0
 26 27  1  0
 25 28  2  0
 27 28  1  0
M  END
$$$$
O14757_Pocket2Mol_idx-in-all-generaetd-548
     RDKit          3D

 21 23  0  0  0  0  0  0  0  0999 V2000
    0.3497   -2.5592   41.5321 C   0  0  0  0  0  0  0  0  0  0  0  0
    0.7059   -1.3065   41.4152 C   0  0  0  0  0  0  0  0  0  0  0  0
    2.0121   -0.9206   42.0074 C   0  0  0  0  0  0  0  0  0  0  0  0
    2.8273   -1.8583   42.7096 C   0  0  0  0  0  0  0  0  0  0  0  0
   -0.9158   -2.9896   41.0259 O   0  0  0  0  0  0  0  0  0  0  0  0
    2.1785   -3.2182   42.8202 C   0  0  0  0  0  0  0  0  0  0  0  0
    2.9957   -4.0364   43.6549 N   0  0  0  0  0  0  0  0  0  0  0  0
    1.0381   -3.5102   42.3147 C   0  0  0  0  0  0  0  0  0  0  0  0
    4.0501   -1.4436   43.3296 C   0  0  0  0  0  0  0  0  0  0  0  0
    4.2345   -3.7127   44.1966 C   0  0  0  0  0  0  0  0  0  0  0  0
    4.9099   -4.6363   45.0387 N   0  0  0  0  0  0  0  0  0  0  0  0
    4.7563   -2.4299   44.0678 C   0  0  0  0  0  0  0  0  0  0  0  0
    6.0306   -2.0532   44.6670 C   0  0  0  0  0  0  0  0  0  0  0  0
    4.6111   -0.1656   43.0716 N   0  0  0  0  0  0  0  0  0  0  0  0
    6.7834   -2.7598   45.5925 N   0  0  0  0  0  0  0  0  0  0  0  0
    8.0062   -2.3962   46.0654 C   0  0  0  0  0  0  0  0  0  0  0  0
    8.3845   -1.1262   46.4117 C   0  0  0  0  0  0  0  0  0  0  0  0
    6.3026   -0.6817   44.5619 N   0  0  0  0  0  0  0  0  0  0  0  0
   -2.1386   -2.6057   41.5146 C   0  0  0  0  0  0  0  0  0  0  0  0
    5.6712    0.0977   43.6769 N   0  0  0  0  0  0  0  0  0  0  0  0
    8.7424   -3.2883   46.0890 O   0  0  0  0  0  0  0  0  0  0  0  0
  1  2  2  0
  2  3  1  0
  3  4  2  0
  1  5  1  0
  4  6  1  0
  6  7  1  0
  1  8  1  0
  6  8  2  0
  4  9  1  0
  7 10  2  0
 10 11  1  0
  9 12  2  0
 10 12  1  0
 12 13  1  0
  9 14  1  0
 13 15  1  0
 15 16  1  0
 16 17  1  0
 13 18  2  0
  5 19  1  0
 14 20  2  0
 18 20  1  0
 16 21  2  0
M  END
$$$$
O14757_Pocket2Mol_idx-in-all-generaetd-549
     RDKit          3D

 50 59  0  0  0  0  0  0  0  0999 V2000
    1.5482   -0.3111   41.9233 C   0  0  0  0  0  0  0  0  0  0  0  0
    2.7284    0.2018   42.1525 N   0  0  0  0  0  0  0  0  0  0  0  0
    3.7893   -0.3016   42.7005 C   0  0  0  0  0  0  0  0  0  0  0  0
    3.3781   -1.7350   43.0000 C   0  0  0  0  0  0  0  0  0  0  0  0
    2.0339   -1.9619   42.6217 C   0  0  0  0  0  0  0  0  0  0  0  0
    5.0090    0.1219   42.9340 N   0  0  0  0  0  0  0  0  0  0  0  0
    4.2895   -2.4979   43.6707 C   0  0  0  0  0  0  0  0  0  0  0  0
    5.8391   -0.6675   43.6343 C   0  0  0  0  0  0  0  0  0  0  0  0
    6.9849   -0.2377   44.0028 N   0  0  0  0  0  0  0  0  0  0  0  0
    4.0426   -3.8794   44.0832 C   0  0  0  0  0  0  0  0  0  0  0  0
    7.6796   -0.8734   44.9326 C   0  0  0  0  0  0  0  0  0  0  0  0
    1.1064   -2.9576   42.4211 C   0  0  0  0  0  0  0  0  0  0  0  0
    5.5298   -1.9496   44.0315 C   0  0  0  0  0  0  0  0  0  0  0  0
    3.8954   -4.1817   45.4718 C   0  0  0  0  0  0  0  0  0  0  0  0
    0.6765   -3.5480   43.4006 C   0  0  1  0  0  0  0  0  0  0  0  0
    0.5804   -3.2191   41.1635 C   0  0  0  0  0  0  0  0  0  0  0  0
    2.8083   -4.8227   45.9203 N   0  0  0  0  0  0  0  0  0  0  0  0
   -0.1574   -4.5754   42.9329 N   0  0  0  0  0  0  0  0  0  0  0  0
    6.5271   -2.5531   44.9677 C   0  0  0  0  0  0  0  0  0  0  0  0
   -0.2272   -4.3703   41.5137 C   0  0  0  0  0  0  0  0  0  0  0  0
    7.5095   -2.0029   45.3993 C   0  0  0  0  0  0  0  0  0  0  0  0
    8.2550   -2.6982   46.3988 C   0  0  1  0  0  0  0  0  0  0  0  0
    8.8975   -0.3029   45.3267 O   0  0  0  0  0  0  0  0  0  0  0  0
    4.8299   -4.4637   46.4212 C   0  0  0  0  0  0  0  0  0  0  0  0
    4.2707   -4.9248   47.6295 N   0  0  0  0  0  0  0  0  0  0  0  0
    3.2045   -5.2092   47.1521 C   0  0  0  0  0  0  0  0  0  0  0  0
    1.4482   -4.6186   45.4134 C   0  0  0  0  0  0  0  0  0  0  0  0
    1.3256   -3.7660   44.6394 N   0  0  0  0  0  0  0  0  0  0  0  0
    9.2816   -2.1418   47.1273 N   0  0  0  0  0  0  0  0  0  0  0  0
   10.0629   -3.1324   47.8508 C   0  0  0  0  0  0  0  0  0  0  0  0
    6.3491   -3.8960   46.0844 C   0  0  2  0  0  0  0  0  0  0  0  0
    7.4349   -3.5889   46.9054 C   0  0  0  0  0  0  0  0  0  0  0  0
   10.3145   -2.7271   49.0818 O   0  0  0  0  0  0  0  0  0  0  0  0
    0.6213   -5.4445   45.7455 O   0  0  0  0  0  0  0  0  0  0  0  0
   11.0262   -3.8136   47.1050 C   0  0  0  0  0  0  0  0  0  0  0  0
   12.1704   -3.3854   46.7547 C   0  0  0  0  0  0  0  0  0  0  0  0
   13.1080   -4.1111   46.0053 C   0  0  0  0  0  0  0  0  0  0  0  0
   14.3489   -3.5966   45.7888 C   0  0  0  0  0  0  0  0  0  0  0  0
   12.7430   -5.2725   45.5056 C   0  0  0  0  0  0  0  0  0  0  0  0
   14.6935   -2.2816   45.3353 C   0  0  0  0  0  0  0  0  0  0  0  0
   15.8828   -1.9964   44.9887 C   0  0  0  0  0  0  0  0  0  0  0  0
   15.4347   -4.4529   45.9716 C   0  0  0  0  0  0  0  0  0  0  0  0
   16.1869   -0.5957   44.4528 O   0  0  0  0  0  0  0  0  0  0  0  0
   16.7870   -3.8955   45.6256 C   0  0  0  0  0  0  0  0  0  0  0  0
   16.9850   -2.7386   45.1642 C   0  0  0  0  0  0  0  0  0  0  0  0
   10.5485   -5.0663   46.6528 C   0  0  0  0  0  0  0  0  0  0  0  0
   15.6948   -0.3235   43.2383 C   0  0  0  0  0  0  0  0  0  0  0  0
    9.2998   -5.5902   46.8606 F   0  0  0  0  0  0  0  0  0  0  0  0
   13.4502   -6.0908   44.7497 F   0  0  0  0  0  0  0  0  0  0  0  0
   11.4110   -5.9021   45.7853 C   0  0  0  0  0  0  0  0  0  0  0  0
  1  2  1  0
  2  3  2  0
  3  4  1  0
  1  5  2  0
  4  5  1  0
  3  6  1  0
  4  7  2  0
  6  8  1  0
  8  9  1  0
  7 10  1  0
  9 11  1  0
  5 12  1  0
  7 13  1  0
  8 13  2  0
 10 14  1  0
 12 15  1  0
 12 16  2  0
 14 17  1  0
 15 18  1  0
 13 19  1  0
 16 20  1  0
 18 20  2  0
 11 21  1  0
 19 21  2  0
 21 22  1  0
 11 23  2  0
 14 24  2  0
 24 25  1  0
 17 26  1  0
 25 26  2  0
 17 27  1  0
 15 28  1  6
 27 28  1  0
 22 29  1  1
 29 30  1  0
 19 31  1  0
 24 31  1  0
 22 32  1  0
 31 32  1  1
 30 33  2  0
 27 34  2  0
 30 35  1  0
 35 36  2  0
 36 37  1  0
 37 38  1  0
 37 39  2  0
 38 40  2  0
 40 41  1  0
 38 42  1  0
 41 43  1  0
 42 44  2  0
 41 45  2  0
 44 45  1  0
 35 46  1  0
 43 47  1  0
 46 48  1  0
 39 49  1  0
 39 50  1  0
 46 50  2  0
M  END
$$$$
O14757_Pocket2Mol_idx-in-all-generaetd-550
     RDKit          3D

 21 23  0  0  0  0  0  0  0  0999 V2000
    5.3420    0.2589   42.8836 N   0  0  0  0  0  0  0  0  0  0  0  0
    5.6740   -0.8311   43.5645 C   0  0  0  0  0  0  0  0  0  0  0  0
    3.9899   -0.0458   42.5141 N   0  0  0  0  0  0  0  0  0  0  0  0
    4.6606   -1.7163   43.6337 C   0  0  0  0  0  0  0  0  0  0  0  0
    3.6244   -1.2025   42.8928 C   0  0  0  0  0  0  0  0  0  0  0  0
    2.3780   -1.7713   42.6359 C   0  0  0  0  0  0  0  0  0  0  0  0
    4.5721   -3.0267   44.2590 C   0  0  0  0  0  0  0  0  0  0  0  0
    1.3110   -1.1954   41.9273 C   0  0  0  0  0  0  0  0  0  0  0  0
    2.2543   -3.0870   43.2441 C   0  0  0  0  0  0  0  0  0  0  0  0
    6.9740   -1.0607   44.3429 C   0  0  0  0  0  0  0  0  0  0  0  0
    7.0610   -1.7818   45.5894 C   0  0  0  0  0  0  0  0  0  0  0  0
    1.1168   -3.8699   43.0019 N   0  0  0  0  0  0  0  0  0  0  0  0
    0.2325   -3.4883   42.1009 C   0  0  1  0  0  0  0  0  0  0  0  0
    8.2535   -1.6908   46.3200 C   0  0  1  0  0  0  0  0  0  0  0  0
   -0.7490   -4.2125   41.7806 O   0  0  0  0  0  0  0  0  0  0  0  0
    8.6192   -2.7899   47.0278 C   0  0  0  0  0  0  0  0  0  0  0  0
    0.2629   -2.1046   41.6175 C   0  0  0  0  0  0  0  0  0  0  0  0
    3.2813   -3.7244   44.0732 C   0  0  0  0  0  0  0  0  0  0  0  0
    9.4760   -2.6346   48.0199 O   0  0  0  0  0  0  0  0  0  0  0  0
    8.0389   -3.9513   46.7246 N   0  0  0  0  0  0  0  0  0  0  0  0
    9.4164   -1.2195   45.6734 O   0  0  0  0  0  0  0  0  0  0  0  0
  1  2  2  0
  1  3  1  0
  2  4  1  0
  3  5  1  0
  4  5  2  0
  5  6  1  0
  4  7  1  0
  6  8  1  0
  6  9  2  0
  2 10  1  0
 10 11  1  0
  9 12  1  0
 12 13  1  0
 11 14  1  0
 13 15  1  1
 14 16  1  0
  8 17  1  0
 13 17  1  0
  7 18  2  0
  9 18  1  0
 16 19  2  0
 16 20  1  0
 14 21  1  6
M  END
$$$$
O14757_Pocket2Mol_idx-in-all-generaetd-551
     RDKit          3D

 46 55  0  0  0  0  0  0  0  0999 V2000
    1.5482   -0.3111   41.9233 C   0  0  0  0  0  0  0  0  0  0  0  0
    2.7284    0.2018   42.1525 N   0  0  0  0  0  0  0  0  0  0  0  0
    3.7893   -0.3016   42.7005 C   0  0  0  0  0  0  0  0  0  0  0  0
    3.3781   -1.7350   43.0000 C   0  0  0  0  0  0  0  0  0  0  0  0
    2.0339   -1.9619   42.6217 C   0  0  0  0  0  0  0  0  0  0  0  0
    5.0090    0.1219   42.9340 N   0  0  0  0  0  0  0  0  0  0  0  0
    4.2895   -2.4979   43.6707 C   0  0  0  0  0  0  0  0  0  0  0  0
    5.8391   -0.6675   43.6343 C   0  0  0  0  0  0  0  0  0  0  0  0
    6.9849   -0.2377   44.0028 N   0  0  0  0  0  0  0  0  0  0  0  0
    4.0426   -3.8794   44.0832 C   0  0  0  0  0  0  0  0  0  0  0  0
    7.6796   -0.8734   44.9326 C   0  0  0  0  0  0  0  0  0  0  0  0
    1.1064   -2.9576   42.4211 C   0  0  0  0  0  0  0  0  0  0  0  0
    5.5298   -1.9496   44.0315 C   0  0  0  0  0  0  0  0  0  0  0  0
    3.8954   -4.1817   45.4718 C   0  0  0  0  0  0  0  0  0  0  0  0
    0.6765   -3.5480   43.4006 C   0  0  1  0  0  0  0  0  0  0  0  0
    0.5804   -3.2191   41.1635 C   0  0  0  0  0  0  0  0  0  0  0  0
    2.8083   -4.8227   45.9203 N   0  0  0  0  0  0  0  0  0  0  0  0
   -0.1574   -4.5754   42.9329 N   0  0  0  0  0  0  0  0  0  0  0  0
    6.5271   -2.5531   44.9677 C   0  0  0  0  0  0  0  0  0  0  0  0
   -0.2272   -4.3703   41.5137 C   0  0  0  0  0  0  0  0  0  0  0  0
    7.5095   -2.0029   45.3993 C   0  0  0  0  0  0  0  0  0  0  0  0
    8.2550   -2.6982   46.3988 C   0  0  1  0  0  0  0  0  0  0  0  0
    8.8975   -0.3029   45.3267 O   0  0  0  0  0  0  0  0  0  0  0  0
    4.8299   -4.4637   46.4212 C   0  0  0  0  0  0  0  0  0  0  0  0
    4.2707   -4.9248   47.6295 N   0  0  0  0  0  0  0  0  0  0  0  0
    3.2045   -5.2092   47.1521 C   0  0  0  0  0  0  0  0  0  0  0  0
    1.4482   -4.6186   45.4134 C   0  0  0  0  0  0  0  0  0  0  0  0
    1.3256   -3.7660   44.6394 N   0  0  0  0  0  0  0  0  0  0  0  0
    9.2816   -2.1418   47.1273 N   0  0  0  0  0  0  0  0  0  0  0  0
   10.0629   -3.1324   47.8508 C   0  0  0  0  0  0  0  0  0  0  0  0
    6.3491   -3.8960   46.0844 C   0  0  2  0  0  0  0  0  0  0  0  0
    7.4349   -3.5889   46.9054 C   0  0  0  0  0  0  0  0  0  0  0  0
   10.3145   -2.7271   49.0818 O   0  0  0  0  0  0  0  0  0  0  0  0
    0.6213   -5.4445   45.7455 O   0  0  0  0  0  0  0  0  0  0  0  0
   11.0262   -3.8136   47.1050 C   0  0  0  0  0  0  0  0  0  0  0  0
   12.1704   -3.3854   46.7547 C   0  0  0  0  0  0  0  0  0  0  0  0
   13.1080   -4.1111   46.0053 C   0  0  0  0  0  0  0  0  0  0  0  0
   14.3489   -3.5966   45.7888 C   0  0  0  0  0  0  0  0  0  0  0  0
   12.7430   -5.2725   45.5056 C   0  0  0  0  0  0  0  0  0  0  0  0
   10.8315   -5.3520   46.8908 C   0  0  0  0  0  0  0  0  0  0  0  0
   11.6313   -5.9366   46.0664 C   0  0  0  0  0  0  0  0  0  0  0  0
   14.5613   -2.2812   45.3299 C   0  0  0  0  0  0  0  0  0  0  0  0
   15.6906   -1.9335   44.9205 C   0  0  0  0  0  0  0  0  0  0  0  0
   16.6424   -3.1053   45.1161 C   0  0  0  0  0  0  0  0  0  0  0  0
   15.5045   -4.3453   45.7715 C   0  0  0  0  0  0  0  0  0  0  0  0
   17.7589   -3.3773   44.9163 O   0  0  0  0  0  0  0  0  0  0  0  0
  1  2  1  0
  2  3  2  0
  3  4  1  0
  1  5  2  0
  4  5  1  0
  3  6  1  0
  4  7  2  0
  6  8  1  0
  8  9  1  0
  7 10  1  0
  9 11  1  0
  5 12  1  0
  7 13  1  0
  8 13  2  0
 10 14  1  0
 12 15  1  0
 12 16  2  0
 14 17  1  0
 15 18  1  0
 13 19  1  0
 16 20  1  0
 18 20  2  0
 11 21  1  0
 19 21  2  0
 21 22  1  0
 11 23  2  0
 14 24  2  0
 24 25  1  0
 17 26  1  0
 25 26  2  0
 17 27  1  0
 15 28  1  6
 27 28  1  0
 22 29  1  1
 29 30  1  0
 19 31  1  0
 24 31  1  0
 22 32  1  0
 31 32  1  1
 30 33  2  0
 27 34  2  0
 30 35  1  0
 35 36  2  0
 36 37  1  0
 37 38  1  0
 37 39  2  0
 35 40  1  0
 39 41  1  0
 40 41  2  0
 38 42  1  0
 42 43  2  0
 43 44  1  0
 38 45  2  0
 44 45  1  0
 44 46  2  0
M  END
$$$$
O14757_Pocket2Mol_idx-in-all-generaetd-552
     RDKit          3D

 36 43  0  0  0  0  0  0  0  0999 V2000
    4.8173    0.2791   42.6993 N   0  0  0  0  0  0  0  0  0  0  0  0
    5.3297   -0.7477   43.3688 C   0  0  0  0  0  0  0  0  0  0  0  0
    3.4732   -0.2235   42.4530 C   0  0  0  0  0  0  0  0  0  0  0  0
    4.4984   -1.7876   43.6214 C   0  0  0  0  0  0  0  0  0  0  0  0
    3.3438   -1.5190   42.9379 C   0  0  0  0  0  0  0  0  0  0  0  0
    2.1381   -2.3401   42.8254 C   0  0  0  0  0  0  0  0  0  0  0  0
    2.3894    0.3572   41.9843 N   0  0  0  0  0  0  0  0  0  0  0  0
    4.9180   -3.0430   44.3829 C   0  0  0  0  0  0  0  0  0  0  0  0
    5.9444   -2.9314   45.3934 C   0  0  0  0  0  0  0  0  0  0  0  0
    4.2808   -4.1329   44.3252 C   0  0  0  0  0  0  0  0  0  0  0  0
    3.1588   -4.4221   43.4852 O   0  0  0  0  0  0  0  0  0  0  0  0
    4.5704   -5.2518   45.1995 C   0  0  0  0  0  0  0  0  0  0  0  0
    1.9853   -3.6792   43.3495 C   0  0  0  0  0  0  0  0  0  0  0  0
    0.9181   -4.3294   43.4638 C   0  0  0  0  0  0  0  0  0  0  0  0
    6.7403   -1.6226   45.5272 C   0  0  2  0  0  0  0  0  0  0  0  0
    0.9752   -1.7845   42.3366 C   0  0  0  0  0  0  0  0  0  0  0  0
    6.2516   -3.7287   46.2722 C   0  0  0  0  0  0  0  0  0  0  0  0
   -0.2404   -2.4179   42.2529 C   0  0  0  0  0  0  0  0  0  0  0  0
   -1.3835   -1.8904   41.6559 N   0  0  0  0  0  0  0  0  0  0  0  0
    3.8706   -6.4216   45.1394 O   0  0  0  0  0  0  0  0  0  0  0  0
    0.9456   -0.2789   41.7649 C   0  0  0  0  0  0  0  0  0  0  0  0
   -0.2678   -3.6969   42.7575 C   0  0  0  0  0  0  0  0  0  0  0  0
    6.3913   -0.7000   44.3807 N   0  0  0  0  0  0  0  0  0  0  0  0
    7.9391   -1.5867   46.0069 C   0  0  0  0  0  0  0  0  0  0  0  0
    8.7787   -0.4879   45.9761 O   0  0  0  0  0  0  0  0  0  0  0  0
    5.3853   -5.1216   46.3780 C   0  0  0  0  0  0  0  0  0  0  0  0
    8.4504   -2.7517   46.6262 N   0  0  0  0  0  0  0  0  0  0  0  0
    7.4807   -3.7374   47.0380 C   0  0  0  0  0  0  0  0  0  0  0  0
    9.7861   -2.6616   47.2863 C   0  0  2  0  0  0  0  0  0  0  0  0
   10.0358   -3.7697   48.0129 C   0  0  1  0  0  0  0  0  0  0  0  0
   10.0595   -1.3885   48.0325 C   0  0  0  0  0  0  0  0  0  0  0  0
   11.2817   -1.2442   48.2547 C   0  0  0  0  0  0  0  0  0  0  0  0
   10.1110   -5.0154   47.2198 O   0  0  0  0  0  0  0  0  0  0  0  0
   10.2666   -6.2265   47.7535 C   0  0  0  0  0  0  0  0  0  0  0  0
   11.8884   -2.4643   48.8493 C   0  0  0  0  0  0  0  0  0  0  0  0
   11.6276   -3.7324   48.4461 C   0  0  0  0  0  0  0  0  0  0  0  0
  1  2  2  0
  1  3  1  0
  2  4  1  0
  3  5  1  0
  4  5  2  0
  5  6  1  0
  3  7  2  0
  4  8  1  0
  8  9  1  0
  8 10  2  0
 10 11  1  0
 10 12  1  0
  6 13  1  0
 11 13  1  0
 13 14  2  0
  9 15  1  0
  6 16  2  0
  9 17  2  0
 16 18  1  0
 18 19  1  0
 12 20  1  0
  7 21  1  0
 16 21  1  0
 14 22  1  0
 18 22  2  0
  2 23  1  0
 15 23  1  6
 15 24  1  0
 24 25  2  0
 12 26  2  0
 17 26  1  0
 24 27  1  0
 17 28  1  0
 27 28  1  0
 29 27  1  1
 29 30  1  0
 29 31  1  0
 31 32  1  0
 30 33  1  6
 33 34  1  0
 32 35  1  0
 30 36  1  0
 35 36  1  0
M  END
$$$$
O14757_Pocket2Mol_idx-in-all-generaetd-553
     RDKit          3D

 39 45  0  0  0  0  0  0  0  0999 V2000
    1.5482   -0.3111   41.9233 C   0  0  0  0  0  0  0  0  0  0  0  0
    2.7284    0.2018   42.1525 N   0  0  0  0  0  0  0  0  0  0  0  0
    3.7893   -0.3016   42.7005 C   0  0  0  0  0  0  0  0  0  0  0  0
    3.3781   -1.7350   43.0000 C   0  0  0  0  0  0  0  0  0  0  0  0
    2.0339   -1.9619   42.6217 C   0  0  0  0  0  0  0  0  0  0  0  0
    4.1166   -2.4997   43.8458 C   0  0  0  0  0  0  0  0  0  0  0  0
    1.1731   -3.0051   42.5773 C   0  0  0  0  0  0  0  0  0  0  0  0
    0.4701   -3.2344   41.4901 C   0  0  0  0  0  0  0  0  0  0  0  0
    5.3799   -1.7814   44.2691 C   0  0  0  0  0  0  0  0  0  0  0  0
    5.0159   -0.0180   43.1201 N   0  0  0  0  0  0  0  0  0  0  0  0
    5.7693   -0.6937   43.8418 C   0  0  0  0  0  0  0  0  0  0  0  0
    0.8078   -3.6166   43.6782 C   0  0  0  0  0  0  0  0  0  0  0  0
    0.0663   -4.7011   43.7415 N   0  0  0  0  0  0  0  0  0  0  0  0
    6.2223   -2.6843   45.1565 C   0  0  0  0  0  0  0  0  0  0  0  0
    6.9599   -0.2351   44.2608 N   0  0  0  0  0  0  0  0  0  0  0  0
    5.9065   -3.9037   45.7499 N   0  0  0  0  0  0  0  0  0  0  0  0
   -0.5459   -5.1185   42.5870 C   0  0  0  0  0  0  0  0  0  0  0  0
    5.7480   -4.0340   46.9810 C   0  0  0  0  0  0  0  0  0  0  0  0
    7.4448   -1.8511   45.4198 C   0  0  0  0  0  0  0  0  0  0  0  0
    7.7572   -0.7827   45.0128 C   0  0  0  0  0  0  0  0  0  0  0  0
    8.4076   -2.7217   46.4541 C   0  0  0  0  0  0  0  0  0  0  0  0
    9.3167   -2.0988   47.1049 N   0  0  0  0  0  0  0  0  0  0  0  0
   -0.4719   -4.3893   41.5406 C   0  0  0  0  0  0  0  0  0  0  0  0
    8.3667   -4.0284   46.5743 N   0  0  0  0  0  0  0  0  0  0  0  0
    9.5309   -4.3147   47.3094 C   0  0  0  0  0  0  0  0  0  0  0  0
    5.3113   -3.3789   47.8005 O   0  0  0  0  0  0  0  0  0  0  0  0
    9.9022   -5.6301   47.7684 C   0  0  0  0  0  0  0  0  0  0  0  0
    5.4470   -5.5868   47.2096 C   0  0  0  0  0  0  0  0  0  0  0  0
   11.2254   -5.8679   48.0402 C   0  0  0  0  0  0  0  0  0  0  0  0
    8.9736   -6.6532   47.8548 C   0  0  0  0  0  0  0  0  0  0  0  0
   10.0616   -3.0670   47.6360 C   0  0  0  0  0  0  0  0  0  0  0  0
    7.5566   -6.3564   47.5477 N   0  0  0  0  0  0  0  0  0  0  0  0
   12.3328   -4.8893   47.9268 C   0  0  0  0  0  0  0  0  0  0  0  0
    9.3549   -7.9044   48.1067 C   0  0  0  0  0  0  0  0  0  0  0  0
   11.6649   -7.1567   48.3527 C   0  0  0  0  0  0  0  0  0  0  0  0
   10.6621   -8.1296   48.4319 C   0  0  0  0  0  0  0  0  0  0  0  0
    6.7005   -6.3629   48.4940 C   0  0  0  0  0  0  0  0  0  0  0  0
    5.5081   -6.2184   48.3360 N   0  0  0  0  0  0  0  0  0  0  0  0
    7.0791   -6.4192   49.7769 O   0  0  0  0  0  0  0  0  0  0  0  0
  1  2  1  0
  2  3  2  0
  3  4  1  0
  1  5  2  0
  4  5  1  0
  4  6  2  0
  5  7  1  0
  7  8  2  0
  6  9  1  0
  3 10  1  0
  9 11  2  0
 10 11  1  0
  7 12  1  0
 12 13  2  0
  9 14  1  0
 11 15  1  0
 14 16  1  0
 13 17  1  0
 16 18  1  0
 14 19  2  0
 15 20  2  0
 19 20  1  0
 19 21  1  0
 21 22  2  0
  8 23  1  0
 17 23  2  0
 21 24  1  0
 24 25  1  0
 18 26  2  0
 25 27  1  0
 18 28  1  0
 27 29  2  0
 27 30  1  0
 22 31  1  0
 25 31  2  0
 30 32  1  0
 29 33  1  0
 30 34  2  0
 29 35  1  0
 34 36  1  0
 35 36  2  0
 32 37  1  0
 28 38  1  0
 37 38  1  0
 37 39  2  0
M  END
$$$$
O14757_Pocket2Mol_idx-in-all-generaetd-554
     RDKit          3D

 28 32  0  0  0  0  0  0  0  0999 V2000
    2.2608    0.0351   42.1039 C   0  0  0  0  0  0  0  0  0  0  0  0
    2.7906   -1.0673   42.3987 N   0  0  0  0  0  0  0  0  0  0  0  0
    3.1210    0.9973   42.3040 N   0  0  0  0  0  0  0  0  0  0  0  0
    4.0827   -0.7954   42.9700 C   0  0  0  0  0  0  0  0  0  0  0  0
    4.9955   -1.7234   43.5259 N   0  0  0  0  0  0  0  0  0  0  0  0
    4.5382   -2.7016   44.3398 C   0  0  0  0  0  0  0  0  0  0  0  0
    5.3738   -2.9294   45.5228 C   0  0  2  0  0  0  0  0  0  0  0  0
    6.6133   -2.1566   45.5018 C   0  0  0  0  0  0  0  0  0  0  0  0
    4.2841    0.3926   42.8877 N   0  0  0  0  0  0  0  0  0  0  0  0
    5.4441   -4.2364   45.9837 C   0  0  0  0  0  0  0  0  0  0  0  0
    1.9678   -2.2711   42.4114 C   0  0  0  0  0  0  0  0  0  0  0  0
    7.1399   -1.4316   44.7431 O   0  0  0  0  0  0  0  0  0  0  0  0
    7.4936   -2.5586   46.5441 N   0  0  0  0  0  0  0  0  0  0  0  0
    5.8242   -4.4706   47.3868 C   0  0  0  0  0  0  0  0  0  0  0  0
    1.0261   -2.3754   41.4347 C   0  0  0  0  0  0  0  0  0  0  0  0
    0.1189   -3.5468   41.4614 C   0  0  0  0  0  0  0  0  0  0  0  0
    2.2389   -3.3785   43.2951 C   0  0  0  0  0  0  0  0  0  0  0  0
    8.8204   -2.0489   46.8075 C   0  0  0  0  0  0  0  0  0  0  0  0
   -0.9870   -3.6127   40.5758 O   0  0  0  0  0  0  0  0  0  0  0  0
    0.3170   -4.5037   42.4220 C   0  0  0  0  0  0  0  0  0  0  0  0
    7.2892   -3.9107   47.3475 C   0  0  0  0  0  0  0  0  0  0  0  0
    1.3802   -4.4035   43.3357 C   0  0  0  0  0  0  0  0  0  0  0  0
    3.3159   -3.1842   44.2044 C   0  0  0  0  0  0  0  0  0  0  0  0
    9.7467   -2.3640   45.9517 C   0  0  0  0  0  0  0  0  0  0  0  0
   10.9401   -1.6414   45.8994 C   0  0  0  0  0  0  0  0  0  0  0  0
   11.2921   -0.8515   46.9878 C   0  0  0  0  0  0  0  0  0  0  0  0
   10.4062   -0.6735   47.9985 C   0  0  0  0  0  0  0  0  0  0  0  0
    9.0914   -1.3209   47.8705 C   0  0  0  0  0  0  0  0  0  0  0  0
  1  2  1  0
  1  3  2  0
  2  4  1  0
  4  5  1  0
  5  6  1  0
  7  6  1  6
  7  8  1  0
  3  9  1  0
  4  9  2  0
  7 10  1  0
  2 11  1  0
  8 12  2  0
  8 13  1  0
 10 14  1  0
 11 15  2  0
 15 16  1  0
 11 17  1  0
 13 18  1  0
 16 19  1  0
 16 20  2  0
 13 21  1  0
 14 21  1  0
 17 22  2  0
 20 22  1  0
  6 23  2  0
 17 23  1  0
 18 24  2  0
 24 25  1  0
 25 26  2  0
 26 27  1  0
 18 28  1  0
 27 28  2  0
M  END
$$$$
O14757_Pocket2Mol_idx-in-all-generaetd-555
     RDKit          3D

 38 46  0  0  0  0  0  0  0  0999 V2000
    4.8173    0.2791   42.6993 N   0  0  0  0  0  0  0  0  0  0  0  0
    5.3297   -0.7477   43.3688 C   0  0  0  0  0  0  0  0  0  0  0  0
    3.4732   -0.2235   42.4530 C   0  0  0  0  0  0  0  0  0  0  0  0
    4.4984   -1.7876   43.6214 C   0  0  0  0  0  0  0  0  0  0  0  0
    3.3438   -1.5190   42.9379 C   0  0  0  0  0  0  0  0  0  0  0  0
    2.1381   -2.3401   42.8254 C   0  0  0  0  0  0  0  0  0  0  0  0
    2.3894    0.3572   41.9843 N   0  0  0  0  0  0  0  0  0  0  0  0
    4.9180   -3.0430   44.3829 C   0  0  0  0  0  0  0  0  0  0  0  0
    5.9444   -2.9314   45.3934 C   0  0  0  0  0  0  0  0  0  0  0  0
    4.2808   -4.1329   44.3252 C   0  0  0  0  0  0  0  0  0  0  0  0
    3.1588   -4.4221   43.4852 O   0  0  0  0  0  0  0  0  0  0  0  0
    4.5704   -5.2518   45.1995 C   0  0  0  0  0  0  0  0  0  0  0  0
    1.9853   -3.6792   43.3495 C   0  0  0  0  0  0  0  0  0  0  0  0
    0.9181   -4.3294   43.4638 C   0  0  0  0  0  0  0  0  0  0  0  0
    6.7403   -1.6226   45.5272 C   0  0  2  0  0  0  0  0  0  0  0  0
    0.9752   -1.7845   42.3366 C   0  0  0  0  0  0  0  0  0  0  0  0
    6.2516   -3.7287   46.2722 C   0  0  0  0  0  0  0  0  0  0  0  0
   -0.2404   -2.4179   42.2529 C   0  0  0  0  0  0  0  0  0  0  0  0
   -1.3835   -1.8904   41.6559 N   0  0  0  0  0  0  0  0  0  0  0  0
    3.8706   -6.4216   45.1394 O   0  0  0  0  0  0  0  0  0  0  0  0
    0.9456   -0.2789   41.7649 C   0  0  0  0  0  0  0  0  0  0  0  0
   -0.2678   -3.6969   42.7575 C   0  0  0  0  0  0  0  0  0  0  0  0
    6.3913   -0.7000   44.3807 N   0  0  0  0  0  0  0  0  0  0  0  0
    7.9391   -1.5867   46.0069 C   0  0  0  0  0  0  0  0  0  0  0  0
    8.7787   -0.4879   45.9761 O   0  0  0  0  0  0  0  0  0  0  0  0
    5.3853   -5.1216   46.3780 C   0  0  0  0  0  0  0  0  0  0  0  0
    8.4504   -2.7517   46.6262 N   0  0  0  0  0  0  0  0  0  0  0  0
    7.4807   -3.7374   47.0380 C   0  0  0  0  0  0  0  0  0  0  0  0
    9.7442   -2.7944   46.9091 C   0  0  0  0  0  0  0  0  0  0  0  0
   10.5425   -3.4426   45.9689 C   0  0  0  0  0  0  0  0  0  0  0  0
   10.3017   -2.2524   47.9671 C   0  0  0  0  0  0  0  0  0  0  0  0
    9.4843   -1.5208   48.9551 C   0  0  0  0  0  0  0  0  0  0  0  0
   11.9725   -3.4596   46.1303 C   0  0  0  0  0  0  0  0  0  0  0  0
   11.7296   -2.3286   48.1612 C   0  0  0  0  0  0  0  0  0  0  0  0
   12.2963   -1.7544   49.3978 O   0  0  0  0  0  0  0  0  0  0  0  0
   12.5592   -2.9761   47.3323 C   0  0  0  0  0  0  0  0  0  0  0  0
   11.5359   -0.8340   49.9214 C   0  0  0  0  0  0  0  0  0  0  0  0
   10.1636   -1.2634   50.2331 C   0  0  0  0  0  0  0  0  0  0  0  0
  1  2  2  0
  1  3  1  0
  2  4  1  0
  3  5  1  0
  4  5  2  0
  5  6  1  0
  3  7  2  0
  4  8  1  0
  8  9  1  0
  8 10  2  0
 10 11  1  0
 10 12  1  0
  6 13  1  0
 11 13  1  0
 13 14  2  0
  9 15  1  0
  6 16  2  0
  9 17  2  0
 16 18  1  0
 18 19  1  0
 12 20  1  0
  7 21  1  0
 16 21  1  0
 14 22  1  0
 18 22  2  0
  2 23  1  0
 15 23  1  6
 15 24  1  0
 24 25  2  0
 12 26  2  0
 17 26  1  0
 24 27  1  0
 17 28  1  0
 27 28  1  0
 27 29  1  0
 29 30  2  0
 29 31  1  0
 31 32  1  0
 30 33  1  0
 31 34  2  0
 34 35  1  0
 33 36  2  0
 34 36  1  0
 35 37  1  0
 32 38  1  0
 37 38  1  0
M  END
$$$$
O14757_Pocket2Mol_idx-in-all-generaetd-556
     RDKit          3D

 46 53  0  0  0  0  0  0  0  0999 V2000
    5.3420    0.2589   42.8836 O   0  0  0  0  0  0  0  0  0  0  0  0
    5.1627   -0.7554   43.4753 C   0  0  0  0  0  0  0  0  0  0  0  0
    4.0509   -1.4657   43.4177 N   0  0  0  0  0  0  0  0  0  0  0  0
    5.9969   -1.2317   44.6840 C   0  0  0  0  0  0  0  0  0  0  0  0
    2.9618   -1.1021   42.5918 C   0  0  1  0  0  0  0  0  0  0  0  0
    7.3392   -0.8596   44.8412 C   0  0  0  0  0  0  0  0  0  0  0  0
    1.9754   -2.0820   42.2741 C   0  0  0  0  0  0  0  0  0  0  0  0
    5.5910   -2.4282   45.3439 C   0  0  0  0  0  0  0  0  0  0  0  0
    6.5874   -2.9636   46.1581 C   0  0  0  0  0  0  0  0  0  0  0  0
    4.2763   -3.0680   45.0493 N   0  0  0  0  0  0  0  0  0  0  0  0
    3.6188   -2.5886   44.2024 C   0  0  0  0  0  0  0  0  0  0  0  0
    8.1921   -1.4071   45.7505 C   0  0  0  0  0  0  0  0  0  0  0  0
    1.0154   -1.8839   41.2980 C   0  0  0  0  0  0  0  0  0  0  0  0
    2.5720   -3.3564   43.9063 C   0  0  0  0  0  0  0  0  0  0  0  0
    0.2502   -2.8976   41.0751 C   0  0  0  0  0  0  0  0  0  0  0  0
    6.1761   -4.1775   47.0209 C   0  0  0  0  0  0  0  0  0  0  0  0
    1.7266   -3.1047   43.0115 C   0  0  2  0  0  0  0  0  0  0  0  0
    2.3696   -4.5367   44.7536 N   0  0  0  0  0  0  0  0  0  0  0  0
    1.2264   -5.2346   44.4693 C   0  0  0  0  0  0  0  0  0  0  0  0
    0.7187   -3.8955   42.5465 C   0  0  0  0  0  0  0  0  0  0  0  0
    9.4576   -0.8949   46.0327 N   0  0  0  0  0  0  0  0  0  0  0  0
    0.8625   -6.3901   45.2462 C   0  0  0  0  0  0  0  0  0  0  0  0
    7.6467   -2.5139   46.4892 C   0  0  0  0  0  0  0  0  0  0  0  0
   10.4908   -1.5336   45.8242 C   0  0  0  0  0  0  0  0  0  0  0  0
    0.3057   -4.9299   43.2909 C   0  0  0  0  0  0  0  0  0  0  0  0
   11.5916   -1.4291   46.7436 C   0  0  0  0  0  0  0  0  0  0  0  0
   10.5566   -2.3672   44.8649 O   0  0  0  0  0  0  0  0  0  0  0  0
    2.4730    0.2084   42.8389 O   0  0  0  0  0  0  0  0  0  0  0  0
   11.6027   -2.2081   47.7725 N   0  0  0  0  0  0  0  0  0  0  0  0
   12.6189   -0.5862   46.5415 C   0  0  0  0  0  0  0  0  0  0  0  0
   13.6413   -0.4484   47.4129 C   0  0  0  0  0  0  0  0  0  0  0  0
   10.4764   -3.1097   48.1134 C   0  0  0  0  0  0  0  0  0  0  0  0
    9.5762   -2.4717   49.0753 C   0  0  0  0  0  0  0  0  0  0  0  0
    9.7761   -1.2394   49.5167 C   0  0  0  0  0  0  0  0  0  0  0  0
    8.6397   -3.3252   49.7339 C   0  0  0  0  0  0  0  0  0  0  0  0
    8.9861   -0.7034   50.5819 C   0  0  0  0  0  0  0  0  0  0  0  0
   14.7137    0.5128   47.0925 C   0  0  0  0  0  0  0  0  0  0  0  0
    8.3536   -4.6815   49.2042 C   0  0  0  0  0  0  0  0  0  0  0  0
    7.9034   -2.7594   50.6763 C   0  0  0  0  0  0  0  0  0  0  0  0
    8.2628   -1.5944   51.2547 C   0  0  0  0  0  0  0  0  0  0  0  0
   15.0456    0.5476   46.0401 O   0  0  0  0  0  0  0  0  0  0  0  0
   15.1795    1.0527   48.0630 O   0  0  0  0  0  0  0  0  0  0  0  0
   12.6649   -2.1621   48.5770 C   0  0  0  0  0  0  0  0  0  0  0  0
   13.6756   -1.3215   48.3928 C   0  0  0  0  0  0  0  0  0  0  0  0
    6.9681   -4.9803   48.9658 N   0  0  0  0  0  0  0  0  0  0  0  0
    6.4361   -4.1090   48.3447 N   0  0  0  0  0  0  0  0  0  0  0  0
  1  2  2  0
  2  3  1  0
  2  4  1  0
  3  5  1  0
  4  6  2  0
  5  7  1  0
  4  8  1  0
  8  9  2  0
  8 10  1  0
  3 11  1  0
 10 11  2  0
  6 12  1  0
  7 13  2  0
 11 14  1  0
 13 15  1  0
  9 16  1  0
 17  7  1  6
 14 17  1  0
 14 18  2  0
 18 19  1  0
 15 20  2  0
 17 20  1  0
 12 21  1  0
 19 22  1  0
  9 23  1  0
 12 23  2  0
 21 24  1  0
 19 25  2  0
 20 25  1  0
 24 26  1  0
 24 27  2  0
  5 28  1  1
 26 29  1  0
 26 30  2  0
 30 31  1  0
 29 32  1  0
 32 33  1  0
 33 34  1  0
 33 35  2  0
 34 36  2  0
 31 37  1  0
 35 38  1  0
 35 39  1  0
 36 40  1  0
 39 40  2  0
 37 41  2  0
 37 42  1  0
 29 43  1  0
 31 44  2  0
 43 44  1  0
 38 45  1  0
 16 46  1  0
 45 46  1  0
M  END
$$$$
O14757_Pocket2Mol_idx-in-all-generaetd-557
     RDKit          3D

 39 45  0  0  0  0  0  0  0  0999 V2000
    5.3420    0.2589   42.8836 O   0  0  0  0  0  0  0  0  0  0  0  0
    5.1627   -0.7554   43.4753 C   0  0  0  0  0  0  0  0  0  0  0  0
    4.0509   -1.4657   43.4177 N   0  0  0  0  0  0  0  0  0  0  0  0
    5.9969   -1.2317   44.6840 C   0  0  0  0  0  0  0  0  0  0  0  0
    2.9618   -1.1021   42.5918 C   0  0  0  0  0  0  0  0  0  0  0  0
    7.3392   -0.8596   44.8412 C   0  0  0  0  0  0  0  0  0  0  0  0
    1.9754   -2.0820   42.2741 C   0  0  0  0  0  0  0  0  0  0  0  0
    5.5910   -2.4282   45.3439 C   0  0  0  0  0  0  0  0  0  0  0  0
    6.5874   -2.9636   46.1581 C   0  0  0  0  0  0  0  0  0  0  0  0
    4.2763   -3.0680   45.0493 N   0  0  0  0  0  0  0  0  0  0  0  0
    3.6188   -2.5886   44.2024 C   0  0  0  0  0  0  0  0  0  0  0  0
    8.1921   -1.4071   45.7505 C   0  0  0  0  0  0  0  0  0  0  0  0
    1.0154   -1.8839   41.2980 C   0  0  0  0  0  0  0  0  0  0  0  0
    2.5720   -3.3564   43.9063 C   0  0  0  0  0  0  0  0  0  0  0  0
    0.2502   -2.8976   41.0751 C   0  0  0  0  0  0  0  0  0  0  0  0
    6.1761   -4.1775   47.0209 C   0  0  0  0  0  0  0  0  0  0  0  0
    1.7266   -3.1047   43.0115 C   0  0  2  0  0  0  0  0  0  0  0  0
    2.3696   -4.5367   44.7536 N   0  0  0  0  0  0  0  0  0  0  0  0
    1.2264   -5.2346   44.4693 C   0  0  0  0  0  0  0  0  0  0  0  0
    0.7187   -3.8955   42.5465 C   0  0  0  0  0  0  0  0  0  0  0  0
    9.4576   -0.8949   46.0327 N   0  0  0  0  0  0  0  0  0  0  0  0
    0.8625   -6.3901   45.2462 C   0  0  0  0  0  0  0  0  0  0  0  0
    7.6467   -2.5139   46.4892 C   0  0  0  0  0  0  0  0  0  0  0  0
   10.4908   -1.5336   45.8242 C   0  0  0  0  0  0  0  0  0  0  0  0
    0.3057   -4.9299   43.2909 C   0  0  0  0  0  0  0  0  0  0  0  0
   11.5916   -1.4291   46.7436 C   0  0  0  0  0  0  0  0  0  0  0  0
   10.5566   -2.3672   44.8649 O   0  0  0  0  0  0  0  0  0  0  0  0
   11.6051   -2.2111   47.7709 N   0  0  0  0  0  0  0  0  0  0  0  0
   12.6215   -0.5876   46.5424 C   0  0  0  0  0  0  0  0  0  0  0  0
   12.5420   -2.0938   48.7186 C   0  0  0  0  0  0  0  0  0  0  0  0
    3.0270    0.0702   42.0603 O   0  0  0  0  0  0  0  0  0  0  0  0
   12.6957    0.2513   45.2919 C   0  0  0  0  0  0  0  0  0  0  0  0
   13.6707   -0.5939   47.5160 C   0  0  0  0  0  0  0  0  0  0  0  0
   14.8467    0.2782   47.2613 C   0  0  0  0  0  0  0  0  0  0  0  0
   12.4911   -3.0963   49.9113 C   0  0  0  0  0  0  0  0  0  0  0  0
   14.7725    1.1004   46.1285 C   0  0  0  0  0  0  0  0  0  0  0  0
   13.7307   -1.3586   48.6313 N   0  0  0  0  0  0  0  0  0  0  0  0
   15.8785    1.9977   45.8632 O   0  0  0  0  0  0  0  0  0  0  0  0
   13.7470    0.9934   45.2430 C   0  0  0  0  0  0  0  0  0  0  0  0
  1  2  2  0
  2  3  1  0
  2  4  1  0
  3  5  1  0
  4  6  2  0
  5  7  1  0
  4  8  1  0
  8  9  2  0
  8 10  1  0
  3 11  1  0
 10 11  2  0
  6 12  1  0
  7 13  2  0
 11 14  1  0
 13 15  1  0
  9 16  1  0
 17  7  1  6
 14 17  1  0
 14 18  2  0
 18 19  1  0
 15 20  2  0
 17 20  1  0
 12 21  1  0
 19 22  1  0
  9 23  1  0
 12 23  2  0
 21 24  1  0
 19 25  2  0
 20 25  1  0
 24 26  1  0
 24 27  2  0
 26 28  2  0
 26 29  1  0
 28 30  1  0
  5 31  2  0
 29 32  2  0
 29 33  1  0
 33 34  2  0
 30 35  1  0
 34 36  1  0
 30 37  2  0
 33 37  1  0
 36 38  1  0
 32 39  1  0
 36 39  2  0
M  END
$$$$
O14757_Pocket2Mol_idx-in-all-generaetd-558
     RDKit          3D

 37 44  0  0  0  0  0  0  0  0999 V2000
    4.8037   -0.1366   42.7100 N   0  0  0  0  0  0  0  0  0  0  0  0
    3.6577   -0.7759   42.7186 C   0  0  0  0  0  0  0  0  0  0  0  0
    3.6660   -1.8665   43.4760 C   0  0  0  0  0  0  0  0  0  0  0  0
    2.7271   -2.8718   43.6599 C   0  0  0  0  0  0  0  0  0  0  0  0
    2.4846   -0.2994   42.1254 N   0  0  0  0  0  0  0  0  0  0  0  0
    5.0524   -1.7697   43.9367 C   0  0  0  0  0  0  0  0  0  0  0  0
    1.4917   -2.9000   43.0914 C   0  0  0  0  0  0  0  0  0  0  0  0
    3.1274   -3.9503   44.5163 C   0  0  0  0  0  0  0  0  0  0  0  0
    1.0744   -1.9066   42.1491 C   0  0  2  0  0  0  0  0  0  0  0  0
    5.6624   -0.7003   43.4895 C   0  0  0  0  0  0  0  0  0  0  0  0
    5.5753   -2.5784   45.0324 C   0  0  0  0  0  0  0  0  0  0  0  0
    0.4030   -3.6297   43.4883 N   0  0  0  0  0  0  0  0  0  0  0  0
    1.5052   -0.8077   41.7519 C   0  0  0  0  0  0  0  0  0  0  0  0
   -0.5645   -3.4039   42.5585 N   0  0  0  0  0  0  0  0  0  0  0  0
    2.5059   -5.1012   44.7935 C   0  0  0  0  0  0  0  0  0  0  0  0
    4.4581   -3.8218   45.2947 C   0  0  0  0  0  0  0  0  0  0  0  0
   -0.3089   -2.3979   41.8128 C   0  0  0  0  0  0  0  0  0  0  0  0
    6.6435   -2.6577   45.6991 C   0  0  0  0  0  0  0  0  0  0  0  0
    7.0869   -3.7008   46.4717 C   0  0  0  0  0  0  0  0  0  0  0  0
    7.5912   -1.5296   45.5455 C   0  0  0  0  0  0  0  0  0  0  0  0
    8.7765   -1.4352   46.2248 C   0  0  0  0  0  0  0  0  0  0  0  0
    6.3069   -4.7944   46.6836 O   0  0  0  0  0  0  0  0  0  0  0  0
    4.8984   -4.5252   46.1302 C   0  0  0  0  0  0  0  0  0  0  0  0
    4.2122   -5.9932   46.2216 C   0  0  0  0  0  0  0  0  0  0  0  0
    8.3395   -3.6608   47.2172 C   0  0  0  0  0  0  0  0  0  0  0  0
    4.6690   -6.8778   47.1549 O   0  0  0  0  0  0  0  0  0  0  0  0
    9.1822   -2.5745   47.1243 C   0  0  0  0  0  0  0  0  0  0  0  0
    2.9603   -6.0414   45.6688 C   0  0  0  0  0  0  0  0  0  0  0  0
   10.4349   -2.3996   47.8362 C   0  0  0  0  0  0  0  0  0  0  0  0
   10.5770   -1.5405   48.6790 O   0  0  0  0  0  0  0  0  0  0  0  0
   11.4736   -2.9717   47.2121 O   0  0  0  0  0  0  0  0  0  0  0  0
   12.5933   -2.4739   47.2623 C   0  0  0  0  0  0  0  0  0  0  0  0
   12.9974   -2.0618   45.8386 C   0  0  0  0  0  0  0  0  0  0  0  0
   14.1850   -1.6789   45.5119 C   0  0  0  0  0  0  0  0  0  0  0  0
   15.1565   -1.9161   46.4664 C   0  0  0  0  0  0  0  0  0  0  0  0
   15.0517   -2.4256   47.6516 C   0  0  0  0  0  0  0  0  0  0  0  0
   13.7128   -2.7479   48.0289 C   0  0  0  0  0  0  0  0  0  0  0  0
  1  2  2  0
  2  3  1  0
  3  4  2  0
  2  5  1  0
  3  6  1  0
  4  7  1  0
  4  8  1  0
  7  9  1  0
  1 10  1  0
  6 10  1  0
  6 11  2  0
  7 12  2  0
  5 13  2  0
  9 13  1  1
 12 14  1  0
  8 15  2  0
  8 16  1  0
 11 16  1  0
  9 17  1  0
 14 17  2  0
 11 18  1  0
 18 19  2  0
 18 20  1  0
 20 21  2  0
 19 22  1  0
 16 23  2  0
 22 23  1  0
 23 24  1  0
 19 25  1  0
 24 26  1  0
 21 27  1  0
 25 27  2  0
 15 28  1  0
 24 28  2  0
 27 29  1  0
 29 30  2  0
 29 31  1  0
 31 32  1  0
 32 33  2  0
 33 34  1  0
 34 35  2  0
 35 36  1  0
 32 37  1  0
 36 37  2  0
M  END
$$$$
O14757_Pocket2Mol_idx-in-all-generaetd-559
     RDKit          3D

 39 46  0  0  0  0  0  0  0  0999 V2000
    1.5482   -0.3111   41.9233 C   0  0  0  0  0  0  0  0  0  0  0  0
    2.7284    0.2018   42.1525 N   0  0  0  0  0  0  0  0  0  0  0  0
    3.7893   -0.3016   42.7005 C   0  0  0  0  0  0  0  0  0  0  0  0
    3.3781   -1.7350   43.0000 C   0  0  0  0  0  0  0  0  0  0  0  0
    2.0339   -1.9619   42.6217 C   0  0  0  0  0  0  0  0  0  0  0  0
    5.0090    0.1219   42.9340 N   0  0  0  0  0  0  0  0  0  0  0  0
    4.2895   -2.4979   43.6707 C   0  0  0  0  0  0  0  0  0  0  0  0
    5.8391   -0.6675   43.6343 C   0  0  0  0  0  0  0  0  0  0  0  0
    6.9849   -0.2377   44.0028 N   0  0  0  0  0  0  0  0  0  0  0  0
    4.0426   -3.8794   44.0832 C   0  0  0  0  0  0  0  0  0  0  0  0
    7.6796   -0.8734   44.9326 C   0  0  0  0  0  0  0  0  0  0  0  0
    1.1064   -2.9576   42.4211 C   0  0  0  0  0  0  0  0  0  0  0  0
    5.5298   -1.9496   44.0315 C   0  0  0  0  0  0  0  0  0  0  0  0
    3.8954   -4.1817   45.4718 C   0  0  0  0  0  0  0  0  0  0  0  0
    0.6765   -3.5480   43.4006 C   0  0  1  0  0  0  0  0  0  0  0  0
    0.5804   -3.2191   41.1635 C   0  0  0  0  0  0  0  0  0  0  0  0
    2.8083   -4.8227   45.9203 N   0  0  0  0  0  0  0  0  0  0  0  0
   -0.1574   -4.5754   42.9329 N   0  0  0  0  0  0  0  0  0  0  0  0
    6.5271   -2.5531   44.9677 C   0  0  0  0  0  0  0  0  0  0  0  0
   -0.2272   -4.3703   41.5137 C   0  0  0  0  0  0  0  0  0  0  0  0
    7.5095   -2.0029   45.3993 C   0  0  0  0  0  0  0  0  0  0  0  0
    8.2550   -2.6982   46.3988 C   0  0  2  0  0  0  0  0  0  0  0  0
    8.8975   -0.3029   45.3267 O   0  0  0  0  0  0  0  0  0  0  0  0
    4.8299   -4.4637   46.4212 C   0  0  0  0  0  0  0  0  0  0  0  0
    4.2707   -4.9248   47.6295 N   0  0  0  0  0  0  0  0  0  0  0  0
    3.2045   -5.2092   47.1521 C   0  0  0  0  0  0  0  0  0  0  0  0
    1.4482   -4.6186   45.4134 C   0  0  2  0  0  0  0  0  0  0  0  0
    1.2398   -3.5043   44.6236 O   0  0  0  0  0  0  0  0  0  0  0  0
    6.3317   -3.9297   46.0870 C   0  0  2  0  0  0  0  0  0  0  0  0
    9.5296   -2.5449   46.9776 C   0  0  0  0  0  0  0  0  0  0  0  0
    9.7921   -1.7530   47.9018 O   0  0  0  0  0  0  0  0  0  0  0  0
    7.4454   -3.8344   46.8035 C   0  0  0  0  0  0  0  0  0  0  0  0
   10.5010   -3.0847   46.3190 O   0  0  0  0  0  0  0  0  0  0  0  0
    0.5569   -4.7693   46.5649 C   0  0  0  0  0  0  0  0  0  0  0  0
   11.7452   -2.8462   46.6234 C   0  0  1  0  0  0  0  0  0  0  0  0
   12.4186   -3.8680   47.1468 C   0  0  0  0  0  0  0  0  0  0  0  0
   11.9026   -5.0270   47.0501 O   0  0  0  0  0  0  0  0  0  0  0  0
   13.5864   -3.7621   47.7460 O   0  0  0  0  0  0  0  0  0  0  0  0
   12.5114   -2.2938   45.3489 C   0  0  0  0  0  0  0  0  0  0  0  0
  1  2  1  0
  2  3  2  0
  3  4  1  0
  1  5  2  0
  4  5  1  0
  3  6  1  0
  4  7  2  0
  6  8  1  0
  8  9  1  0
  7 10  1  0
  9 11  1  0
  5 12  1  0
  7 13  1  0
  8 13  2  0
 10 14  1  0
 12 15  1  0
 12 16  2  0
 14 17  1  0
 15 18  1  0
 13 19  1  0
 16 20  1  0
 18 20  2  0
 11 21  1  0
 19 21  2  0
 21 22  1  0
 11 23  2  0
 14 24  2  0
 24 25  1  0
 17 26  1  0
 25 26  2  0
 17 27  1  0
 15 28  1  6
 27 28  1  0
 19 29  1  0
 24 29  1  0
 22 30  1  6
 30 31  2  0
 22 32  1  0
 29 32  1  1
 30 33  1  0
 27 34  1  1
 33 35  1  0
 35 36  1  0
 36 37  2  0
 36 38  1  0
 35 39  1  6
M  END
$$$$
O14757_Pocket2Mol_idx-in-all-generaetd-560
     RDKit          3D

 30 35  0  0  0  0  0  0  0  0999 V2000
    5.5575   -0.4055   43.2321 N   0  0  0  0  0  0  0  0  0  0  0  0
    4.5233    0.0727   42.5988 N   0  0  0  0  0  0  0  0  0  0  0  0
    5.1726   -1.5114   43.9314 C   0  0  0  0  0  0  0  0  0  0  0  0
    5.9080   -2.2268   44.9217 C   0  0  0  0  0  0  0  0  0  0  0  0
    5.3635   -3.3861   45.5121 C   0  0  0  0  0  0  0  0  0  0  0  0
    7.1791   -1.7734   45.4544 C   0  0  0  0  0  0  0  0  0  0  0  0
    3.4069   -0.5377   42.5980 C   0  0  0  0  0  0  0  0  0  0  0  0
    2.1839   -0.4257   41.9942 C   0  0  0  0  0  0  0  0  0  0  0  0
    3.7449   -1.7453   43.5024 C   0  0  0  0  0  0  0  0  0  0  0  0
    7.8525   -0.6503   45.0420 O   0  0  0  0  0  0  0  0  0  0  0  0
    7.8789   -2.5576   46.3941 C   0  0  0  0  0  0  0  0  0  0  0  0
    2.8045   -2.7414   43.6928 C   0  0  1  0  0  0  0  0  0  0  0  0
    9.2115   -2.0969   46.8642 C   0  0  0  0  0  0  0  0  0  0  0  0
    4.0793   -3.8977   45.1232 C   0  0  1  0  0  0  0  0  0  0  0  0
    7.1913   -3.6941   46.9496 C   0  0  0  0  0  0  0  0  0  0  0  0
    6.0590   -4.0757   46.5019 C   0  0  0  0  0  0  0  0  0  0  0  0
    1.6490   -2.6373   42.8534 C   0  0  0  0  0  0  0  0  0  0  0  0
    0.5956   -3.6893   42.8101 C   0  0  0  0  0  0  0  0  0  0  0  0
    9.3005   -1.4726   47.8971 O   0  0  0  0  0  0  0  0  0  0  0  0
    1.3376   -1.5114   42.0773 C   0  0  0  0  0  0  0  0  0  0  0  0
    3.0680   -3.8779   44.4095 C   0  0  1  0  0  0  0  0  0  0  0  0
    0.6235   -4.4716   43.7755 C   0  0  0  0  0  0  0  0  0  0  0  0
    1.9482   -4.8212   44.4690 N   0  0  0  0  0  0  0  0  0  0  0  0
    2.2980   -5.9094   45.3439 C   0  0  0  0  0  0  0  0  0  0  0  0
    3.9647   -5.4581   45.7045 C   0  0  0  0  0  0  0  0  0  0  0  0
   10.2047   -2.6364   46.2464 O   0  0  0  0  0  0  0  0  0  0  0  0
   11.0518   -3.3755   46.9139 C   0  0  0  0  0  0  0  0  0  0  0  0
   10.7589   -4.7420   46.7824 C   0  0  0  0  0  0  0  0  0  0  0  0
   10.3536   -5.1368   45.8390 O   0  0  0  0  0  0  0  0  0  0  0  0
   11.4568   -5.6520   47.6044 O   0  0  0  0  0  0  0  0  0  0  0  0
  1  2  2  0
  1  3  1  0
  3  4  1  0
  4  5  2  0
  4  6  1  0
  2  7  1  0
  7  8  2  0
  3  9  2  0
  7  9  1  0
  6 10  1  0
  6 11  2  0
  9 12  1  0
 11 13  1  0
  5 14  1  0
 11 15  1  0
  5 16  1  0
 15 16  2  0
 12 17  1  6
 17 18  1  0
 13 19  2  0
  8 20  1  0
 17 20  2  0
 12 21  1  0
 14 21  1  0
 18 22  1  0
 21 23  1  1
 22 23  1  0
 23 24  1  0
 14 25  1  6
 24 25  1  0
 13 26  1  0
 26 27  1  0
 27 28  1  0
 28 29  2  0
 28 30  1  0
M  END
$$$$
O14757_Pocket2Mol_idx-in-all-generaetd-561
     RDKit          3D

 49 58  0  0  0  0  0  0  0  0999 V2000
    1.5482   -0.3111   41.9233 C   0  0  0  0  0  0  0  0  0  0  0  0
    2.7284    0.2018   42.1525 N   0  0  0  0  0  0  0  0  0  0  0  0
    3.7893   -0.3016   42.7005 C   0  0  0  0  0  0  0  0  0  0  0  0
    3.3781   -1.7350   43.0000 C   0  0  0  0  0  0  0  0  0  0  0  0
    2.0339   -1.9619   42.6217 C   0  0  0  0  0  0  0  0  0  0  0  0
    5.0090    0.1219   42.9340 N   0  0  0  0  0  0  0  0  0  0  0  0
    4.2895   -2.4979   43.6707 C   0  0  0  0  0  0  0  0  0  0  0  0
    5.8391   -0.6675   43.6343 C   0  0  0  0  0  0  0  0  0  0  0  0
    6.9849   -0.2377   44.0028 N   0  0  0  0  0  0  0  0  0  0  0  0
    4.0426   -3.8794   44.0832 C   0  0  0  0  0  0  0  0  0  0  0  0
    7.6796   -0.8734   44.9326 C   0  0  0  0  0  0  0  0  0  0  0  0
    1.1064   -2.9576   42.4211 C   0  0  0  0  0  0  0  0  0  0  0  0
    5.5298   -1.9496   44.0315 C   0  0  0  0  0  0  0  0  0  0  0  0
    3.8954   -4.1817   45.4718 C   0  0  0  0  0  0  0  0  0  0  0  0
    0.6765   -3.5480   43.4006 C   0  0  1  0  0  0  0  0  0  0  0  0
    0.5804   -3.2191   41.1635 C   0  0  0  0  0  0  0  0  0  0  0  0
    2.8083   -4.8227   45.9203 N   0  0  0  0  0  0  0  0  0  0  0  0
   -0.1574   -4.5754   42.9329 N   0  0  0  0  0  0  0  0  0  0  0  0
    6.5271   -2.5531   44.9677 C   0  0  0  0  0  0  0  0  0  0  0  0
   -0.2272   -4.3703   41.5137 C   0  0  0  0  0  0  0  0  0  0  0  0
    7.5095   -2.0029   45.3993 C   0  0  0  0  0  0  0  0  0  0  0  0
    8.2550   -2.6982   46.3988 C   0  0  1  0  0  0  0  0  0  0  0  0
    8.8975   -0.3029   45.3267 O   0  0  0  0  0  0  0  0  0  0  0  0
    4.8299   -4.4637   46.4212 C   0  0  0  0  0  0  0  0  0  0  0  0
    4.2707   -4.9248   47.6295 N   0  0  0  0  0  0  0  0  0  0  0  0
    3.2045   -5.2092   47.1521 C   0  0  0  0  0  0  0  0  0  0  0  0
    1.4482   -4.6186   45.4134 C   0  0  0  0  0  0  0  0  0  0  0  0
    1.3256   -3.7660   44.6394 N   0  0  0  0  0  0  0  0  0  0  0  0
    9.2816   -2.1418   47.1273 N   0  0  0  0  0  0  0  0  0  0  0  0
   10.0629   -3.1324   47.8508 C   0  0  0  0  0  0  0  0  0  0  0  0
    6.3491   -3.8960   46.0844 C   0  0  2  0  0  0  0  0  0  0  0  0
    7.4349   -3.5889   46.9054 C   0  0  0  0  0  0  0  0  0  0  0  0
   10.3145   -2.7271   49.0818 O   0  0  0  0  0  0  0  0  0  0  0  0
    0.6213   -5.4445   45.7455 O   0  0  0  0  0  0  0  0  0  0  0  0
   11.0262   -3.8136   47.1050 C   0  0  0  0  0  0  0  0  0  0  0  0
   12.1704   -3.3854   46.7547 C   0  0  0  0  0  0  0  0  0  0  0  0
   13.1080   -4.1111   46.0053 C   0  0  0  0  0  0  0  0  0  0  0  0
   14.3489   -3.5966   45.7888 C   0  0  0  0  0  0  0  0  0  0  0  0
   12.7430   -5.2725   45.5056 C   0  0  0  0  0  0  0  0  0  0  0  0
   14.6935   -2.2816   45.3353 C   0  0  0  0  0  0  0  0  0  0  0  0
   15.8828   -1.9964   44.9887 C   0  0  0  0  0  0  0  0  0  0  0  0
   15.4347   -4.4529   45.9716 C   0  0  0  0  0  0  0  0  0  0  0  0
   16.1869   -0.5957   44.4528 O   0  0  0  0  0  0  0  0  0  0  0  0
   16.7870   -3.8955   45.6256 C   0  0  0  0  0  0  0  0  0  0  0  0
   10.5463   -5.1056   46.6736 C   0  0  0  0  0  0  0  0  0  0  0  0
   16.9897   -2.7283   45.1718 C   0  0  0  0  0  0  0  0  0  0  0  0
    9.3121   -5.6231   46.8852 F   0  0  0  0  0  0  0  0  0  0  0  0
   15.0231    0.1438   44.2278 C   0  0  0  0  0  0  0  0  0  0  0  0
   11.3773   -5.7997   45.8159 C   0  0  0  0  0  0  0  0  0  0  0  0
  1  2  1  0
  2  3  2  0
  3  4  1  0
  1  5  2  0
  4  5  1  0
  3  6  1  0
  4  7  2  0
  6  8  1  0
  8  9  1  0
  7 10  1  0
  9 11  1  0
  5 12  1  0
  7 13  1  0
  8 13  2  0
 10 14  1  0
 12 15  1  0
 12 16  2  0
 14 17  1  0
 15 18  1  0
 13 19  1  0
 16 20  1  0
 18 20  2  0
 11 21  1  0
 19 21  2  0
 21 22  1  0
 11 23  2  0
 14 24  2  0
 24 25  1  0
 17 26  1  0
 25 26  2  0
 17 27  1  0
 15 28  1  6
 27 28  1  0
 22 29  1  1
 29 30  1  0
 19 31  1  0
 24 31  1  0
 22 32  1  0
 31 32  1  1
 30 33  2  0
 27 34  2  0
 30 35  1  0
 35 36  2  0
 36 37  1  0
 37 38  1  0
 37 39  2  0
 38 40  2  0
 40 41  1  0
 38 42  1  0
 41 43  1  0
 42 44  2  0
 35 45  1  0
 41 46  2  0
 44 46  1  0
 45 47  1  0
 43 48  1  0
 39 49  1  0
 45 49  2  0
M  END
$$$$
O14757_Pocket2Mol_idx-in-all-generaetd-562
     RDKit          3D

 29 32  0  0  0  0  0  0  0  0999 V2000
    0.3497   -2.5592   41.5321 C   0  0  0  0  0  0  0  0  0  0  0  0
    0.7059   -1.3065   41.4152 C   0  0  0  0  0  0  0  0  0  0  0  0
    2.0121   -0.9206   42.0074 C   0  0  0  0  0  0  0  0  0  0  0  0
    2.8273   -1.8583   42.7096 C   0  0  0  0  0  0  0  0  0  0  0  0
   -0.9158   -2.9896   41.0259 O   0  0  0  0  0  0  0  0  0  0  0  0
    2.1785   -3.2182   42.8202 C   0  0  0  0  0  0  0  0  0  0  0  0
    2.9957   -4.0364   43.6549 N   0  0  0  0  0  0  0  0  0  0  0  0
    1.0381   -3.5102   42.3147 C   0  0  0  0  0  0  0  0  0  0  0  0
    4.0501   -1.4436   43.3296 C   0  0  0  0  0  0  0  0  0  0  0  0
    4.2345   -3.7127   44.1966 C   0  0  0  0  0  0  0  0  0  0  0  0
    4.9099   -4.6363   45.0387 N   0  0  0  0  0  0  0  0  0  0  0  0
    4.7563   -2.4299   44.0678 C   0  0  0  0  0  0  0  0  0  0  0  0
    6.0306   -2.0532   44.6670 C   0  0  0  0  0  0  0  0  0  0  0  0
    4.6111   -0.1656   43.0716 N   0  0  0  0  0  0  0  0  0  0  0  0
    6.7834   -2.7598   45.5925 N   0  0  0  0  0  0  0  0  0  0  0  0
    8.0062   -2.3962   46.0654 C   0  0  0  0  0  0  0  0  0  0  0  0
    8.3845   -1.1262   46.4117 C   0  0  0  0  0  0  0  0  0  0  0  0
    6.3026   -0.6817   44.5619 N   0  0  0  0  0  0  0  0  0  0  0  0
   -2.1386   -2.6057   41.5146 C   0  0  0  0  0  0  0  0  0  0  0  0
    5.6712    0.0977   43.6769 N   0  0  0  0  0  0  0  0  0  0  0  0
    8.9063   -3.4595   46.3186 C   0  0  0  0  0  0  0  0  0  0  0  0
    9.6728   -0.9555   46.7630 C   0  0  0  0  0  0  0  0  0  0  0  0
    8.4079   -4.8571   46.1334 O   0  0  0  0  0  0  0  0  0  0  0  0
   10.5484   -1.9382   47.0570 C   0  0  0  0  0  0  0  0  0  0  0  0
   10.1717   -3.2395   46.8588 C   0  0  0  0  0  0  0  0  0  0  0  0
   11.0825   -4.2503   47.1278 C   0  0  0  0  0  0  0  0  0  0  0  0
   11.2491   -4.7434   48.2804 O   0  0  0  0  0  0  0  0  0  0  0  0
   11.6709   -4.9498   46.2124 O   0  0  0  0  0  0  0  0  0  0  0  0
   10.8592   -5.9597   48.6605 C   0  0  0  0  0  0  0  0  0  0  0  0
  1  2  2  0
  2  3  1  0
  3  4  2  0
  1  5  1  0
  4  6  1  0
  6  7  1  0
  1  8  1  0
  6  8  2  0
  4  9  1  0
  7 10  2  0
 10 11  1  0
  9 12  2  0
 10 12  1  0
 12 13  1  0
  9 14  1  0
 13 15  1  0
 15 16  1  0
 16 17  2  0
 13 18  2  0
  5 19  1  0
 14 20  2  0
 18 20  1  0
 16 21  1  0
 17 22  1  0
 21 23  1  0
 22 24  2  0
 21 25  2  0
 24 25  1  0
 25 26  1  0
 26 27  1  0
 26 28  2  0
 27 29  1  0
M  END
$$$$
O14757_Pocket2Mol_idx-in-all-generaetd-563
     RDKit          3D

 32 37  0  0  0  0  0  0  0  0999 V2000
    5.5575   -0.4055   43.2321 N   0  0  0  0  0  0  0  0  0  0  0  0
    5.4916   -1.4617   44.0350 C   0  0  0  0  0  0  0  0  0  0  0  0
    4.3553   -0.1547   42.7099 N   0  0  0  0  0  0  0  0  0  0  0  0
    3.5224   -1.1568   42.9284 C   0  0  0  0  0  0  0  0  0  0  0  0
    2.1507   -1.3006   42.5845 C   0  0  0  0  0  0  0  0  0  0  0  0
    4.2124   -1.9924   43.9667 C   0  0  1  0  0  0  0  0  0  0  0  0
    3.6929   -3.2283   44.3876 C   0  0  0  0  0  0  0  0  0  0  0  0
    6.5651   -2.0426   44.8298 C   0  0  0  0  0  0  0  0  0  0  0  0
    7.6833   -1.2716   45.0970 C   0  0  0  0  0  0  0  0  0  0  0  0
    6.2468   -2.9038   45.8838 C   0  0  0  0  0  0  0  0  0  0  0  0
    1.4576   -2.4785   42.6650 C   0  0  1  0  0  0  0  0  0  0  0  0
    1.5384   -0.1297   42.0802 C   0  0  0  0  0  0  0  0  0  0  0  0
    2.6511   -3.8570   44.0676 C   0  0  0  0  0  0  0  0  0  0  0  0
    1.6090   -3.4980   43.1647 C   0  0  0  0  0  0  0  0  0  0  0  0
    0.6908   -4.5477   43.0875 N   0  0  0  0  0  0  0  0  0  0  0  0
    0.2168   -2.0759   41.9239 C   0  0  0  0  0  0  0  0  0  0  0  0
    7.5356   -3.1085   46.6525 C   0  0  0  0  0  0  0  0  0  0  0  0
    2.4864   -5.1883   44.6960 C   0  0  0  0  0  0  0  0  0  0  0  0
    8.4346   -1.9391   46.2039 N   0  0  0  0  0  0  0  0  0  0  0  0
    9.7431   -1.8109   46.6107 C   0  0  0  0  0  0  0  0  0  0  0  0
    0.2121   -0.5211   41.5014 C   0  0  0  0  0  0  0  0  0  0  0  0
    0.7918   -5.6770   43.8758 C   0  0  0  0  0  0  0  0  0  0  0  0
    7.7909   -3.8448   47.6035 O   0  0  0  0  0  0  0  0  0  0  0  0
    9.9621   -1.5791   47.8181 C   0  0  0  0  0  0  0  0  0  0  0  0
   11.4098   -1.3838   48.1705 C   0  0  0  0  0  0  0  0  0  0  0  0
   10.7771   -1.8248   45.6312 C   0  0  0  0  0  0  0  0  0  0  0  0
   11.9802   -1.7329   46.0522 C   0  0  0  0  0  0  0  0  0  0  0  0
   13.1743   -1.8168   45.0117 O   0  0  0  0  0  0  0  0  0  0  0  0
   13.0589   -1.0859   43.8933 C   0  0  0  0  0  0  0  0  0  0  0  0
   11.6629   -1.1782   49.6733 O   0  0  0  0  0  0  0  0  0  0  0  0
   12.4151   -1.4987   47.3787 C   0  0  0  0  0  0  0  0  0  0  0  0
   10.8410   -0.3883   50.3720 C   0  0  0  0  0  0  0  0  0  0  0  0
  1  2  2  0
  1  3  1  0
  3  4  2  0
  4  5  1  0
  2  6  1  0
  4  6  1  0
  6  7  1  6
  2  8  1  0
  8  9  1  0
  8 10  2  0
  5 11  1  0
  5 12  2  0
  7 13  2  0
 11 14  1  0
 13 14  1  0
 14 15  2  0
 11 16  1  1
 10 17  1  0
 13 18  1  0
  9 19  1  0
 17 19  1  0
 19 20  1  0
 12 21  1  0
 16 21  2  0
 15 22  1  0
 18 22  2  0
 17 23  2  0
 20 24  2  0
 24 25  1  0
 20 26  1  0
 26 27  2  0
 27 28  1  0
 28 29  1  0
 25 30  1  0
 25 31  2  0
 27 31  1  0
 30 32  1  0
M  END
$$$$
O14757_Pocket2Mol_idx-in-all-generaetd-564
     RDKit          3D

 32 38  0  0  0  0  0  0  0  0999 V2000
    4.8173    0.2791   42.6993 N   0  0  0  0  0  0  0  0  0  0  0  0
    5.3297   -0.7477   43.3688 C   0  0  0  0  0  0  0  0  0  0  0  0
    3.4732   -0.2235   42.4530 C   0  0  0  0  0  0  0  0  0  0  0  0
    4.4984   -1.7876   43.6214 C   0  0  0  0  0  0  0  0  0  0  0  0
    3.3438   -1.5190   42.9379 C   0  0  0  0  0  0  0  0  0  0  0  0
    2.1381   -2.3401   42.8254 C   0  0  0  0  0  0  0  0  0  0  0  0
    2.3894    0.3572   41.9843 N   0  0  0  0  0  0  0  0  0  0  0  0
    4.9180   -3.0430   44.3829 C   0  0  0  0  0  0  0  0  0  0  0  0
    5.9444   -2.9314   45.3934 C   0  0  0  0  0  0  0  0  0  0  0  0
    4.2808   -4.1329   44.3252 C   0  0  0  0  0  0  0  0  0  0  0  0
    3.1588   -4.4221   43.4852 O   0  0  0  0  0  0  0  0  0  0  0  0
    4.5704   -5.2518   45.1995 C   0  0  0  0  0  0  0  0  0  0  0  0
    1.9853   -3.6792   43.3495 C   0  0  0  0  0  0  0  0  0  0  0  0
    0.9181   -4.3294   43.4638 C   0  0  0  0  0  0  0  0  0  0  0  0
    6.7403   -1.6226   45.5272 C   0  0  2  0  0  0  0  0  0  0  0  0
    0.9752   -1.7845   42.3366 C   0  0  0  0  0  0  0  0  0  0  0  0
    6.2516   -3.7287   46.2722 C   0  0  0  0  0  0  0  0  0  0  0  0
   -0.2404   -2.4179   42.2529 C   0  0  0  0  0  0  0  0  0  0  0  0
   -1.3835   -1.8904   41.6559 N   0  0  0  0  0  0  0  0  0  0  0  0
    3.8706   -6.4216   45.1394 O   0  0  0  0  0  0  0  0  0  0  0  0
    0.9456   -0.2789   41.7649 C   0  0  0  0  0  0  0  0  0  0  0  0
   -0.2678   -3.6969   42.7575 C   0  0  0  0  0  0  0  0  0  0  0  0
    6.3913   -0.7000   44.3807 N   0  0  0  0  0  0  0  0  0  0  0  0
    7.9391   -1.5867   46.0069 C   0  0  0  0  0  0  0  0  0  0  0  0
    8.7787   -0.4879   45.9761 O   0  0  0  0  0  0  0  0  0  0  0  0
    5.3853   -5.1216   46.3780 C   0  0  0  0  0  0  0  0  0  0  0  0
    8.4504   -2.7517   46.6262 N   0  0  0  0  0  0  0  0  0  0  0  0
    7.4807   -3.7374   47.0380 C   0  0  0  0  0  0  0  0  0  0  0  0
    9.7442   -2.7944   46.9091 C   0  0  0  0  0  0  0  0  0  0  0  0
   10.5425   -3.4426   45.9689 C   0  0  0  0  0  0  0  0  0  0  0  0
   11.8330   -2.8149   45.6387 C   0  0  0  0  0  0  0  0  0  0  0  0
   10.9338   -4.7280   46.0135 C   0  0  0  0  0  0  0  0  0  0  0  0
  1  2  2  0
  1  3  1  0
  2  4  1  0
  3  5  1  0
  4  5  2  0
  5  6  1  0
  3  7  2  0
  4  8  1  0
  8  9  1  0
  8 10  2  0
 10 11  1  0
 10 12  1  0
  6 13  1  0
 11 13  1  0
 13 14  2  0
  9 15  1  0
  6 16  2  0
  9 17  2  0
 16 18  1  0
 18 19  1  0
 12 20  1  0
  7 21  1  0
 16 21  1  0
 14 22  1  0
 18 22  2  0
  2 23  1  0
 15 23  1  6
 15 24  1  0
 24 25  2  0
 12 26  2  0
 17 26  1  0
 24 27  1  0
 17 28  1  0
 27 28  1  0
 27 29  1  0
 29 30  1  0
 30 31  1  0
 30 32  1  0
M  END
$$$$
O14757_Pocket2Mol_idx-in-all-generaetd-565
     RDKit          3D

 36 43  0  0  0  0  0  0  0  0999 V2000
    5.3420    0.2589   42.8836 N   0  0  0  0  0  0  0  0  0  0  0  0
    5.6740   -0.8311   43.5645 C   0  0  0  0  0  0  0  0  0  0  0  0
    6.8416   -0.9240   44.3627 N   0  0  0  0  0  0  0  0  0  0  0  0
    4.1141    0.2821   42.2689 C   0  0  0  0  0  0  0  0  0  0  0  0
    3.2237   -0.7484   42.3921 N   0  0  0  0  0  0  0  0  0  0  0  0
    6.8097   -1.9585   45.3182 C   0  0  0  0  0  0  0  0  0  0  0  0
    3.5007   -1.8060   43.1511 C   0  0  0  0  0  0  0  0  0  0  0  0
    4.7020   -1.8573   43.8328 C   0  0  0  0  0  0  0  0  0  0  0  0
    5.4887   -2.6670   44.9856 C   0  0  0  0  0  0  0  0  0  0  0  0
    2.5208   -2.8458   43.2671 C   0  0  0  0  0  0  0  0  0  0  0  0
    2.6558   -3.8570   44.2541 C   0  0  0  0  0  0  0  0  0  0  0  0
    7.6468   -2.3589   46.2854 C   0  0  0  0  0  0  0  0  0  0  0  0
    3.8579   -4.1296   44.9532 N   0  0  0  0  0  0  0  0  0  0  0  0
    1.3096   -2.7520   42.6410 C   0  0  0  0  0  0  0  0  0  0  0  0
    4.9776   -3.8402   45.4939 C   0  0  0  0  0  0  0  0  0  0  0  0
    8.7023   -1.6088   46.4743 C   0  0  0  0  0  0  0  0  0  0  0  0
    9.5984   -1.8433   47.5139 C   0  0  0  0  0  0  0  0  0  0  0  0
    7.3782   -3.4221   47.2077 C   0  0  0  0  0  0  0  0  0  0  0  0
    1.5977   -4.7338   44.4801 C   0  0  0  0  0  0  0  0  0  0  0  0
    1.0668   -1.7644   41.4981 C   0  0  0  0  0  0  0  0  0  0  0  0
   10.8175   -0.9959   47.6882 O   0  0  0  0  0  0  0  0  0  0  0  0
   11.6053   -1.2371   48.6095 C   0  0  0  0  0  0  0  0  0  0  0  0
    0.3244   -3.6976   42.8655 C   0  0  0  0  0  0  0  0  0  0  0  0
   -0.8593   -3.6685   42.0130 N   0  0  0  0  0  0  0  0  0  0  0  0
    1.8517   -5.8131   45.4828 O   0  0  0  0  0  0  0  0  0  0  0  0
    0.4775   -4.6810   43.7729 C   0  0  0  0  0  0  0  0  0  0  0  0
    0.8739   -6.6382   45.6662 C   0  0  0  0  0  0  0  0  0  0  0  0
   -1.0916   -2.5994   41.2602 C   0  0  0  0  0  0  0  0  0  0  0  0
    9.4106   -2.8763   48.3313 C   0  0  0  0  0  0  0  0  0  0  0  0
   -2.2861   -2.5230   40.6491 C   0  0  0  0  0  0  0  0  0  0  0  0
   -0.0427   -1.6549   40.9892 C   0  0  0  0  0  0  0  0  0  0  0  0
    6.1974   -4.2473   47.0932 C   0  0  0  0  0  0  0  0  0  0  0  0
   10.3910   -3.0613   49.4073 O   0  0  0  0  0  0  0  0  0  0  0  0
   11.5322   -2.4683   49.1751 C   0  0  0  0  0  0  0  0  0  0  0  0
    8.2779   -3.6138   48.2308 C   0  0  0  0  0  0  0  0  0  0  0  0
    5.4775   -4.4729   46.4023 C   0  0  0  0  0  0  0  0  0  0  0  0
  1  2  2  0
  2  3  1  0
  1  4  1  0
  4  5  2  0
  3  6  1  0
  5  7  1  0
  2  8  1  0
  7  8  2  0
  6  9  2  0
  8  9  1  0
  7 10  1  0
 10 11  2  0
  6 12  1  0
 11 13  1  0
 10 14  1  0
  9 15  1  0
 13 15  1  0
 12 16  2  0
 16 17  1  0
 12 18  1  0
 11 19  1  0
 14 20  1  0
 17 21  1  0
 21 22  1  0
 14 23  2  0
 23 24  1  0
 19 25  1  0
 19 26  2  0
 23 26  1  0
 25 27  1  0
 24 28  1  0
 17 29  2  0
 28 30  1  0
 20 31  1  0
 28 31  2  0
 18 32  1  0
 29 33  1  0
 22 34  1  0
 33 34  1  0
 18 35  2  0
 29 35  1  0
 15 36  2  0
 32 36  1  0
M  END
$$$$
O14757_Pocket2Mol_idx-in-all-generaetd-566
     RDKit          3D

 40 47  0  0  0  0  0  0  0  0999 V2000
    1.5482   -0.3111   41.9233 C   0  0  0  0  0  0  0  0  0  0  0  0
    2.7284    0.2018   42.1525 N   0  0  0  0  0  0  0  0  0  0  0  0
    3.7893   -0.3016   42.7005 C   0  0  0  0  0  0  0  0  0  0  0  0
    3.3781   -1.7350   43.0000 C   0  0  0  0  0  0  0  0  0  0  0  0
    2.0339   -1.9619   42.6217 C   0  0  0  0  0  0  0  0  0  0  0  0
    5.0090    0.1219   42.9340 N   0  0  0  0  0  0  0  0  0  0  0  0
    4.2895   -2.4979   43.6707 C   0  0  0  0  0  0  0  0  0  0  0  0
    5.8391   -0.6675   43.6343 C   0  0  0  0  0  0  0  0  0  0  0  0
    6.9849   -0.2377   44.0028 N   0  0  0  0  0  0  0  0  0  0  0  0
    4.0426   -3.8794   44.0832 C   0  0  0  0  0  0  0  0  0  0  0  0
    7.6796   -0.8734   44.9326 C   0  0  0  0  0  0  0  0  0  0  0  0
    1.1064   -2.9576   42.4211 C   0  0  0  0  0  0  0  0  0  0  0  0
    5.5298   -1.9496   44.0315 C   0  0  0  0  0  0  0  0  0  0  0  0
    3.8954   -4.1817   45.4718 C   0  0  0  0  0  0  0  0  0  0  0  0
    0.6765   -3.5480   43.4006 C   0  0  1  0  0  0  0  0  0  0  0  0
    0.5804   -3.2191   41.1635 C   0  0  0  0  0  0  0  0  0  0  0  0
    2.8083   -4.8227   45.9203 N   0  0  0  0  0  0  0  0  0  0  0  0
   -0.1574   -4.5754   42.9329 N   0  0  0  0  0  0  0  0  0  0  0  0
    6.5271   -2.5531   44.9677 C   0  0  0  0  0  0  0  0  0  0  0  0
   -0.2272   -4.3703   41.5137 C   0  0  0  0  0  0  0  0  0  0  0  0
    7.5095   -2.0029   45.3993 C   0  0  0  0  0  0  0  0  0  0  0  0
    8.2550   -2.6982   46.3988 C   0  0  2  0  0  0  0  0  0  0  0  0
    8.8975   -0.3029   45.3267 O   0  0  0  0  0  0  0  0  0  0  0  0
    4.8299   -4.4637   46.4212 C   0  0  0  0  0  0  0  0  0  0  0  0
    4.2707   -4.9248   47.6295 N   0  0  0  0  0  0  0  0  0  0  0  0
    3.2045   -5.2092   47.1521 C   0  0  0  0  0  0  0  0  0  0  0  0
    1.4482   -4.6186   45.4134 C   0  0  2  0  0  0  0  0  0  0  0  0
    1.2398   -3.5043   44.6236 O   0  0  0  0  0  0  0  0  0  0  0  0
    6.3317   -3.9297   46.0870 C   0  0  2  0  0  0  0  0  0  0  0  0
    9.5296   -2.5449   46.9776 C   0  0  0  0  0  0  0  0  0  0  0  0
    9.7921   -1.7530   47.9018 O   0  0  0  0  0  0  0  0  0  0  0  0
    7.4454   -3.8344   46.8035 C   0  0  0  0  0  0  0  0  0  0  0  0
   10.5010   -3.0847   46.3190 O   0  0  0  0  0  0  0  0  0  0  0  0
    0.5569   -4.7693   46.5649 C   0  0  0  0  0  0  0  0  0  0  0  0
   11.7452   -2.8462   46.6234 C   0  0  1  0  0  0  0  0  0  0  0  0
   12.4186   -3.8680   47.1468 C   0  0  0  0  0  0  0  0  0  0  0  0
   11.9026   -5.0270   47.0501 O   0  0  0  0  0  0  0  0  0  0  0  0
   11.7762   -5.6394   45.8941 C   0  0  0  0  0  0  0  0  0  0  0  0
   13.5145   -3.6515   48.0059 O   0  0  0  0  0  0  0  0  0  0  0  0
   12.4624   -1.8145   45.8944 C   0  0  0  0  0  0  0  0  0  0  0  0
  1  2  1  0
  2  3  2  0
  3  4  1  0
  1  5  2  0
  4  5  1  0
  3  6  1  0
  4  7  2  0
  6  8  1  0
  8  9  1  0
  7 10  1  0
  9 11  1  0
  5 12  1  0
  7 13  1  0
  8 13  2  0
 10 14  1  0
 12 15  1  0
 12 16  2  0
 14 17  1  0
 15 18  1  0
 13 19  1  0
 16 20  1  0
 18 20  2  0
 11 21  1  0
 19 21  2  0
 21 22  1  0
 11 23  2  0
 14 24  2  0
 24 25  1  0
 17 26  1  0
 25 26  2  0
 17 27  1  0
 15 28  1  6
 27 28  1  0
 19 29  1  0
 24 29  1  0
 22 30  1  6
 30 31  2  0
 22 32  1  0
 29 32  1  1
 30 33  1  0
 27 34  1  1
 33 35  1  0
 35 36  1  0
 36 37  1  0
 37 38  1  0
 36 39  2  0
 35 40  1  6
M  END
$$$$
O14757_Pocket2Mol_idx-in-all-generaetd-567
     RDKit          3D

 40 47  0  0  0  0  0  0  0  0999 V2000
    1.5482   -0.3111   41.9233 C   0  0  0  0  0  0  0  0  0  0  0  0
    2.7284    0.2018   42.1525 N   0  0  0  0  0  0  0  0  0  0  0  0
    3.7893   -0.3016   42.7005 C   0  0  0  0  0  0  0  0  0  0  0  0
    3.3781   -1.7350   43.0000 C   0  0  0  0  0  0  0  0  0  0  0  0
    2.0339   -1.9619   42.6217 C   0  0  0  0  0  0  0  0  0  0  0  0
    4.1166   -2.4997   43.8458 C   0  0  0  0  0  0  0  0  0  0  0  0
    1.1731   -3.0051   42.5773 C   0  0  0  0  0  0  0  0  0  0  0  0
    0.4701   -3.2344   41.4901 C   0  0  0  0  0  0  0  0  0  0  0  0
    5.3799   -1.7814   44.2691 C   0  0  0  0  0  0  0  0  0  0  0  0
    5.0159   -0.0180   43.1201 N   0  0  0  0  0  0  0  0  0  0  0  0
    5.7693   -0.6937   43.8418 C   0  0  0  0  0  0  0  0  0  0  0  0
    0.8078   -3.6166   43.6782 C   0  0  0  0  0  0  0  0  0  0  0  0
    0.0663   -4.7011   43.7415 N   0  0  0  0  0  0  0  0  0  0  0  0
    6.2223   -2.6843   45.1565 C   0  0  0  0  0  0  0  0  0  0  0  0
    6.9599   -0.2351   44.2608 N   0  0  0  0  0  0  0  0  0  0  0  0
    5.9065   -3.9037   45.7499 N   0  0  0  0  0  0  0  0  0  0  0  0
   -0.5459   -5.1185   42.5870 C   0  0  0  0  0  0  0  0  0  0  0  0
    5.7480   -4.0340   46.9810 C   0  0  0  0  0  0  0  0  0  0  0  0
    7.4448   -1.8511   45.4198 C   0  0  0  0  0  0  0  0  0  0  0  0
    7.7572   -0.7827   45.0128 C   0  0  0  0  0  0  0  0  0  0  0  0
    8.4076   -2.7217   46.4541 C   0  0  0  0  0  0  0  0  0  0  0  0
    9.3167   -2.0988   47.1049 N   0  0  0  0  0  0  0  0  0  0  0  0
   -0.4719   -4.3893   41.5406 C   0  0  0  0  0  0  0  0  0  0  0  0
    8.3667   -4.0284   46.5743 N   0  0  0  0  0  0  0  0  0  0  0  0
    9.5309   -4.3147   47.3094 C   0  0  0  0  0  0  0  0  0  0  0  0
    5.3113   -3.3789   47.8005 O   0  0  0  0  0  0  0  0  0  0  0  0
    9.9022   -5.6301   47.7684 C   0  0  0  0  0  0  0  0  0  0  0  0
    5.4470   -5.5868   47.2096 C   0  0  0  0  0  0  0  0  0  0  0  0
   11.2254   -5.8679   48.0402 C   0  0  0  0  0  0  0  0  0  0  0  0
    8.9736   -6.6532   47.8548 C   0  0  0  0  0  0  0  0  0  0  0  0
   10.0616   -3.0670   47.6360 C   0  0  0  0  0  0  0  0  0  0  0  0
    7.5566   -6.3564   47.5477 N   0  0  0  0  0  0  0  0  0  0  0  0
    6.4157   -6.1721   48.0913 C   0  0  0  0  0  0  0  0  0  0  0  0
   12.3275   -4.8510   47.9324 C   0  0  0  0  0  0  0  0  0  0  0  0
    9.4585   -7.9662   48.0726 C   0  0  0  0  0  0  0  0  0  0  0  0
   11.5288   -2.7910   48.1740 C   0  0  0  0  0  0  0  0  0  0  0  0
   11.6989   -7.1590   48.3688 C   0  0  0  0  0  0  0  0  0  0  0  0
   13.5698   -5.4689   47.7894 O   0  0  0  0  0  0  0  0  0  0  0  0
   10.7470   -8.1814   48.4582 C   0  0  0  0  0  0  0  0  0  0  0  0
   12.4319   -3.5485   48.0847 N   0  0  0  0  0  0  0  0  0  0  0  0
  1  2  1  0
  2  3  2  0
  3  4  1  0
  1  5  2  0
  4  5  1  0
  4  6  2  0
  5  7  1  0
  7  8  2  0
  6  9  1  0
  3 10  1  0
  9 11  2  0
 10 11  1  0
  7 12  1  0
 12 13  2  0
  9 14  1  0
 11 15  1  0
 14 16  1  0
 13 17  1  0
 16 18  1  0
 14 19  2  0
 15 20  2  0
 19 20  1  0
 19 21  1  0
 21 22  2  0
  8 23  1  0
 17 23  2  0
 21 24  1  0
 24 25  1  0
 18 26  2  0
 25 27  1  0
 18 28  1  0
 27 29  2  0
 27 30  1  0
 22 31  1  0
 25 31  2  0
 30 32  1  0
 28 33  1  0
 32 33  1  0
 29 34  1  0
 30 35  2  0
 31 36  1  0
 29 37  1  0
 34 38  2  0
 35 39  1  0
 37 39  2  0
 34 40  1  0
 36 40  1  0
M  END
$$$$
O14757_Pocket2Mol_idx-in-all-generaetd-568
     RDKit          3D

 23 25  0  0  0  0  0  0  0  0999 V2000
    9.0086   -1.3050   46.9724 C   0  0  0  0  0  0  0  0  0  0  0  0
    8.2921   -1.9066   46.1648 C   0  0  0  0  0  0  0  0  0  0  0  0
    9.9515   -2.1146   47.6499 C   0  0  0  0  0  0  0  0  0  0  0  0
    9.6635   -3.5807   47.4108 C   0  0  0  0  0  0  0  0  0  0  0  0
    8.0144   -3.1372   46.0297 C   0  0  0  0  0  0  0  0  0  0  0  0
    6.8676   -3.6383   45.1242 O   0  0  0  0  0  0  0  0  0  0  0  0
   10.5430   -4.4969   48.2323 C   0  0  0  0  0  0  0  0  0  0  0  0
    5.5433   -3.3026   45.6745 C   0  0  2  0  0  0  0  0  0  0  0  0
    8.7121   -4.1844   46.7116 C   0  0  0  0  0  0  0  0  0  0  0  0
   10.8746   -4.3677   49.3452 O   0  0  0  0  0  0  0  0  0  0  0  0
   10.6503   -5.7324   47.6546 N   0  0  0  0  0  0  0  0  0  0  0  0
    4.9860   -4.3159   46.3964 C   0  0  0  0  0  0  0  0  0  0  0  0
    4.7300   -2.5068   44.8223 C   0  0  0  0  0  0  0  0  0  0  0  0
    3.6715   -4.6218   45.9355 C   0  0  0  0  0  0  0  0  0  0  0  0
    3.7110   -5.0178   44.4851 C   0  0  0  0  0  0  0  0  0  0  0  0
    4.2487   -2.9827   43.6396 N   0  0  0  0  0  0  0  0  0  0  0  0
    3.2696   -3.9168   43.6776 C   0  0  0  0  0  0  0  0  0  0  0  0
    3.7209   -1.7700   42.7824 C   0  0  0  0  0  0  0  0  0  0  0  0
    2.5784   -1.7046   42.3085 N   0  0  0  0  0  0  0  0  0  0  0  0
    4.7370   -0.6746   42.8133 N   0  0  0  0  0  0  0  0  0  0  0  0
    3.9825    0.3706   42.3133 N   0  0  0  0  0  0  0  0  0  0  0  0
    2.6491   -0.2349   41.9600 C   0  0  0  0  0  0  0  0  0  0  0  0
    1.6962    0.3294   41.4014 O   0  0  0  0  0  0  0  0  0  0  0  0
  1  2  2  0
  1  3  1  0
  3  4  2  0
  2  5  1  0
  5  6  1  0
  4  7  1  0
  8  6  1  6
  4  9  1  0
  5  9  2  0
  7 10  2  0
  7 11  1  0
  8 12  1  0
  8 13  1  0
 12 14  1  0
 14 15  1  0
 13 16  1  0
 15 17  1  0
 16 17  1  0
 16 18  1  0
 18 19  1  0
 18 20  2  0
 20 21  1  0
 19 22  1  0
 21 22  1  0
 22 23  2  0
M  END
$$$$
O14757_Pocket2Mol_idx-in-all-generaetd-569
     RDKit          3D

 39 46  0  0  0  0  0  0  0  0999 V2000
    1.5482   -0.3111   41.9233 C   0  0  0  0  0  0  0  0  0  0  0  0
    2.7284    0.2018   42.1525 N   0  0  0  0  0  0  0  0  0  0  0  0
    3.7893   -0.3016   42.7005 C   0  0  0  0  0  0  0  0  0  0  0  0
    3.3781   -1.7350   43.0000 C   0  0  0  0  0  0  0  0  0  0  0  0
    2.0339   -1.9619   42.6217 C   0  0  0  0  0  0  0  0  0  0  0  0
    5.0090    0.1219   42.9340 N   0  0  0  0  0  0  0  0  0  0  0  0
    4.2895   -2.4979   43.6707 C   0  0  0  0  0  0  0  0  0  0  0  0
    5.8391   -0.6675   43.6343 C   0  0  0  0  0  0  0  0  0  0  0  0
    6.9849   -0.2377   44.0028 N   0  0  0  0  0  0  0  0  0  0  0  0
    4.0426   -3.8794   44.0832 C   0  0  0  0  0  0  0  0  0  0  0  0
    7.6796   -0.8734   44.9326 C   0  0  0  0  0  0  0  0  0  0  0  0
    1.1064   -2.9576   42.4211 C   0  0  0  0  0  0  0  0  0  0  0  0
    5.5298   -1.9496   44.0315 C   0  0  0  0  0  0  0  0  0  0  0  0
    3.8954   -4.1817   45.4718 C   0  0  0  0  0  0  0  0  0  0  0  0
    0.6765   -3.5480   43.4006 C   0  0  1  0  0  0  0  0  0  0  0  0
    0.5804   -3.2191   41.1635 C   0  0  0  0  0  0  0  0  0  0  0  0
    2.8083   -4.8227   45.9203 N   0  0  0  0  0  0  0  0  0  0  0  0
   -0.1574   -4.5754   42.9329 N   0  0  0  0  0  0  0  0  0  0  0  0
    6.5271   -2.5531   44.9677 C   0  0  0  0  0  0  0  0  0  0  0  0
   -0.2272   -4.3703   41.5137 C   0  0  0  0  0  0  0  0  0  0  0  0
    7.5095   -2.0029   45.3993 C   0  0  0  0  0  0  0  0  0  0  0  0
    8.2550   -2.6982   46.3988 C   0  0  0  0  0  0  0  0  0  0  0  0
    8.8975   -0.3029   45.3267 O   0  0  0  0  0  0  0  0  0  0  0  0
    4.8299   -4.4637   46.4212 C   0  0  0  0  0  0  0  0  0  0  0  0
    4.2707   -4.9248   47.6295 N   0  0  0  0  0  0  0  0  0  0  0  0
    3.2045   -5.2092   47.1521 C   0  0  0  0  0  0  0  0  0  0  0  0
    1.4482   -4.6186   45.4134 C   0  0  1  0  0  0  0  0  0  0  0  0
    1.2398   -3.5043   44.6236 O   0  0  0  0  0  0  0  0  0  0  0  0
    6.3317   -3.9297   46.0870 C   0  0  2  0  0  0  0  0  0  0  0  0
    9.5296   -2.5449   46.9776 C   0  0  0  0  0  0  0  0  0  0  0  0
    9.7921   -1.7530   47.9018 O   0  0  0  0  0  0  0  0  0  0  0  0
    7.3972   -3.8130   46.7939 C   0  0  0  0  0  0  0  0  0  0  0  0
    1.2392   -5.7793   44.5610 C   0  0  0  0  0  0  0  0  0  0  0  0
   10.4934   -3.0755   46.3117 N   0  0  0  0  0  0  0  0  0  0  0  0
   11.8909   -2.7870   46.6074 C   0  0  0  0  0  0  0  0  0  0  0  0
   12.6971   -2.6764   45.4574 C   0  0  0  0  0  0  0  0  0  0  0  0
   13.1357   -1.4884   45.0603 C   0  0  0  0  0  0  0  0  0  0  0  0
   13.9808   -1.2404   44.0610 O   0  0  0  0  0  0  0  0  0  0  0  0
   13.1093   -0.4550   45.9513 O   0  0  0  0  0  0  0  0  0  0  0  0
  1  2  1  0
  2  3  2  0
  3  4  1  0
  1  5  2  0
  4  5  1  0
  3  6  1  0
  4  7  2  0
  6  8  1  0
  8  9  1  0
  7 10  1  0
  9 11  1  0
  5 12  1  0
  7 13  1  0
  8 13  2  0
 10 14  1  0
 12 15  1  0
 12 16  2  0
 14 17  1  0
 15 18  1  0
 13 19  1  0
 16 20  1  0
 18 20  2  0
 11 21  1  0
 19 21  2  0
 21 22  1  0
 11 23  2  0
 14 24  2  0
 24 25  1  0
 17 26  1  0
 25 26  2  0
 17 27  1  0
 15 28  1  6
 27 28  1  0
 19 29  1  0
 24 29  1  0
 22 30  1  0
 30 31  2  0
 22 32  2  0
 29 32  1  1
 27 33  1  6
 30 34  1  0
 34 35  1  0
 35 36  1  0
 36 37  1  0
 37 38  2  0
 37 39  1  0
M  END
$$$$
O14757_Pocket2Mol_idx-in-all-generaetd-570
     RDKit          3D

 21 24  0  0  0  0  0  0  0  0999 V2000
    4.5156    0.0550   42.9895 N   0  0  0  0  0  0  0  0  0  0  0  0
    3.2960    0.1633   42.4470 C   0  0  0  0  0  0  0  0  0  0  0  0
    2.7621   -1.2305   42.4476 C   0  0  0  0  0  0  0  0  0  0  0  0
    5.2005   -0.8099   43.5858 C   0  0  0  0  0  0  0  0  0  0  0  0
    4.4157   -2.0357   43.6745 C   0  0  0  0  0  0  0  0  0  0  0  0
    3.3964   -2.2069   43.1195 C   0  0  0  0  0  0  0  0  0  0  0  0
    2.6107   -3.4636   43.1542 N   0  0  0  0  0  0  0  0  0  0  0  0
    1.4467   -1.2849   41.8335 C   0  0  0  0  0  0  0  0  0  0  0  0
    5.1851   -3.1348   44.4538 N   0  0  0  0  0  0  0  0  0  0  0  0
    6.4172   -0.8203   44.3346 N   0  0  0  0  0  0  0  0  0  0  0  0
    0.8321   -2.5451   41.8394 C   0  0  0  0  0  0  0  0  0  0  0  0
    6.3079   -2.8731   45.1171 C   0  0  0  0  0  0  0  0  0  0  0  0
    6.8863   -3.8787   45.9525 C   0  0  0  0  0  0  0  0  0  0  0  0
    1.4408   -3.5475   42.6011 C   0  0  0  0  0  0  0  0  0  0  0  0
    6.8919   -1.7510   45.0602 C   0  0  0  0  0  0  0  0  0  0  0  0
    8.1383   -1.7029   45.8456 C   0  0  0  0  0  0  0  0  0  0  0  0
    8.8942   -0.3556   45.7602 O   0  0  0  0  0  0  0  0  0  0  0  0
    8.0227   -3.7746   46.6710 C   0  0  0  0  0  0  0  0  0  0  0  0
    8.6878   -2.5444   46.6318 C   0  0  0  0  0  0  0  0  0  0  0  0
    9.8824   -2.3559   47.3367 O   0  0  0  0  0  0  0  0  0  0  0  0
   11.0063   -2.5371   46.5425 C   0  0  0  0  0  0  0  0  0  0  0  0
  1  2  2  0
  2  3  1  0
  1  4  1  0
  4  5  2  0
  3  6  2  0
  5  6  1  0
  6  7  1  0
  3  8  1  0
  5  9  1  0
  4 10  1  0
  8 11  2  0
  9 12  2  0
 12 13  1  0
  7 14  2  0
 11 14  1  0
 10 15  2  0
 12 15  1  0
 15 16  1  0
 16 17  1  0
 13 18  2  0
 16 19  2  0
 18 19  1  0
 19 20  1  0
 20 21  1  0
M  END
$$$$
O14757_Pocket2Mol_idx-in-all-generaetd-571
     RDKit          3D

 43 51  0  0  0  0  0  0  0  0999 V2000
    1.5482   -0.3111   41.9233 C   0  0  0  0  0  0  0  0  0  0  0  0
    2.7284    0.2018   42.1525 N   0  0  0  0  0  0  0  0  0  0  0  0
    3.7893   -0.3016   42.7005 C   0  0  0  0  0  0  0  0  0  0  0  0
    3.3781   -1.7350   43.0000 C   0  0  0  0  0  0  0  0  0  0  0  0
    2.0339   -1.9619   42.6217 C   0  0  0  0  0  0  0  0  0  0  0  0
    4.1166   -2.4997   43.8458 C   0  0  0  0  0  0  0  0  0  0  0  0
    1.1731   -3.0051   42.5773 C   0  0  0  0  0  0  0  0  0  0  0  0
    0.4701   -3.2344   41.4901 C   0  0  0  0  0  0  0  0  0  0  0  0
    5.3799   -1.7814   44.2691 C   0  0  0  0  0  0  0  0  0  0  0  0
    5.0159   -0.0180   43.1201 N   0  0  0  0  0  0  0  0  0  0  0  0
    5.7693   -0.6937   43.8418 C   0  0  0  0  0  0  0  0  0  0  0  0
    0.8078   -3.6166   43.6782 C   0  0  0  0  0  0  0  0  0  0  0  0
    0.0663   -4.7011   43.7415 N   0  0  0  0  0  0  0  0  0  0  0  0
    6.2223   -2.6843   45.1565 C   0  0  0  0  0  0  0  0  0  0  0  0
    6.9599   -0.2351   44.2608 N   0  0  0  0  0  0  0  0  0  0  0  0
    5.9065   -3.9037   45.7499 N   0  0  0  0  0  0  0  0  0  0  0  0
   -0.5459   -5.1185   42.5870 C   0  0  0  0  0  0  0  0  0  0  0  0
    5.7480   -4.0340   46.9810 C   0  0  0  0  0  0  0  0  0  0  0  0
    7.4448   -1.8511   45.4198 C   0  0  0  0  0  0  0  0  0  0  0  0
    7.7572   -0.7827   45.0128 C   0  0  0  0  0  0  0  0  0  0  0  0
    8.4076   -2.7217   46.4541 C   0  0  0  0  0  0  0  0  0  0  0  0
    9.3167   -2.0988   47.1049 N   0  0  0  0  0  0  0  0  0  0  0  0
   -0.4719   -4.3893   41.5406 C   0  0  0  0  0  0  0  0  0  0  0  0
    8.3667   -4.0284   46.5743 N   0  0  0  0  0  0  0  0  0  0  0  0
    9.5309   -4.3147   47.3094 C   0  0  0  0  0  0  0  0  0  0  0  0
    5.3113   -3.3789   47.8005 O   0  0  0  0  0  0  0  0  0  0  0  0
    9.9022   -5.6301   47.7684 C   0  0  0  0  0  0  0  0  0  0  0  0
    5.4470   -5.5868   47.2096 C   0  0  0  0  0  0  0  0  0  0  0  0
   11.2254   -5.8679   48.0402 C   0  0  0  0  0  0  0  0  0  0  0  0
    8.9736   -6.6532   47.8548 C   0  0  0  0  0  0  0  0  0  0  0  0
   10.0616   -3.0670   47.6360 C   0  0  0  0  0  0  0  0  0  0  0  0
    7.5566   -6.3564   47.5477 N   0  0  0  0  0  0  0  0  0  0  0  0
    6.4157   -6.1721   48.0913 C   0  0  0  0  0  0  0  0  0  0  0  0
   12.3275   -4.8510   47.9324 C   0  0  1  0  0  0  0  0  0  0  0  0
    9.4585   -7.9662   48.0726 C   0  0  0  0  0  0  0  0  0  0  0  0
   11.5288   -2.7910   48.1740 C   0  0  0  0  0  0  0  0  0  0  0  0
   11.6989   -7.1590   48.3688 C   0  0  0  0  0  0  0  0  0  0  0  0
   12.2755   -3.6526   48.1917 N   0  0  0  0  0  0  0  0  0  0  0  0
   13.0611   -7.4253   48.6753 O   0  0  0  0  0  0  0  0  0  0  0  0
   13.8174   -6.4685   48.1995 C   0  0  2  0  0  0  0  0  0  0  0  0
   15.3489   -6.9556   48.2787 O   0  0  0  0  0  0  0  0  0  0  0  0
   10.8805   -8.1422   48.4735 C   0  0  0  0  0  0  0  0  0  0  0  0
   13.7675   -5.1604   48.2775 C   0  0  0  0  0  0  0  0  0  0  0  0
  1  2  1  0
  2  3  2  0
  3  4  1  0
  1  5  2  0
  4  5  1  0
  4  6  2  0
  5  7  1  0
  7  8  2  0
  6  9  1  0
  3 10  1  0
  9 11  2  0
 10 11  1  0
  7 12  1  0
 12 13  2  0
  9 14  1  0
 11 15  1  0
 14 16  1  0
 13 17  1  0
 16 18  1  0
 14 19  2  0
 15 20  2  0
 19 20  1  0
 19 21  1  0
 21 22  2  0
  8 23  1  0
 17 23  2  0
 21 24  1  0
 24 25  1  0
 18 26  2  0
 25 27  1  0
 18 28  1  0
 27 29  2  0
 27 30  1  0
 22 31  1  0
 25 31  2  0
 30 32  1  0
 28 33  1  0
 32 33  1  0
 29 34  1  0
 30 35  2  0
 31 36  1  0
 29 37  1  0
 34 38  1  0
 36 38  2  0
 37 39  1  0
 39 40  1  0
 40 41  1  1
 35 42  1  0
 37 42  2  0
 34 43  1  1
 40 43  1  0
M  END
$$$$
O14757_Pocket2Mol_idx-in-all-generaetd-572
     RDKit          3D

 31 38  0  0  0  0  0  0  0  0999 V2000
    1.5482   -0.3111   41.9233 C   0  0  0  0  0  0  0  0  0  0  0  0
    2.7284    0.2018   42.1525 N   0  0  0  0  0  0  0  0  0  0  0  0
    3.7893   -0.3016   42.7005 C   0  0  0  0  0  0  0  0  0  0  0  0
    3.3781   -1.7350   43.0000 C   0  0  0  0  0  0  0  0  0  0  0  0
    2.0339   -1.9619   42.6217 C   0  0  0  0  0  0  0  0  0  0  0  0
    5.0090    0.1219   42.9340 N   0  0  0  0  0  0  0  0  0  0  0  0
    4.2895   -2.4979   43.6707 C   0  0  0  0  0  0  0  0  0  0  0  0
    5.8391   -0.6675   43.6343 C   0  0  0  0  0  0  0  0  0  0  0  0
    6.9849   -0.2377   44.0028 N   0  0  0  0  0  0  0  0  0  0  0  0
    4.0426   -3.8794   44.0832 C   0  0  0  0  0  0  0  0  0  0  0  0
    7.6796   -0.8734   44.9326 C   0  0  0  0  0  0  0  0  0  0  0  0
    1.1064   -2.9576   42.4211 C   0  0  0  0  0  0  0  0  0  0  0  0
    5.5298   -1.9496   44.0315 C   0  0  0  0  0  0  0  0  0  0  0  0
    3.8954   -4.1817   45.4718 C   0  0  0  0  0  0  0  0  0  0  0  0
    0.6765   -3.5480   43.4006 C   0  0  0  0  0  0  0  0  0  0  0  0
    0.5804   -3.2191   41.1635 C   0  0  0  0  0  0  0  0  0  0  0  0
    2.8083   -4.8227   45.9203 N   0  0  0  0  0  0  0  0  0  0  0  0
   -0.1574   -4.5754   42.9329 N   0  0  0  0  0  0  0  0  0  0  0  0
    6.5271   -2.5531   44.9677 C   0  0  0  0  0  0  0  0  0  0  0  0
   -0.2272   -4.3703   41.5137 C   0  0  0  0  0  0  0  0  0  0  0  0
    7.5095   -2.0029   45.3993 C   0  0  0  0  0  0  0  0  0  0  0  0
    8.2550   -2.6982   46.3988 C   0  0  0  0  0  0  0  0  0  0  0  0
    8.8975   -0.3029   45.3267 O   0  0  0  0  0  0  0  0  0  0  0  0
    4.8299   -4.4637   46.4212 C   0  0  0  0  0  0  0  0  0  0  0  0
    4.2707   -4.9248   47.6295 N   0  0  0  0  0  0  0  0  0  0  0  0
    3.2045   -5.2092   47.1521 C   0  0  0  0  0  0  0  0  0  0  0  0
    1.4482   -4.6186   45.4134 C   0  0  0  0  0  0  0  0  0  0  0  0
    6.3182   -3.9038   46.0541 C   0  0  2  0  0  0  0  0  0  0  0  0
    1.1313   -3.4722   44.6829 C   0  0  0  0  0  0  0  0  0  0  0  0
    9.5220   -2.5376   46.9810 C   0  0  0  0  0  0  0  0  0  0  0  0
    7.4260   -3.6578   46.8996 C   0  0  0  0  0  0  0  0  0  0  0  0
  1  2  1  0
  2  3  2  0
  3  4  1  0
  1  5  2  0
  4  5  1  0
  3  6  1  0
  4  7  2  0
  6  8  1  0
  8  9  1  0
  7 10  1  0
  9 11  1  0
  5 12  1  0
  7 13  1  0
  8 13  2  0
 10 14  1  0
 12 15  1  0
 12 16  2  0
 14 17  1  0
 15 18  1  0
 13 19  1  0
 16 20  1  0
 18 20  2  0
 11 21  1  0
 19 21  2  0
 21 22  1  0
 11 23  2  0
 14 24  2  0
 24 25  1  0
 17 26  1  0
 25 26  2  0
 17 27  1  0
 19 28  1  0
 24 28  1  0
 15 29  2  3
 27 29  1  0
 22 30  1  0
 22 31  2  0
 28 31  1  1
M  END
$$$$
O14757_Pocket2Mol_idx-in-all-generaetd-573
     RDKit          3D

 28 33  0  0  0  0  0  0  0  0999 V2000
    5.3420    0.2589   42.8836 O   0  0  0  0  0  0  0  0  0  0  0  0
    5.1627   -0.7554   43.4753 C   0  0  0  0  0  0  0  0  0  0  0  0
    4.0509   -1.4657   43.4177 N   0  0  0  0  0  0  0  0  0  0  0  0
    5.9969   -1.2317   44.6840 C   0  0  0  0  0  0  0  0  0  0  0  0
    2.9618   -1.1021   42.5918 C   0  0  0  0  0  0  0  0  0  0  0  0
    7.3392   -0.8596   44.8412 C   0  0  0  0  0  0  0  0  0  0  0  0
    1.9754   -2.0820   42.2741 C   0  0  0  0  0  0  0  0  0  0  0  0
    5.5910   -2.4282   45.3439 C   0  0  0  0  0  0  0  0  0  0  0  0
    6.5874   -2.9636   46.1581 C   0  0  0  0  0  0  0  0  0  0  0  0
    4.2763   -3.0680   45.0493 N   0  0  0  0  0  0  0  0  0  0  0  0
    3.6188   -2.5886   44.2024 C   0  0  0  0  0  0  0  0  0  0  0  0
    8.1921   -1.4071   45.7505 C   0  0  0  0  0  0  0  0  0  0  0  0
    1.0154   -1.8839   41.2980 C   0  0  0  0  0  0  0  0  0  0  0  0
    2.5720   -3.3564   43.9063 C   0  0  0  0  0  0  0  0  0  0  0  0
    0.2502   -2.8976   41.0751 C   0  0  0  0  0  0  0  0  0  0  0  0
    0.2230   -3.9124   42.0516 C   0  0  0  0  0  0  0  0  0  0  0  0
    2.2879   -4.6260   44.7113 N   0  0  0  0  0  0  0  0  0  0  0  0
    1.7585   -3.1585   42.9749 N   0  0  0  0  0  0  0  0  0  0  0  0
    7.7776   -2.5440   46.4766 C   0  0  0  0  0  0  0  0  0  0  0  0
    0.8620   -4.0153   42.9214 C   0  0  0  0  0  0  0  0  0  0  0  0
    2.9942   -0.0014   41.9856 O   0  0  0  0  0  0  0  0  0  0  0  0
    8.7308   -3.0843   47.4690 C   0  0  0  0  0  0  0  0  0  0  0  0
    1.1183   -4.9549   43.9570 C   0  0  0  0  0  0  0  0  0  0  0  0
    9.6549   -3.7755   46.9809 N   0  0  0  0  0  0  0  0  0  0  0  0
   10.3809   -4.5200   47.7041 C   0  0  0  0  0  0  0  0  0  0  0  0
   10.6588   -3.1622   45.9788 C   0  0  0  0  0  0  0  0  0  0  0  0
   11.8656   -3.9220   46.0191 C   0  0  0  0  0  0  0  0  0  0  0  0
   11.5613   -5.0196   46.6899 C   0  0  0  0  0  0  0  0  0  0  0  0
  1  2  2  0
  2  3  1  0
  2  4  1  0
  3  5  1  0
  4  6  2  0
  5  7  1  0
  4  8  1  0
  8  9  2  0
  8 10  1  0
  3 11  1  0
 10 11  2  0
  6 12  1  0
  7 13  2  0
 11 14  1  0
 13 15  1  0
 15 16  2  0
 14 17  2  0
  7 18  1  0
 14 18  1  0
  9 19  1  0
 12 19  2  0
 16 20  1  0
 18 20  1  0
  5 21  2  0
 19 22  1  0
 17 23  1  0
 20 23  2  0
 22 24  1  0
 24 25  1  0
 24 26  1  0
 26 27  1  0
 25 28  1  0
 27 28  1  0
M  END
$$$$
O14757_Pocket2Mol_idx-in-all-generaetd-574
     RDKit          3D

 39 45  0  0  0  0  0  0  0  0999 V2000
    5.3420    0.2589   42.8836 O   0  0  0  0  0  0  0  0  0  0  0  0
    5.1627   -0.7554   43.4753 C   0  0  0  0  0  0  0  0  0  0  0  0
    4.0509   -1.4657   43.4177 N   0  0  0  0  0  0  0  0  0  0  0  0
    5.9969   -1.2317   44.6840 C   0  0  0  0  0  0  0  0  0  0  0  0
    2.9618   -1.1021   42.5918 C   0  0  1  0  0  0  0  0  0  0  0  0
    7.3392   -0.8596   44.8412 C   0  0  0  0  0  0  0  0  0  0  0  0
    1.9754   -2.0820   42.2741 C   0  0  0  0  0  0  0  0  0  0  0  0
    5.5910   -2.4282   45.3439 C   0  0  0  0  0  0  0  0  0  0  0  0
    6.5874   -2.9636   46.1581 C   0  0  0  0  0  0  0  0  0  0  0  0
    4.2763   -3.0680   45.0493 N   0  0  0  0  0  0  0  0  0  0  0  0
    3.6188   -2.5886   44.2024 C   0  0  0  0  0  0  0  0  0  0  0  0
    8.1921   -1.4071   45.7505 C   0  0  0  0  0  0  0  0  0  0  0  0
    1.0154   -1.8839   41.2980 C   0  0  0  0  0  0  0  0  0  0  0  0
    2.5720   -3.3564   43.9063 C   0  0  0  0  0  0  0  0  0  0  0  0
    0.2502   -2.8976   41.0751 C   0  0  0  0  0  0  0  0  0  0  0  0
    6.1761   -4.1775   47.0209 C   0  0  0  0  0  0  0  0  0  0  0  0
    1.7266   -3.1047   43.0115 C   0  0  2  0  0  0  0  0  0  0  0  0
    2.3696   -4.5367   44.7536 N   0  0  0  0  0  0  0  0  0  0  0  0
    1.2264   -5.2346   44.4693 C   0  0  0  0  0  0  0  0  0  0  0  0
    0.7187   -3.8955   42.5465 C   0  0  0  0  0  0  0  0  0  0  0  0
    9.4576   -0.8949   46.0327 N   0  0  0  0  0  0  0  0  0  0  0  0
    0.8625   -6.3901   45.2462 C   0  0  0  0  0  0  0  0  0  0  0  0
    7.6467   -2.5139   46.4892 C   0  0  0  0  0  0  0  0  0  0  0  0
   10.4908   -1.5336   45.8242 C   0  0  0  0  0  0  0  0  0  0  0  0
    0.3057   -4.9299   43.2909 C   0  0  0  0  0  0  0  0  0  0  0  0
   11.5916   -1.4291   46.7436 C   0  0  0  0  0  0  0  0  0  0  0  0
   10.5566   -2.3672   44.8649 O   0  0  0  0  0  0  0  0  0  0  0  0
   11.6051   -2.2111   47.7709 N   0  0  0  0  0  0  0  0  0  0  0  0
    2.4805    0.2099   42.8350 O   0  0  0  0  0  0  0  0  0  0  0  0
   12.6177   -0.5842   46.5430 C   0  0  0  0  0  0  0  0  0  0  0  0
   10.6022   -3.0999   48.2311 C   0  0  0  0  0  0  0  0  0  0  0  0
   12.8201   -1.8545   48.4231 C   0  0  0  0  0  0  0  0  0  0  0  0
    9.8708   -2.5664   49.3206 C   0  0  0  0  0  0  0  0  0  0  0  0
   12.9921    0.2645   45.4369 C   0  0  0  0  0  0  0  0  0  0  0  0
   13.3355   -2.4260   49.5466 O   0  0  0  0  0  0  0  0  0  0  0  0
   13.4916   -0.8439   47.5991 N   0  0  0  0  0  0  0  0  0  0  0  0
   14.6080   -0.1987   47.9510 C   0  0  0  0  0  0  0  0  0  0  0  0
   14.9374    0.8082   46.9525 C   0  0  0  0  0  0  0  0  0  0  0  0
   14.0468    0.9791   45.7744 C   0  0  0  0  0  0  0  0  0  0  0  0
  1  2  2  0
  2  3  1  0
  2  4  1  0
  3  5  1  0
  4  6  2  0
  5  7  1  0
  4  8  1  0
  8  9  2  0
  8 10  1  0
  3 11  1  0
 10 11  2  0
  6 12  1  0
  7 13  2  0
 11 14  1  0
 13 15  1  0
  9 16  1  0
 17  7  1  6
 14 17  1  0
 14 18  2  0
 18 19  1  0
 15 20  2  0
 17 20  1  0
 12 21  1  0
 19 22  1  0
  9 23  1  0
 12 23  2  0
 21 24  1  0
 19 25  2  0
 20 25  1  0
 24 26  1  0
 24 27  2  0
 26 28  1  0
  5 29  1  1
 26 30  2  0
 28 31  1  0
 28 32  1  0
 31 33  1  0
 30 34  1  0
 32 35  2  0
 30 36  1  0
 32 36  1  0
 36 37  1  0
 37 38  2  0
 34 39  2  0
 38 39  1  0
M  END
$$$$
O14757_Pocket2Mol_idx-in-all-generaetd-575
     RDKit          3D

 14 16  0  0  0  0  0  0  0  0999 V2000
    5.5575   -0.4055   43.2321 N   0  0  0  0  0  0  0  0  0  0  0  0
    5.4916   -1.4617   44.0350 C   0  0  0  0  0  0  0  0  0  0  0  0
    4.3553   -0.1547   42.7099 N   0  0  0  0  0  0  0  0  0  0  0  0
    3.5224   -1.1568   42.9284 C   0  0  0  0  0  0  0  0  0  0  0  0
    2.1507   -1.3006   42.5845 C   0  0  0  0  0  0  0  0  0  0  0  0
    4.2124   -1.9924   43.9667 C   0  0  2  0  0  0  0  0  0  0  0  0
    1.4620   -2.4279   42.6185 C   0  0  0  0  0  0  0  0  0  0  0  0
    3.7788   -2.9626   44.8471 C   0  0  0  0  0  0  0  0  0  0  0  0
    6.5208   -1.9523   44.9001 C   0  0  0  0  0  0  0  0  0  0  0  0
    1.3442   -0.1613   42.3336 C   0  0  0  0  0  0  0  0  0  0  0  0
    4.8473   -3.4920   45.7176 C   0  0  0  0  0  0  0  0  0  0  0  0
    6.1593   -2.9789   45.7223 C   0  0  0  0  0  0  0  0  0  0  0  0
    0.0554   -0.6862   41.8934 N   0  0  0  0  0  0  0  0  0  0  0  0
    0.0556   -2.0413   42.0218 C   0  0  0  0  0  0  0  0  0  0  0  0
  1  2  2  0
  1  3  1  0
  3  4  2  0
  4  5  1  0
  2  6  1  0
  4  6  1  0
  5  7  1  0
  6  8  1  1
  2  9  1  0
  5 10  2  0
  8 11  2  0
  9 12  2  0
 11 12  1  0
 10 13  1  0
  7 14  1  0
 13 14  2  0
M  END
$$$$
O14757_Pocket2Mol_idx-in-all-generaetd-576
     RDKit          3D

 33 38  0  0  0  0  0  0  0  0999 V2000
    2.2608    0.0351   42.1039 C   0  0  0  0  0  0  0  0  0  0  0  0
    2.7906   -1.0673   42.3987 N   0  0  0  0  0  0  0  0  0  0  0  0
    3.1210    0.9973   42.3040 N   0  0  0  0  0  0  0  0  0  0  0  0
    4.0827   -0.7954   42.9700 C   0  0  0  0  0  0  0  0  0  0  0  0
    4.9955   -1.7234   43.5259 N   0  0  0  0  0  0  0  0  0  0  0  0
    4.5382   -2.7016   44.3398 C   0  0  1  0  0  0  0  0  0  0  0  0
    5.3738   -2.9294   45.5228 C   0  0  2  0  0  0  0  0  0  0  0  0
    6.6133   -2.1566   45.5018 C   0  0  0  0  0  0  0  0  0  0  0  0
    4.2841    0.3926   42.8877 N   0  0  0  0  0  0  0  0  0  0  0  0
    5.4441   -4.2364   45.9837 C   0  0  0  0  0  0  0  0  0  0  0  0
    1.9678   -2.2711   42.4114 C   0  0  0  0  0  0  0  0  0  0  0  0
    7.1399   -1.4316   44.7431 O   0  0  0  0  0  0  0  0  0  0  0  0
    7.4936   -2.5586   46.5441 N   0  0  0  0  0  0  0  0  0  0  0  0
    5.8242   -4.4706   47.3868 C   0  0  0  0  0  0  0  0  0  0  0  0
    1.0261   -2.3754   41.4347 C   0  0  0  0  0  0  0  0  0  0  0  0
    0.1189   -3.5468   41.4614 C   0  0  0  0  0  0  0  0  0  0  0  0
    2.2389   -3.3785   43.2951 C   0  0  0  0  0  0  0  0  0  0  0  0
    3.3150   -3.3216   44.2621 C   0  0  0  0  0  0  0  0  0  0  0  0
   -0.9323   -3.5979   40.4982 O   0  0  0  0  0  0  0  0  0  0  0  0
    8.8055   -2.0091   46.8034 C   0  0  1  0  0  0  0  0  0  0  0  0
    7.0119   -3.4413   47.6500 C   0  0  0  0  0  0  0  0  0  0  0  0
    2.7433   -3.8413   45.4764 O   0  0  0  0  0  0  0  0  0  0  0  0
    9.7710   -2.5832   46.0267 C   0  0  0  0  0  0  0  0  0  0  0  0
   10.9637   -1.8384   45.7788 C   0  0  0  0  0  0  0  0  0  0  0  0
    0.3437   -4.4807   42.4063 C   0  0  0  0  0  0  0  0  0  0  0  0
   12.0609   -2.3737   45.3101 C   0  0  0  0  0  0  0  0  0  0  0  0
    1.3551   -4.4108   43.3255 C   0  0  0  0  0  0  0  0  0  0  0  0
   13.1666   -1.6519   44.9714 C   0  0  0  0  0  0  0  0  0  0  0  0
   13.4002   -0.3864   45.4924 C   0  0  0  0  0  0  0  0  0  0  0  0
   11.1716   -0.6490   46.4621 C   0  0  0  0  0  0  0  0  0  0  0  0
   10.0757   -0.0441   47.1576 C   0  0  0  0  0  0  0  0  0  0  0  0
    8.9161   -0.7659   47.3711 C   0  0  0  0  0  0  0  0  0  0  0  0
   12.3390    0.0684   46.2946 C   0  0  0  0  0  0  0  0  0  0  0  0
  1  2  1  0
  1  3  2  0
  2  4  1  0
  4  5  1  0
  6  5  1  1
  6  7  1  0
  7  8  1  0
  3  9  1  0
  4  9  2  0
  7 10  1  6
  2 11  1  0
  8 12  2  0
  8 13  1  0
 10 14  1  0
 11 15  2  0
 15 16  1  0
 11 17  1  0
  6 18  1  0
 17 18  1  0
 16 19  1  0
 20 13  1  6
 13 21  1  0
 14 21  1  0
 18 22  2  0
 20 23  1  0
 23 24  1  0
 16 25  2  0
 24 26  2  0
 17 27  2  0
 25 27  1  0
 26 28  1  0
 28 29  2  0
 24 30  1  0
 30 31  1  0
 20 32  1  0
 31 32  1  0
 29 33  1  0
 30 33  2  0
M  END
$$$$
O14757_Pocket2Mol_idx-in-all-generaetd-577
     RDKit          3D

 25 28  0  0  0  0  0  0  0  0999 V2000
    2.2608    0.0351   42.1039 C   0  0  0  0  0  0  0  0  0  0  0  0
    2.7906   -1.0673   42.3987 N   0  0  0  0  0  0  0  0  0  0  0  0
    3.1210    0.9973   42.3040 N   0  0  0  0  0  0  0  0  0  0  0  0
    4.0827   -0.7954   42.9700 C   0  0  0  0  0  0  0  0  0  0  0  0
    4.9955   -1.7234   43.5259 N   0  0  0  0  0  0  0  0  0  0  0  0
    4.5382   -2.7016   44.3398 C   0  0  0  0  0  0  0  0  0  0  0  0
    5.3738   -2.9294   45.5228 C   0  0  2  0  0  0  0  0  0  0  0  0
    6.6133   -2.1566   45.5018 C   0  0  0  0  0  0  0  0  0  0  0  0
    4.2841    0.3926   42.8877 N   0  0  0  0  0  0  0  0  0  0  0  0
    5.4441   -4.2364   45.9837 C   0  0  0  0  0  0  0  0  0  0  0  0
    1.9678   -2.2711   42.4114 C   0  0  0  0  0  0  0  0  0  0  0  0
    7.1399   -1.4316   44.7431 O   0  0  0  0  0  0  0  0  0  0  0  0
    7.4936   -2.5586   46.5441 N   0  0  0  0  0  0  0  0  0  0  0  0
    5.8242   -4.4706   47.3868 C   0  0  0  0  0  0  0  0  0  0  0  0
    1.0261   -2.3754   41.4347 C   0  0  0  0  0  0  0  0  0  0  0  0
    0.1189   -3.5468   41.4614 C   0  0  0  0  0  0  0  0  0  0  0  0
    2.2389   -3.3785   43.2951 C   0  0  0  0  0  0  0  0  0  0  0  0
    8.8204   -2.0489   46.8075 C   0  0  0  0  0  0  0  0  0  0  0  0
    0.3484   -4.5483   42.3997 C   0  0  0  0  0  0  0  0  0  0  0  0
   -0.4651   -5.6361   42.4743 O   0  0  0  0  0  0  0  0  0  0  0  0
    3.2198   -3.1033   44.3843 N   0  0  0  0  0  0  0  0  0  0  0  0
    7.1484   -3.7542   47.4585 C   0  0  0  0  0  0  0  0  0  0  0  0
    1.4134   -4.4113   43.3692 C   0  0  0  0  0  0  0  0  0  0  0  0
    9.6683   -2.7533   47.3480 C   0  0  0  0  0  0  0  0  0  0  0  0
    8.5959   -0.7193   47.5700 C   0  0  0  0  0  0  0  0  0  0  0  0
  1  2  1  0
  1  3  2  0
  2  4  1  0
  4  5  1  0
  5  6  1  0
  7  6  1  6
  7  8  1  0
  3  9  1  0
  4  9  2  0
  7 10  1  0
  2 11  1  0
  8 12  2  0
  8 13  1  0
 10 14  1  0
 11 15  2  0
 15 16  1  0
 11 17  1  0
 13 18  1  0
 16 19  2  0
 19 20  1  0
  6 21  2  0
 17 21  1  0
 13 22  1  0
 14 22  1  0
 17 23  2  0
 19 23  1  0
 18 24  1  0
 18 25  1  0
M  END
$$$$
O14757_Pocket2Mol_idx-in-all-generaetd-578
     RDKit          3D

 49 57  0  0  0  0  0  0  0  0999 V2000
    5.3420    0.2589   42.8836 O   0  0  0  0  0  0  0  0  0  0  0  0
    5.1627   -0.7554   43.4753 C   0  0  0  0  0  0  0  0  0  0  0  0
    4.0509   -1.4657   43.4177 N   0  0  0  0  0  0  0  0  0  0  0  0
    5.9969   -1.2317   44.6840 C   0  0  0  0  0  0  0  0  0  0  0  0
    2.9618   -1.1021   42.5918 C   0  0  1  0  0  0  0  0  0  0  0  0
    7.3392   -0.8596   44.8412 C   0  0  0  0  0  0  0  0  0  0  0  0
    1.9754   -2.0820   42.2741 C   0  0  0  0  0  0  0  0  0  0  0  0
    5.5910   -2.4282   45.3439 C   0  0  0  0  0  0  0  0  0  0  0  0
    6.5874   -2.9636   46.1581 C   0  0  0  0  0  0  0  0  0  0  0  0
    4.2763   -3.0680   45.0493 N   0  0  0  0  0  0  0  0  0  0  0  0
    3.6188   -2.5886   44.2024 C   0  0  0  0  0  0  0  0  0  0  0  0
    8.1921   -1.4071   45.7505 C   0  0  0  0  0  0  0  0  0  0  0  0
    1.0154   -1.8839   41.2980 C   0  0  0  0  0  0  0  0  0  0  0  0
    2.5720   -3.3564   43.9063 C   0  0  0  0  0  0  0  0  0  0  0  0
    0.2502   -2.8976   41.0751 C   0  0  0  0  0  0  0  0  0  0  0  0
    6.1761   -4.1775   47.0209 C   0  0  0  0  0  0  0  0  0  0  0  0
    1.7266   -3.1047   43.0115 C   0  0  2  0  0  0  0  0  0  0  0  0
    2.3696   -4.5367   44.7536 N   0  0  0  0  0  0  0  0  0  0  0  0
    1.2264   -5.2346   44.4693 C   0  0  0  0  0  0  0  0  0  0  0  0
    0.7187   -3.8955   42.5465 C   0  0  0  0  0  0  0  0  0  0  0  0
    9.4576   -0.8949   46.0327 N   0  0  0  0  0  0  0  0  0  0  0  0
    0.8625   -6.3901   45.2462 C   0  0  0  0  0  0  0  0  0  0  0  0
    7.6467   -2.5139   46.4892 C   0  0  0  0  0  0  0  0  0  0  0  0
   10.4908   -1.5336   45.8242 C   0  0  0  0  0  0  0  0  0  0  0  0
    0.3057   -4.9299   43.2909 C   0  0  0  0  0  0  0  0  0  0  0  0
   11.5916   -1.4291   46.7436 C   0  0  0  0  0  0  0  0  0  0  0  0
   10.5566   -2.3672   44.8649 O   0  0  0  0  0  0  0  0  0  0  0  0
    2.4730    0.2084   42.8389 O   0  0  0  0  0  0  0  0  0  0  0  0
   11.6027   -2.2081   47.7725 N   0  0  0  0  0  0  0  0  0  0  0  0
   12.6189   -0.5862   46.5415 C   0  0  0  0  0  0  0  0  0  0  0  0
   13.6413   -0.4484   47.4129 C   0  0  0  0  0  0  0  0  0  0  0  0
   10.4764   -3.1097   48.1134 C   0  0  0  0  0  0  0  0  0  0  0  0
    9.5762   -2.4717   49.0753 C   0  0  0  0  0  0  0  0  0  0  0  0
    9.7761   -1.2394   49.5167 C   0  0  0  0  0  0  0  0  0  0  0  0
    8.6397   -3.3252   49.7339 C   0  0  0  0  0  0  0  0  0  0  0  0
    8.9861   -0.7034   50.5819 C   0  0  0  0  0  0  0  0  0  0  0  0
   14.7137    0.5128   47.0925 C   0  0  0  0  0  0  0  0  0  0  0  0
    8.1815   -1.5423   51.2387 C   0  0  0  0  0  0  0  0  0  0  0  0
    8.4156   -4.7176   49.2102 O   0  0  0  0  0  0  0  0  0  0  0  0
   13.6915   -1.2597   48.4795 C   0  0  0  0  0  0  0  0  0  0  0  0
   14.7842   -1.1839   49.3622 C   0  0  0  0  0  0  0  0  0  0  0  0
   15.7412    0.6156   47.9897 C   0  0  0  0  0  0  0  0  0  0  0  0
   12.6237   -2.1211   48.7484 C   0  0  0  0  0  0  0  0  0  0  0  0
   16.8413    1.5264   47.7549 O   0  0  0  0  0  0  0  0  0  0  0  0
    7.9879   -2.9024   50.8018 C   0  0  0  0  0  0  0  0  0  0  0  0
   14.8879   -1.9645   50.5262 O   0  0  0  0  0  0  0  0  0  0  0  0
    7.1841   -5.2296   49.3914 C   0  0  0  0  0  0  0  0  0  0  0  0
    6.2807   -4.3740   48.3068 C   0  0  0  0  0  0  0  0  0  0  0  0
   15.8245   -0.2300   49.1248 C   0  0  0  0  0  0  0  0  0  0  0  0
  1  2  2  0
  2  3  1  0
  2  4  1  0
  3  5  1  0
  4  6  2  0
  5  7  1  0
  4  8  1  0
  8  9  2  0
  8 10  1  0
  3 11  1  0
 10 11  2  0
  6 12  1  0
  7 13  2  0
 11 14  1  0
 13 15  1  0
  9 16  1  0
 17  7  1  6
 14 17  1  0
 14 18  2  0
 18 19  1  0
 15 20  2  0
 17 20  1  0
 12 21  1  0
 19 22  1  0
  9 23  1  0
 12 23  2  0
 21 24  1  0
 19 25  2  0
 20 25  1  0
 24 26  1  0
 24 27  2  0
  5 28  1  1
 26 29  1  0
 26 30  2  0
 30 31  1  0
 29 32  1  0
 32 33  1  0
 33 34  1  0
 33 35  2  0
 34 36  2  0
 31 37  2  0
 36 38  1  0
 35 39  1  0
 31 40  1  0
 40 41  2  0
 37 42  1  0
 29 43  1  0
 40 43  1  0
 42 44  1  0
 35 45  1  0
 38 45  2  0
 41 46  1  0
 39 47  1  0
 16 48  1  0
 47 48  1  0
 41 49  1  0
 42 49  2  0
M  END
$$$$
O14757_Pocket2Mol_idx-in-all-generaetd-579
     RDKit          3D

 48 57  0  0  0  0  0  0  0  0999 V2000
    1.5482   -0.3111   41.9233 C   0  0  0  0  0  0  0  0  0  0  0  0
    2.7284    0.2018   42.1525 N   0  0  0  0  0  0  0  0  0  0  0  0
    3.7893   -0.3016   42.7005 C   0  0  0  0  0  0  0  0  0  0  0  0
    3.3781   -1.7350   43.0000 C   0  0  0  0  0  0  0  0  0  0  0  0
    2.0339   -1.9619   42.6217 C   0  0  0  0  0  0  0  0  0  0  0  0
    5.0090    0.1219   42.9340 N   0  0  0  0  0  0  0  0  0  0  0  0
    4.2895   -2.4979   43.6707 C   0  0  0  0  0  0  0  0  0  0  0  0
    5.8391   -0.6675   43.6343 C   0  0  0  0  0  0  0  0  0  0  0  0
    6.9849   -0.2377   44.0028 N   0  0  0  0  0  0  0  0  0  0  0  0
    4.0426   -3.8794   44.0832 C   0  0  0  0  0  0  0  0  0  0  0  0
    7.6796   -0.8734   44.9326 C   0  0  0  0  0  0  0  0  0  0  0  0
    1.1064   -2.9576   42.4211 C   0  0  0  0  0  0  0  0  0  0  0  0
    5.5298   -1.9496   44.0315 C   0  0  0  0  0  0  0  0  0  0  0  0
    3.8954   -4.1817   45.4718 C   0  0  0  0  0  0  0  0  0  0  0  0
    0.6765   -3.5480   43.4006 C   0  0  1  0  0  0  0  0  0  0  0  0
    0.5804   -3.2191   41.1635 C   0  0  0  0  0  0  0  0  0  0  0  0
    2.8083   -4.8227   45.9203 N   0  0  0  0  0  0  0  0  0  0  0  0
   -0.1574   -4.5754   42.9329 N   0  0  0  0  0  0  0  0  0  0  0  0
    6.5271   -2.5531   44.9677 C   0  0  0  0  0  0  0  0  0  0  0  0
   -0.2272   -4.3703   41.5137 C   0  0  0  0  0  0  0  0  0  0  0  0
    7.5095   -2.0029   45.3993 C   0  0  0  0  0  0  0  0  0  0  0  0
    8.2550   -2.6982   46.3988 C   0  0  0  0  0  0  0  0  0  0  0  0
    8.8975   -0.3029   45.3267 O   0  0  0  0  0  0  0  0  0  0  0  0
    4.8299   -4.4637   46.4212 C   0  0  0  0  0  0  0  0  0  0  0  0
    4.2707   -4.9248   47.6295 N   0  0  0  0  0  0  0  0  0  0  0  0
    3.2045   -5.2092   47.1521 C   0  0  0  0  0  0  0  0  0  0  0  0
    1.4482   -4.6186   45.4134 C   0  0  2  0  0  0  0  0  0  0  0  0
    1.2398   -3.5043   44.6236 O   0  0  0  0  0  0  0  0  0  0  0  0
    6.3317   -3.9297   46.0870 C   0  0  2  0  0  0  0  0  0  0  0  0
    9.5296   -2.5449   46.9776 C   0  0  0  0  0  0  0  0  0  0  0  0
    9.7921   -1.7530   47.9018 O   0  0  0  0  0  0  0  0  0  0  0  0
    7.3972   -3.8130   46.7939 C   0  0  0  0  0  0  0  0  0  0  0  0
   10.4154   -3.4217   46.6883 O   0  0  0  0  0  0  0  0  0  0  0  0
    0.5555   -4.7535   46.5674 C   0  0  0  0  0  0  0  0  0  0  0  0
   11.6497   -3.0596   47.0439 C   0  0  0  0  0  0  0  0  0  0  0  0
   12.3878   -4.1125   47.6990 C   0  0  1  0  0  0  0  0  0  0  0  0
   11.8800   -5.2760   47.5659 O   0  0  0  0  0  0  0  0  0  0  0  0
   12.1402   -1.9273   46.5416 C   0  0  0  0  0  0  0  0  0  0  0  0
   13.7566   -3.9428   47.4635 C   0  0  0  0  0  0  0  0  0  0  0  0
   11.3924   -5.9178   48.7514 C   0  0  0  0  0  0  0  0  0  0  0  0
   14.4126   -2.7430   47.0678 C   0  0  0  0  0  0  0  0  0  0  0  0
   13.4817   -1.7494   46.5455 C   0  0  0  0  0  0  0  0  0  0  0  0
   15.7358   -2.5357   47.0594 C   0  0  0  0  0  0  0  0  0  0  0  0
   14.0100   -0.6243   46.0829 C   0  0  0  0  0  0  0  0  0  0  0  0
   16.6116   -3.5372   47.4683 O   0  0  0  0  0  0  0  0  0  0  0  0
   13.1659    0.4962   45.5279 O   0  0  0  0  0  0  0  0  0  0  0  0
   16.2720   -1.3636   46.5134 C   0  0  0  0  0  0  0  0  0  0  0  0
   15.3893   -0.3413   46.0566 C   0  0  0  0  0  0  0  0  0  0  0  0
  1  2  1  0
  2  3  2  0
  3  4  1  0
  1  5  2  0
  4  5  1  0
  3  6  1  0
  4  7  2  0
  6  8  1  0
  8  9  1  0
  7 10  1  0
  9 11  1  0
  5 12  1  0
  7 13  1  0
  8 13  2  0
 10 14  1  0
 12 15  1  0
 12 16  2  0
 14 17  1  0
 15 18  1  0
 13 19  1  0
 16 20  1  0
 18 20  2  0
 11 21  1  0
 19 21  2  0
 21 22  1  0
 11 23  2  0
 14 24  2  0
 24 25  1  0
 17 26  1  0
 25 26  2  0
 17 27  1  0
 15 28  1  6
 27 28  1  0
 19 29  1  0
 24 29  1  0
 22 30  1  0
 30 31  2  0
 22 32  2  0
 29 32  1  1
 30 33  1  0
 27 34  1  1
 33 35  1  0
 35 36  1  0
 36 37  1  6
 35 38  2  0
 36 39  1  0
 37 40  1  0
 39 41  2  0
 38 42  1  0
 41 42  1  0
 41 43  1  0
 42 44  2  0
 43 45  1  0
 44 46  1  0
 43 47  2  0
 44 48  1  0
 47 48  1  0
M  END
$$$$
O14757_Pocket2Mol_idx-in-all-generaetd-580
     RDKit          3D

 32 36  0  0  0  0  0  0  0  0999 V2000
    1.5482   -0.3111   41.9233 C   0  0  0  0  0  0  0  0  0  0  0  0
    2.7284    0.2018   42.1525 N   0  0  0  0  0  0  0  0  0  0  0  0
    3.7893   -0.3016   42.7005 C   0  0  0  0  0  0  0  0  0  0  0  0
    3.3781   -1.7350   43.0000 C   0  0  0  0  0  0  0  0  0  0  0  0
    2.0339   -1.9619   42.6217 C   0  0  0  0  0  0  0  0  0  0  0  0
    5.0090    0.1219   42.9340 N   0  0  0  0  0  0  0  0  0  0  0  0
    4.2895   -2.4979   43.6707 C   0  0  0  0  0  0  0  0  0  0  0  0
    5.8391   -0.6675   43.6343 C   0  0  0  0  0  0  0  0  0  0  0  0
    6.9849   -0.2377   44.0028 N   0  0  0  0  0  0  0  0  0  0  0  0
    4.0426   -3.8794   44.0832 C   0  0  0  0  0  0  0  0  0  0  0  0
    7.6796   -0.8734   44.9326 C   0  0  0  0  0  0  0  0  0  0  0  0
    1.1064   -2.9576   42.4211 C   0  0  0  0  0  0  0  0  0  0  0  0
    5.5298   -1.9496   44.0315 C   0  0  0  0  0  0  0  0  0  0  0  0
    3.8954   -4.1817   45.4718 C   0  0  0  0  0  0  0  0  0  0  0  0
    0.6765   -3.5480   43.4006 C   0  0  0  0  0  0  0  0  0  0  0  0
    0.5804   -3.2191   41.1635 C   0  0  0  0  0  0  0  0  0  0  0  0
    2.8083   -4.8227   45.9203 N   0  0  0  0  0  0  0  0  0  0  0  0
   -0.1574   -4.5754   42.9329 N   0  0  0  0  0  0  0  0  0  0  0  0
    6.5271   -2.5531   44.9677 C   0  0  0  0  0  0  0  0  0  0  0  0
   -0.2272   -4.3703   41.5137 C   0  0  0  0  0  0  0  0  0  0  0  0
    7.5095   -2.0029   45.3993 C   0  0  0  0  0  0  0  0  0  0  0  0
    8.2550   -2.6982   46.3988 C   0  0  0  0  0  0  0  0  0  0  0  0
    4.4030   -3.3432   46.3770 O   0  0  0  0  0  0  0  0  0  0  0  0
    8.9249   -0.3105   45.3298 O   0  0  0  0  0  0  0  0  0  0  0  0
    2.2642   -5.9868   45.3170 C   0  0  0  0  0  0  0  0  0  0  0  0
    8.2622   -4.0752   46.4883 C   0  0  0  0  0  0  0  0  0  0  0  0
    9.4528   -4.4665   47.0839 C   0  0  0  0  0  0  0  0  0  0  0  0
    8.9830   -2.0054   47.2899 C   0  0  0  0  0  0  0  0  0  0  0  0
   10.1028   -3.9627   48.0985 C   0  0  0  0  0  0  0  0  0  0  0  0
    8.8268   -0.5501   47.4846 O   0  0  0  0  0  0  0  0  0  0  0  0
    9.9041   -2.5319   48.1782 C   0  0  0  0  0  0  0  0  0  0  0  0
   10.5460   -1.7965   49.0726 O   0  0  0  0  0  0  0  0  0  0  0  0
  1  2  1  0
  2  3  2  0
  3  4  1  0
  1  5  2  0
  4  5  1  0
  3  6  1  0
  4  7  2  0
  6  8  1  0
  8  9  1  0
  7 10  1  0
  9 11  1  0
  5 12  1  0
  7 13  1  0
  8 13  2  0
 10 14  1  0
 12 15  1  0
 12 16  2  0
 14 17  1  0
 15 18  1  0
 13 19  1  0
 16 20  1  0
 18 20  2  0
 11 21  1  0
 19 21  2  0
 21 22  1  0
 14 23  2  0
 11 24  2  0
 17 25  1  0
 22 26  1  0
 26 27  1  0
 22 28  2  0
 27 29  2  0
 28 30  1  0
 28 31  1  0
 29 31  1  0
 31 32  2  0
M  END
$$$$
O14757_Pocket2Mol_idx-in-all-generaetd-581
     RDKit          3D

 37 43  0  0  0  0  0  0  0  0999 V2000
    1.5482   -0.3111   41.9233 C   0  0  0  0  0  0  0  0  0  0  0  0
    2.7284    0.2018   42.1525 N   0  0  0  0  0  0  0  0  0  0  0  0
    3.7893   -0.3016   42.7005 C   0  0  0  0  0  0  0  0  0  0  0  0
    3.3781   -1.7350   43.0000 C   0  0  0  0  0  0  0  0  0  0  0  0
    2.0339   -1.9619   42.6217 C   0  0  0  0  0  0  0  0  0  0  0  0
    4.1166   -2.4997   43.8458 C   0  0  0  0  0  0  0  0  0  0  0  0
    1.1731   -3.0051   42.5773 C   0  0  0  0  0  0  0  0  0  0  0  0
    0.4701   -3.2344   41.4901 C   0  0  0  0  0  0  0  0  0  0  0  0
    5.3799   -1.7814   44.2691 C   0  0  0  0  0  0  0  0  0  0  0  0
    5.0159   -0.0180   43.1201 N   0  0  0  0  0  0  0  0  0  0  0  0
    5.7693   -0.6937   43.8418 C   0  0  0  0  0  0  0  0  0  0  0  0
    0.8078   -3.6166   43.6782 C   0  0  0  0  0  0  0  0  0  0  0  0
    0.0663   -4.7011   43.7415 N   0  0  0  0  0  0  0  0  0  0  0  0
    6.2223   -2.6843   45.1565 C   0  0  0  0  0  0  0  0  0  0  0  0
    6.9599   -0.2351   44.2608 N   0  0  0  0  0  0  0  0  0  0  0  0
    5.9065   -3.9037   45.7499 N   0  0  0  0  0  0  0  0  0  0  0  0
   -0.5459   -5.1185   42.5870 C   0  0  0  0  0  0  0  0  0  0  0  0
    5.7480   -4.0340   46.9810 C   0  0  0  0  0  0  0  0  0  0  0  0
    7.4448   -1.8511   45.4198 C   0  0  0  0  0  0  0  0  0  0  0  0
    7.7572   -0.7827   45.0128 C   0  0  0  0  0  0  0  0  0  0  0  0
    8.4076   -2.7217   46.4541 C   0  0  0  0  0  0  0  0  0  0  0  0
    9.3167   -2.0988   47.1049 N   0  0  0  0  0  0  0  0  0  0  0  0
   -0.4719   -4.3893   41.5406 C   0  0  0  0  0  0  0  0  0  0  0  0
    8.3667   -4.0284   46.5743 N   0  0  0  0  0  0  0  0  0  0  0  0
   10.1532   -2.5726   47.9567 C   0  0  0  0  0  0  0  0  0  0  0  0
    7.1666   -4.7114   47.2915 C   0  0  0  0  0  0  0  0  0  0  0  0
   11.4560   -2.5376   47.5873 C   0  0  0  0  0  0  0  0  0  0  0  0
    9.7828   -2.8884   49.1392 O   0  0  0  0  0  0  0  0  0  0  0  0
   12.0816   -3.7528   47.5780 C   0  0  0  0  0  0  0  0  0  0  0  0
   13.0617   -4.0125   46.6054 C   0  0  0  0  0  0  0  0  0  0  0  0
   12.2258   -1.3721   47.5235 C   0  0  0  0  0  0  0  0  0  0  0  0
   13.4505   -1.4864   46.8187 C   0  0  0  0  0  0  0  0  0  0  0  0
   14.2846   -0.3453   46.5625 O   0  0  0  0  0  0  0  0  0  0  0  0
   13.9481   -2.7349   46.3069 C   0  0  0  0  0  0  0  0  0  0  0  0
   14.8520   -2.7019   45.6346 O   0  0  0  0  0  0  0  0  0  0  0  0
   14.4630   -0.0346   45.4048 C   0  0  0  0  0  0  0  0  0  0  0  0
   15.3138   -1.4006   45.0607 C   0  0  0  0  0  0  0  0  0  0  0  0
  1  2  1  0
  2  3  2  0
  3  4  1  0
  1  5  2  0
  4  5  1  0
  4  6  2  0
  5  7  1  0
  7  8  2  0
  6  9  1  0
  3 10  1  0
  9 11  2  0
 10 11  1  0
  7 12  1  0
 12 13  2  0
  9 14  1  0
 11 15  1  0
 14 16  1  0
 13 17  1  0
 16 18  1  0
 14 19  2  0
 15 20  2  0
 19 20  1  0
 19 21  1  0
 21 22  2  3
  8 23  1  0
 17 23  2  0
 21 24  1  0
 22 25  1  0
 18 26  1  0
 24 26  1  0
 25 27  1  0
 25 28  2  0
 27 29  2  0
 29 30  1  0
 27 31  1  0
 31 32  2  0
 32 33  1  0
 30 34  2  0
 32 34  1  0
 34 35  1  0
 33 36  1  0
 35 37  1  0
 36 37  1  0
M  END
$$$$
O14757_Pocket2Mol_idx-in-all-generaetd-582
     RDKit          3D

 24 26  0  0  0  0  0  0  0  0999 V2000
    5.1775    0.2381   42.7925 N   0  0  0  0  0  0  0  0  0  0  0  0
    3.8485    0.3515   42.4285 N   0  0  0  0  0  0  0  0  0  0  0  0
    5.5201   -0.8216   43.5188 C   0  0  0  0  0  0  0  0  0  0  0  0
    4.5575   -1.7838   43.9113 C   0  0  0  0  0  0  0  0  0  0  0  0
    2.9777   -0.5504   42.6073 C   0  0  0  0  0  0  0  0  0  0  0  0
    4.8521   -2.9209   44.7316 C   0  0  0  0  0  0  0  0  0  0  0  0
    3.2351   -1.5675   43.1903 C   0  0  0  0  0  0  0  0  0  0  0  0
    1.6955   -0.2711   41.8967 C   0  0  0  0  0  0  0  0  0  0  0  0
    0.8864   -1.3663   42.0618 C   0  0  0  0  0  0  0  0  0  0  0  0
    2.3187   -2.7500   43.4543 C   0  0  0  0  0  0  0  0  0  0  0  0
    1.1071   -2.5907   42.7445 C   0  0  0  0  0  0  0  0  0  0  0  0
    6.0979   -2.8249   45.5633 C   0  0  0  0  0  0  0  0  0  0  0  0
    0.0423   -3.6939   42.8205 C   0  0  0  0  0  0  0  0  0  0  0  0
    0.2331   -4.5880   43.5917 O   0  0  0  0  0  0  0  0  0  0  0  0
    6.4257   -3.8638   46.3660 C   0  0  0  0  0  0  0  0  0  0  0  0
    6.9218   -1.6136   45.5979 C   0  0  0  0  0  0  0  0  0  0  0  0
    8.0623   -1.7273   46.3213 C   0  0  0  0  0  0  0  0  0  0  0  0
    5.4782   -4.9551   46.4171 O   0  0  0  0  0  0  0  0  0  0  0  0
   -0.4252   -3.9861   41.5744 O   0  0  0  0  0  0  0  0  0  0  0  0
    4.1344   -4.7140   46.8556 C   0  0  0  0  0  0  0  0  0  0  0  0
    7.5352   -3.8933   47.0992 C   0  0  0  0  0  0  0  0  0  0  0  0
    8.4596   -2.8409   47.0974 C   0  0  0  0  0  0  0  0  0  0  0  0
    9.6382   -2.8230   47.8574 O   0  0  0  0  0  0  0  0  0  0  0  0
   10.0845   -1.8344   48.4996 C   0  0  0  0  0  0  0  0  0  0  0  0
  1  2  2  0
  1  3  1  0
  3  4  2  0
  2  5  1  0
  4  6  1  0
  4  7  1  0
  5  7  2  0
  5  8  1  0
  8  9  2  0
  7 10  1  0
  9 11  1  0
 10 11  2  0
  6 12  1  0
 11 13  1  0
 13 14  1  0
 12 15  2  0
 12 16  1  0
 16 17  2  0
 15 18  1  0
 13 19  2  0
 18 20  1  0
 15 21  1  0
 17 22  1  0
 21 22  2  0
 22 23  1  0
 23 24  1  0
M  END
$$$$
O14757_Pocket2Mol_idx-in-all-generaetd-583
     RDKit          3D

 46 54  0  0  0  0  0  0  0  0999 V2000
    1.5482   -0.3111   41.9233 C   0  0  0  0  0  0  0  0  0  0  0  0
    2.7284    0.2018   42.1525 N   0  0  0  0  0  0  0  0  0  0  0  0
    3.7893   -0.3016   42.7005 C   0  0  0  0  0  0  0  0  0  0  0  0
    3.3781   -1.7350   43.0000 C   0  0  0  0  0  0  0  0  0  0  0  0
    2.0339   -1.9619   42.6217 C   0  0  0  0  0  0  0  0  0  0  0  0
    5.0090    0.1219   42.9340 N   0  0  0  0  0  0  0  0  0  0  0  0
    4.2895   -2.4979   43.6707 C   0  0  0  0  0  0  0  0  0  0  0  0
    5.8391   -0.6675   43.6343 C   0  0  0  0  0  0  0  0  0  0  0  0
    6.9849   -0.2377   44.0028 N   0  0  0  0  0  0  0  0  0  0  0  0
    4.0426   -3.8794   44.0832 C   0  0  0  0  0  0  0  0  0  0  0  0
    7.6796   -0.8734   44.9326 C   0  0  0  0  0  0  0  0  0  0  0  0
    1.1064   -2.9576   42.4211 C   0  0  0  0  0  0  0  0  0  0  0  0
    5.5298   -1.9496   44.0315 C   0  0  0  0  0  0  0  0  0  0  0  0
    3.8954   -4.1817   45.4718 C   0  0  0  0  0  0  0  0  0  0  0  0
    0.6765   -3.5480   43.4006 C   0  0  1  0  0  0  0  0  0  0  0  0
    0.5804   -3.2191   41.1635 C   0  0  0  0  0  0  0  0  0  0  0  0
    2.8083   -4.8227   45.9203 N   0  0  0  0  0  0  0  0  0  0  0  0
   -0.1574   -4.5754   42.9329 N   0  0  0  0  0  0  0  0  0  0  0  0
    6.5271   -2.5531   44.9677 C   0  0  0  0  0  0  0  0  0  0  0  0
   -0.2272   -4.3703   41.5137 C   0  0  0  0  0  0  0  0  0  0  0  0
    7.5095   -2.0029   45.3993 C   0  0  0  0  0  0  0  0  0  0  0  0
    8.2550   -2.6982   46.3988 C   0  0  2  0  0  0  0  0  0  0  0  0
    8.8975   -0.3029   45.3267 O   0  0  0  0  0  0  0  0  0  0  0  0
    4.8299   -4.4637   46.4212 C   0  0  0  0  0  0  0  0  0  0  0  0
    4.2707   -4.9248   47.6295 N   0  0  0  0  0  0  0  0  0  0  0  0
    3.2045   -5.2092   47.1521 C   0  0  0  0  0  0  0  0  0  0  0  0
    1.4482   -4.6186   45.4134 C   0  0  2  0  0  0  0  0  0  0  0  0
    1.2398   -3.5043   44.6236 O   0  0  0  0  0  0  0  0  0  0  0  0
    6.3317   -3.9297   46.0870 C   0  0  2  0  0  0  0  0  0  0  0  0
    9.5296   -2.5449   46.9776 C   0  0  0  0  0  0  0  0  0  0  0  0
    9.7921   -1.7530   47.9018 O   0  0  0  0  0  0  0  0  0  0  0  0
    7.4454   -3.8344   46.8035 C   0  0  0  0  0  0  0  0  0  0  0  0
   10.5010   -3.0847   46.3190 O   0  0  0  0  0  0  0  0  0  0  0  0
    0.5569   -4.7693   46.5649 C   0  0  0  0  0  0  0  0  0  0  0  0
   11.7452   -2.8462   46.6234 C   0  0  0  0  0  0  0  0  0  0  0  0
   12.4344   -1.8951   45.7393 C   0  0  0  0  0  0  0  0  0  0  0  0
   12.4612   -3.5429   47.5581 C   0  0  0  0  0  0  0  0  0  0  0  0
   11.7737   -4.5216   48.4115 C   0  0  0  0  0  0  0  0  0  0  0  0
   13.7761   -1.6251   45.9829 C   0  0  0  0  0  0  0  0  0  0  0  0
   13.7909   -3.1787   47.7950 C   0  0  0  0  0  0  0  0  0  0  0  0
   11.6069   -4.2006   49.6507 O   0  0  0  0  0  0  0  0  0  0  0  0
   14.4467   -2.2633   47.0116 C   0  0  0  0  0  0  0  0  0  0  0  0
   11.1106   -5.4205   47.8053 N   0  0  0  0  0  0  0  0  0  0  0  0
   10.4699   -6.4814   48.5939 C   0  0  0  0  0  0  0  0  0  0  0  0
    9.7934   -7.5361   47.6928 C   0  0  0  0  0  0  0  0  0  0  0  0
    9.8458   -7.1267   46.3529 O   0  0  0  0  0  0  0  0  0  0  0  0
  1  2  1  0
  2  3  2  0
  3  4  1  0
  1  5  2  0
  4  5  1  0
  3  6  1  0
  4  7  2  0
  6  8  1  0
  8  9  1  0
  7 10  1  0
  9 11  1  0
  5 12  1  0
  7 13  1  0
  8 13  2  0
 10 14  1  0
 12 15  1  0
 12 16  2  0
 14 17  1  0
 15 18  1  0
 13 19  1  0
 16 20  1  0
 18 20  2  0
 11 21  1  0
 19 21  2  0
 21 22  1  0
 11 23  2  0
 14 24  2  0
 24 25  1  0
 17 26  1  0
 25 26  2  0
 17 27  1  0
 15 28  1  6
 27 28  1  0
 19 29  1  0
 24 29  1  0
 22 30  1  6
 30 31  2  0
 22 32  1  0
 29 32  1  1
 30 33  1  0
 27 34  1  1
 33 35  1  0
 35 36  2  0
 35 37  1  0
 37 38  1  0
 36 39  1  0
 37 40  2  0
 38 41  2  0
 39 42  2  0
 40 42  1  0
 38 43  1  0
 43 44  1  0
 44 45  1  0
 45 46  1  0
M  END
$$$$
O14757_Pocket2Mol_idx-in-all-generaetd-584
     RDKit          3D

 20 22  0  0  0  0  0  0  0  0999 V2000
    5.3420    0.2589   42.8836 N   0  0  0  0  0  0  0  0  0  0  0  0
    5.6740   -0.8311   43.5645 C   0  0  0  0  0  0  0  0  0  0  0  0
    3.9899   -0.0458   42.5141 N   0  0  0  0  0  0  0  0  0  0  0  0
    4.6606   -1.7163   43.6337 C   0  0  0  0  0  0  0  0  0  0  0  0
    3.6244   -1.2025   42.8928 C   0  0  0  0  0  0  0  0  0  0  0  0
    2.3780   -1.7713   42.6359 C   0  0  0  0  0  0  0  0  0  0  0  0
    4.5721   -3.0267   44.2590 C   0  0  0  0  0  0  0  0  0  0  0  0
    1.3110   -1.1954   41.9273 C   0  0  0  0  0  0  0  0  0  0  0  0
    6.9669   -1.0468   44.3352 C   0  0  0  0  0  0  0  0  0  0  0  0
    2.2279   -3.0554   43.2761 C   0  0  0  0  0  0  0  0  0  0  0  0
    7.2112   -1.1065   45.5035 C   0  0  0  0  0  0  0  0  0  0  0  0
    3.2239   -3.6182   44.0333 C   0  0  0  0  0  0  0  0  0  0  0  0
    8.4186   -1.4161   46.1085 C   0  0  0  0  0  0  0  0  0  0  0  0
    9.4169   -0.6822   46.1899 O   0  0  0  0  0  0  0  0  0  0  0  0
    0.9504   -3.6440   42.9670 C   0  0  0  0  0  0  0  0  0  0  0  0
    8.6308   -2.7462   46.5345 O   0  0  0  0  0  0  0  0  0  0  0  0
    9.8325   -3.1241   47.0044 C   0  0  0  0  0  0  0  0  0  0  0  0
    1.5160    0.1268   41.4340 O   0  0  0  0  0  0  0  0  0  0  0  0
    0.2635   -1.7253   41.7006 C   0  0  0  0  0  0  0  0  0  0  0  0
    0.1175   -3.0776   42.2155 C   0  0  0  0  0  0  0  0  0  0  0  0
  1  2  2  0
  1  3  1  0
  2  4  1  0
  3  5  1  0
  4  5  2  0
  5  6  1  0
  4  7  1  0
  6  8  2  0
  2  9  1  0
  6 10  1  0
  9 11  2  3
  7 12  2  0
 10 12  1  0
 11 13  1  0
 13 14  2  0
 10 15  2  0
 13 16  1  0
 16 17  1  0
  8 18  1  0
  8 19  1  0
 15 20  1  0
 19 20  2  0
M  END
$$$$
O14757_Pocket2Mol_idx-in-all-generaetd-585
     RDKit          3D

 31 35  0  0  0  0  0  0  0  0999 V2000
    2.2608    0.0351   42.1039 C   0  0  0  0  0  0  0  0  0  0  0  0
    2.7906   -1.0673   42.3987 N   0  0  0  0  0  0  0  0  0  0  0  0
    3.1210    0.9973   42.3040 N   0  0  0  0  0  0  0  0  0  0  0  0
    4.0827   -0.7954   42.9700 C   0  0  0  0  0  0  0  0  0  0  0  0
    4.9955   -1.7234   43.5259 N   0  0  0  0  0  0  0  0  0  0  0  0
    4.5382   -2.7016   44.3398 C   0  0  1  0  0  0  0  0  0  0  0  0
    5.3738   -2.9294   45.5228 C   0  0  2  0  0  0  0  0  0  0  0  0
    6.6133   -2.1566   45.5018 C   0  0  0  0  0  0  0  0  0  0  0  0
    4.2841    0.3926   42.8877 N   0  0  0  0  0  0  0  0  0  0  0  0
    5.4441   -4.2364   45.9837 C   0  0  0  0  0  0  0  0  0  0  0  0
    1.9678   -2.2711   42.4114 C   0  0  0  0  0  0  0  0  0  0  0  0
    7.1399   -1.4316   44.7431 O   0  0  0  0  0  0  0  0  0  0  0  0
    7.4936   -2.5586   46.5441 N   0  0  0  0  0  0  0  0  0  0  0  0
    5.8242   -4.4706   47.3868 C   0  0  0  0  0  0  0  0  0  0  0  0
    1.0261   -2.3754   41.4347 C   0  0  0  0  0  0  0  0  0  0  0  0
    0.1189   -3.5468   41.4614 C   0  0  0  0  0  0  0  0  0  0  0  0
    2.2389   -3.3785   43.2951 C   0  0  0  0  0  0  0  0  0  0  0  0
    3.3150   -3.3216   44.2621 C   0  0  0  0  0  0  0  0  0  0  0  0
   -0.9323   -3.5979   40.4982 O   0  0  0  0  0  0  0  0  0  0  0  0
    8.8055   -2.0091   46.8034 C   0  0  0  0  0  0  0  0  0  0  0  0
    7.0119   -3.4413   47.6500 C   0  0  0  0  0  0  0  0  0  0  0  0
    2.7433   -3.8413   45.4764 O   0  0  0  0  0  0  0  0  0  0  0  0
    9.7710   -2.5832   46.0267 C   0  0  0  0  0  0  0  0  0  0  0  0
   10.9637   -1.8384   45.7788 C   0  0  0  0  0  0  0  0  0  0  0  0
    0.3437   -4.4807   42.4063 C   0  0  0  0  0  0  0  0  0  0  0  0
   12.0609   -2.3737   45.3101 C   0  0  0  0  0  0  0  0  0  0  0  0
    1.3551   -4.4108   43.3255 C   0  0  0  0  0  0  0  0  0  0  0  0
   13.1666   -1.6519   44.9714 C   0  0  0  0  0  0  0  0  0  0  0  0
   13.4002   -0.3864   45.4924 C   0  0  0  0  0  0  0  0  0  0  0  0
   11.1716   -0.6490   46.4621 C   0  0  0  0  0  0  0  0  0  0  0  0
   12.3787    0.1140   46.2363 C   0  0  0  0  0  0  0  0  0  0  0  0
  1  2  1  0
  1  3  2  0
  2  4  1  0
  4  5  1  0
  6  5  1  1
  6  7  1  0
  7  8  1  0
  3  9  1  0
  4  9  2  0
  7 10  1  6
  2 11  1  0
  8 12  2  0
  8 13  1  0
 10 14  1  0
 11 15  2  0
 15 16  1  0
 11 17  1  0
  6 18  1  0
 17 18  1  0
 16 19  1  0
 13 20  1  0
 13 21  1  0
 14 21  1  0
 18 22  2  0
 20 23  1  0
 23 24  1  0
 16 25  2  0
 24 26  2  0
 17 27  2  0
 25 27  1  0
 26 28  1  0
 28 29  2  0
 24 30  1  0
 29 31  1  0
 30 31  2  0
M  END
$$$$
O14757_Pocket2Mol_idx-in-all-generaetd-586
     RDKit          3D

 37 43  0  0  0  0  0  0  0  0999 V2000
    5.1775    0.2381   42.7925 N   0  0  0  0  0  0  0  0  0  0  0  0
    3.8485    0.3515   42.4285 N   0  0  0  0  0  0  0  0  0  0  0  0
    5.5201   -0.8216   43.5188 C   0  0  0  0  0  0  0  0  0  0  0  0
    4.5575   -1.7838   43.9113 C   0  0  0  0  0  0  0  0  0  0  0  0
    2.9777   -0.5504   42.6073 C   0  0  0  0  0  0  0  0  0  0  0  0
    4.8521   -2.9209   44.7316 C   0  0  0  0  0  0  0  0  0  0  0  0
    3.2351   -1.5675   43.1903 C   0  0  0  0  0  0  0  0  0  0  0  0
    1.6955   -0.2711   41.8967 C   0  0  0  0  0  0  0  0  0  0  0  0
    0.8864   -1.3663   42.0618 C   0  0  0  0  0  0  0  0  0  0  0  0
    2.3187   -2.7500   43.4543 C   0  0  0  0  0  0  0  0  0  0  0  0
    1.1071   -2.5907   42.7445 C   0  0  0  0  0  0  0  0  0  0  0  0
    6.0979   -2.8249   45.5633 C   0  0  0  0  0  0  0  0  0  0  0  0
    0.0423   -3.6939   42.8205 C   0  0  0  0  0  0  0  0  0  0  0  0
    4.2011   -4.0423   44.9363 C   0  0  0  0  0  0  0  0  0  0  0  0
    4.5424   -5.0339   45.7893 C   0  0  0  0  0  0  0  0  0  0  0  0
   -0.0110   -4.4040   41.6463 N   0  0  0  0  0  0  0  0  0  0  0  0
    2.8431   -3.9954   44.0809 C   0  0  0  0  0  0  0  0  0  0  0  0
    7.0703   -1.6758   45.5388 C   0  0  0  0  0  0  0  0  0  0  0  0
    6.5324   -3.6602   46.4424 C   0  0  0  0  0  0  0  0  0  0  0  0
    5.6842   -4.8828   46.5405 C   0  0  0  0  0  0  0  0  0  0  0  0
    6.7957   -0.7421   44.3455 N   0  0  0  0  0  0  0  0  0  0  0  0
   -0.5371   -3.9067   43.6730 O   0  0  0  0  0  0  0  0  0  0  0  0
    8.1253   -1.3380   46.2529 C   0  0  0  0  0  0  0  0  0  0  0  0
    8.4826   -2.3424   47.1646 C   0  0  0  0  0  0  0  0  0  0  0  0
    7.6160   -3.5262   47.3486 C   0  0  0  0  0  0  0  0  0  0  0  0
    9.6963   -2.1931   47.9970 C   0  0  0  0  0  0  0  0  0  0  0  0
    9.5527   -1.4028   48.9318 O   0  0  0  0  0  0  0  0  0  0  0  0
   10.7595   -2.8202   47.7301 O   0  0  0  0  0  0  0  0  0  0  0  0
   11.5009   -2.2828   46.6278 C   0  0  0  0  0  0  0  0  0  0  0  0
   12.6280   -1.6044   46.9222 C   0  0  0  0  0  0  0  0  0  0  0  0
   13.3270   -1.0085   45.8437 C   0  0  0  0  0  0  0  0  0  0  0  0
   13.3294   -1.4807   44.7187 C   0  0  0  0  0  0  0  0  0  0  0  0
   14.2954   -0.9482   43.6825 C   0  0  0  0  0  0  0  0  0  0  0  0
   11.2330   -3.1312   45.5311 C   0  0  0  0  0  0  0  0  0  0  0  0
   12.3057   -2.4282   44.3138 C   0  0  0  0  0  0  0  0  0  0  0  0
   14.3289    0.1782   43.3140 O   0  0  0  0  0  0  0  0  0  0  0  0
   14.8748   -1.8339   42.8712 O   0  0  0  0  0  0  0  0  0  0  0  0
  1  2  2  0
  1  3  1  0
  3  4  2  0
  2  5  1  0
  4  6  1  0
  4  7  1  0
  5  7  2  0
  5  8  1  0
  8  9  2  0
  7 10  1  0
  9 11  1  0
 10 11  2  0
  6 12  2  0
 11 13  1  0
  6 14  1  0
 14 15  2  0
 13 16  1  0
 10 17  1  0
 14 17  1  0
 12 18  1  0
 12 19  1  0
 15 20  1  0
 19 20  2  0
  3 21  1  0
 18 21  2  0
 13 22  2  0
 18 23  1  0
 23 24  2  0
 19 25  1  0
 24 25  1  0
 24 26  1  0
 26 27  2  0
 26 28  1  0
 28 29  1  0
 29 30  2  0
 30 31  1  0
 31 32  2  0
 32 33  1  0
 29 34  1  0
 32 35  1  0
 34 35  2  0
 33 36  1  0
 33 37  2  0
M  END
$$$$
O14757_Pocket2Mol_idx-in-all-generaetd-587
     RDKit          3D

 30 37  0  0  0  0  0  0  0  0999 V2000
    1.5482   -0.3111   41.9233 C   0  0  0  0  0  0  0  0  0  0  0  0
    2.7284    0.2018   42.1525 N   0  0  0  0  0  0  0  0  0  0  0  0
    3.7893   -0.3016   42.7005 C   0  0  0  0  0  0  0  0  0  0  0  0
    3.3781   -1.7350   43.0000 C   0  0  0  0  0  0  0  0  0  0  0  0
    2.0339   -1.9619   42.6217 C   0  0  0  0  0  0  0  0  0  0  0  0
    5.0090    0.1219   42.9340 N   0  0  0  0  0  0  0  0  0  0  0  0
    4.2895   -2.4979   43.6707 C   0  0  0  0  0  0  0  0  0  0  0  0
    5.8391   -0.6675   43.6343 C   0  0  0  0  0  0  0  0  0  0  0  0
    6.9849   -0.2377   44.0028 N   0  0  0  0  0  0  0  0  0  0  0  0
    4.0426   -3.8794   44.0832 C   0  0  0  0  0  0  0  0  0  0  0  0
    7.6796   -0.8734   44.9326 C   0  0  0  0  0  0  0  0  0  0  0  0
    1.1064   -2.9576   42.4211 C   0  0  0  0  0  0  0  0  0  0  0  0
    5.5298   -1.9496   44.0315 C   0  0  0  0  0  0  0  0  0  0  0  0
    3.8954   -4.1817   45.4718 C   0  0  0  0  0  0  0  0  0  0  0  0
    0.6765   -3.5480   43.4006 C   0  0  0  0  0  0  0  0  0  0  0  0
    0.5804   -3.2191   41.1635 C   0  0  0  0  0  0  0  0  0  0  0  0
    2.8083   -4.8227   45.9203 N   0  0  0  0  0  0  0  0  0  0  0  0
   -0.1574   -4.5754   42.9329 N   0  0  0  0  0  0  0  0  0  0  0  0
    6.5271   -2.5531   44.9677 C   0  0  0  0  0  0  0  0  0  0  0  0
   -0.2272   -4.3703   41.5137 C   0  0  0  0  0  0  0  0  0  0  0  0
    7.5095   -2.0029   45.3993 C   0  0  0  0  0  0  0  0  0  0  0  0
    8.2550   -2.6982   46.3988 C   0  0  0  0  0  0  0  0  0  0  0  0
    8.8975   -0.3029   45.3267 O   0  0  0  0  0  0  0  0  0  0  0  0
    4.8299   -4.4637   46.4212 C   0  0  0  0  0  0  0  0  0  0  0  0
    4.2707   -4.9248   47.6295 N   0  0  0  0  0  0  0  0  0  0  0  0
    3.2045   -5.2092   47.1521 C   0  0  0  0  0  0  0  0  0  0  0  0
    6.3206   -3.8571   46.1489 C   0  0  0  0  0  0  0  0  0  0  0  0
    7.4043   -3.8499   46.7980 C   0  0  0  0  0  0  0  0  0  0  0  0
    1.5214   -4.9374   45.2716 C   0  0  0  0  0  0  0  0  0  0  0  0
    1.1159   -3.5719   44.7223 C   0  0  0  0  0  0  0  0  0  0  0  0
  1  2  1  0
  2  3  2  0
  3  4  1  0
  1  5  2  0
  4  5  1  0
  3  6  1  0
  4  7  2  0
  6  8  1  0
  8  9  1  0
  7 10  1  0
  9 11  1  0
  5 12  1  0
  7 13  1  0
  8 13  2  0
 10 14  1  0
 12 15  1  0
 12 16  2  0
 14 17  1  0
 15 18  1  0
 13 19  1  0
 16 20  1  0
 18 20  2  0
 11 21  1  0
 19 21  2  0
 21 22  1  0
 11 23  2  0
 14 24  2  0
 24 25  1  0
 17 26  1  0
 25 26  2  0
 19 27  1  0
 24 27  1  0
 22 28  2  0
 27 28  2  0
 17 29  1  0
 15 30  2  3
 29 30  1  0
M  END
$$$$
O14757_Pocket2Mol_idx-in-all-generaetd-588
     RDKit          3D

 36 41  0  0  0  0  0  0  0  0999 V2000
    1.5482   -0.3111   41.9233 C   0  0  0  0  0  0  0  0  0  0  0  0
    2.7284    0.2018   42.1525 N   0  0  0  0  0  0  0  0  0  0  0  0
    3.7893   -0.3016   42.7005 C   0  0  0  0  0  0  0  0  0  0  0  0
    3.3781   -1.7350   43.0000 C   0  0  0  0  0  0  0  0  0  0  0  0
    2.0339   -1.9619   42.6217 C   0  0  0  0  0  0  0  0  0  0  0  0
    4.1166   -2.4997   43.8458 C   0  0  0  0  0  0  0  0  0  0  0  0
    1.1731   -3.0051   42.5773 C   0  0  0  0  0  0  0  0  0  0  0  0
    0.4701   -3.2344   41.4901 C   0  0  0  0  0  0  0  0  0  0  0  0
    5.3799   -1.7814   44.2691 C   0  0  0  0  0  0  0  0  0  0  0  0
    5.0159   -0.0180   43.1201 N   0  0  0  0  0  0  0  0  0  0  0  0
    5.7693   -0.6937   43.8418 C   0  0  0  0  0  0  0  0  0  0  0  0
    0.8078   -3.6166   43.6782 C   0  0  0  0  0  0  0  0  0  0  0  0
    0.0663   -4.7011   43.7415 N   0  0  0  0  0  0  0  0  0  0  0  0
    6.2223   -2.6843   45.1565 C   0  0  0  0  0  0  0  0  0  0  0  0
    6.9599   -0.2351   44.2608 N   0  0  0  0  0  0  0  0  0  0  0  0
    5.9065   -3.9037   45.7499 N   0  0  0  0  0  0  0  0  0  0  0  0
   -0.5459   -5.1185   42.5870 C   0  0  0  0  0  0  0  0  0  0  0  0
    5.7480   -4.0340   46.9810 C   0  0  0  0  0  0  0  0  0  0  0  0
    7.4448   -1.8511   45.4198 C   0  0  0  0  0  0  0  0  0  0  0  0
    7.7572   -0.7827   45.0128 C   0  0  0  0  0  0  0  0  0  0  0  0
    8.4076   -2.7217   46.4541 C   0  0  0  0  0  0  0  0  0  0  0  0
    9.3167   -2.0988   47.1049 N   0  0  0  0  0  0  0  0  0  0  0  0
   -0.4719   -4.3893   41.5406 C   0  0  0  0  0  0  0  0  0  0  0  0
    8.3667   -4.0284   46.5743 N   0  0  0  0  0  0  0  0  0  0  0  0
   10.1532   -2.5726   47.9567 C   0  0  0  0  0  0  0  0  0  0  0  0
    7.1666   -4.7114   47.2915 C   0  0  0  0  0  0  0  0  0  0  0  0
   11.4560   -2.5376   47.5873 C   0  0  0  0  0  0  0  0  0  0  0  0
    9.7828   -2.8884   49.1392 O   0  0  0  0  0  0  0  0  0  0  0  0
   12.0816   -3.7528   47.5780 C   0  0  0  0  0  0  0  0  0  0  0  0
   12.1676   -1.4194   47.1600 C   0  0  0  0  0  0  0  0  0  0  0  0
   13.4963   -1.4892   46.7358 C   0  0  0  0  0  0  0  0  0  0  0  0
   14.1777   -0.2963   46.2222 O   0  0  0  0  0  0  0  0  0  0  0  0
   13.4776   -3.8527   47.2600 C   0  0  0  0  0  0  0  0  0  0  0  0
   13.6082    0.3528   45.2333 C   0  0  0  0  0  0  0  0  0  0  0  0
   14.2191   -5.1081   47.3022 C   0  0  0  0  0  0  0  0  0  0  0  0
   14.1749   -2.7135   46.7743 C   0  0  0  0  0  0  0  0  0  0  0  0
  1  2  1  0
  2  3  2  0
  3  4  1  0
  1  5  2  0
  4  5  1  0
  4  6  2  0
  5  7  1  0
  7  8  2  0
  6  9  1  0
  3 10  1  0
  9 11  2  0
 10 11  1  0
  7 12  1  0
 12 13  2  0
  9 14  1  0
 11 15  1  0
 14 16  1  0
 13 17  1  0
 16 18  1  0
 14 19  2  0
 15 20  2  0
 19 20  1  0
 19 21  1  0
 21 22  2  3
  8 23  1  0
 17 23  2  0
 21 24  1  0
 22 25  1  0
 18 26  1  0
 24 26  1  0
 25 27  1  0
 25 28  2  0
 27 29  2  0
 27 30  1  0
 30 31  2  0
 31 32  1  0
 29 33  1  0
 32 34  1  0
 33 35  1  0
 31 36  1  0
 33 36  2  0
M  END
$$$$
O14757_Pocket2Mol_idx-in-all-generaetd-589
     RDKit          3D

 47 56  0  0  0  0  0  0  0  0999 V2000
    1.5482   -0.3111   41.9233 C   0  0  0  0  0  0  0  0  0  0  0  0
    2.7284    0.2018   42.1525 N   0  0  0  0  0  0  0  0  0  0  0  0
    3.7893   -0.3016   42.7005 C   0  0  0  0  0  0  0  0  0  0  0  0
    3.3781   -1.7350   43.0000 C   0  0  0  0  0  0  0  0  0  0  0  0
    2.0339   -1.9619   42.6217 C   0  0  0  0  0  0  0  0  0  0  0  0
    5.0090    0.1219   42.9340 N   0  0  0  0  0  0  0  0  0  0  0  0
    4.2895   -2.4979   43.6707 C   0  0  0  0  0  0  0  0  0  0  0  0
    5.8391   -0.6675   43.6343 C   0  0  0  0  0  0  0  0  0  0  0  0
    6.9849   -0.2377   44.0028 N   0  0  0  0  0  0  0  0  0  0  0  0
    4.0426   -3.8794   44.0832 C   0  0  0  0  0  0  0  0  0  0  0  0
    7.6796   -0.8734   44.9326 C   0  0  0  0  0  0  0  0  0  0  0  0
    1.1064   -2.9576   42.4211 C   0  0  0  0  0  0  0  0  0  0  0  0
    5.5298   -1.9496   44.0315 C   0  0  0  0  0  0  0  0  0  0  0  0
    3.8954   -4.1817   45.4718 C   0  0  0  0  0  0  0  0  0  0  0  0
    0.6765   -3.5480   43.4006 C   0  0  1  0  0  0  0  0  0  0  0  0
    0.5804   -3.2191   41.1635 C   0  0  0  0  0  0  0  0  0  0  0  0
    2.8083   -4.8227   45.9203 N   0  0  0  0  0  0  0  0  0  0  0  0
   -0.1574   -4.5754   42.9329 N   0  0  0  0  0  0  0  0  0  0  0  0
    6.5271   -2.5531   44.9677 C   0  0  0  0  0  0  0  0  0  0  0  0
   -0.2272   -4.3703   41.5137 C   0  0  0  0  0  0  0  0  0  0  0  0
    7.5095   -2.0029   45.3993 C   0  0  0  0  0  0  0  0  0  0  0  0
    8.2550   -2.6982   46.3988 C   0  0  0  0  0  0  0  0  0  0  0  0
    8.8975   -0.3029   45.3267 O   0  0  0  0  0  0  0  0  0  0  0  0
    4.8299   -4.4637   46.4212 C   0  0  0  0  0  0  0  0  0  0  0  0
    4.2707   -4.9248   47.6295 N   0  0  0  0  0  0  0  0  0  0  0  0
    3.2045   -5.2092   47.1521 C   0  0  0  0  0  0  0  0  0  0  0  0
    1.4482   -4.6186   45.4134 C   0  0  1  0  0  0  0  0  0  0  0  0
    1.2398   -3.5043   44.6236 O   0  0  0  0  0  0  0  0  0  0  0  0
    7.8521   -3.9584   46.8773 C   0  0  0  0  0  0  0  0  0  0  0  0
    8.4079   -4.7553   47.7407 C   0  0  0  0  0  0  0  0  0  0  0  0
    5.9516   -3.8110   45.9146 C   0  0  0  0  0  0  0  0  0  0  0  0
    6.6436   -4.3892   46.6649 C   0  0  0  0  0  0  0  0  0  0  0  0
    9.5111   -5.5246   47.2994 O   0  0  0  0  0  0  0  0  0  0  0  0
   10.6238   -5.0197   46.8534 C   0  0  0  0  0  0  0  0  0  0  0  0
   11.5866   -4.7361   47.6189 C   0  0  0  0  0  0  0  0  0  0  0  0
    1.2153   -5.7944   44.5753 C   0  0  0  0  0  0  0  0  0  0  0  0
   10.7023   -4.6532   45.4361 C   0  0  0  0  0  0  0  0  0  0  0  0
   12.8078   -4.2193   47.0828 C   0  0  0  0  0  0  0  0  0  0  0  0
   11.7380   -4.2754   44.9534 C   0  0  0  0  0  0  0  0  0  0  0  0
   12.8492   -4.0096   45.7359 C   0  0  0  0  0  0  0  0  0  0  0  0
   14.2115   -3.3382   45.2248 C   0  0  0  0  0  0  0  0  0  0  0  0
   14.0017   -2.1217   44.7313 C   0  0  0  0  0  0  0  0  0  0  0  0
   15.0828   -1.5214   44.2932 C   0  0  0  0  0  0  0  0  0  0  0  0
   16.2936   -2.0632   44.4117 C   0  0  0  0  0  0  0  0  0  0  0  0
   17.5233   -1.3615   43.9765 O   0  0  0  0  0  0  0  0  0  0  0  0
   16.3696   -3.2195   44.9566 C   0  0  0  0  0  0  0  0  0  0  0  0
   15.2379   -3.8035   45.4588 C   0  0  0  0  0  0  0  0  0  0  0  0
  1  2  1  0
  2  3  2  0
  3  4  1  0
  1  5  2  0
  4  5  1  0
  3  6  1  0
  4  7  2  0
  6  8  1  0
  8  9  1  0
  7 10  1  0
  9 11  1  0
  5 12  1  0
  7 13  1  0
  8 13  2  0
 10 14  1  0
 12 15  1  0
 12 16  2  0
 14 17  1  0
 15 18  1  0
 13 19  1  0
 16 20  1  0
 18 20  2  0
 11 21  1  0
 19 21  2  0
 21 22  1  0
 11 23  2  0
 14 24  2  0
 24 25  1  0
 17 26  1  0
 25 26  2  0
 17 27  1  0
 15 28  1  6
 27 28  1  0
 22 29  2  0
 29 30  1  0
 19 31  1  0
 24 31  1  0
 29 32  1  0
 31 32  2  0
 30 33  1  0
 33 34  1  0
 34 35  2  0
 27 36  1  6
 34 37  1  0
 35 38  1  0
 37 39  2  0
 38 40  2  0
 39 40  1  0
 40 41  1  0
 41 42  2  0
 42 43  1  0
 43 44  2  0
 44 45  1  0
 44 46  1  0
 41 47  1  0
 46 47  2  0
M  END
$$$$
O14757_Pocket2Mol_idx-in-all-generaetd-590
     RDKit          3D

 37 42  0  0  0  0  0  0  0  0999 V2000
    1.5482   -0.3111   41.9233 C   0  0  0  0  0  0  0  0  0  0  0  0
    2.7284    0.2018   42.1525 N   0  0  0  0  0  0  0  0  0  0  0  0
    3.7893   -0.3016   42.7005 C   0  0  0  0  0  0  0  0  0  0  0  0
    3.3781   -1.7350   43.0000 C   0  0  0  0  0  0  0  0  0  0  0  0
    2.0339   -1.9619   42.6217 C   0  0  0  0  0  0  0  0  0  0  0  0
    4.1166   -2.4997   43.8458 C   0  0  0  0  0  0  0  0  0  0  0  0
    1.1731   -3.0051   42.5773 C   0  0  0  0  0  0  0  0  0  0  0  0
    0.4701   -3.2344   41.4901 C   0  0  0  0  0  0  0  0  0  0  0  0
    5.3799   -1.7814   44.2691 C   0  0  0  0  0  0  0  0  0  0  0  0
    5.0159   -0.0180   43.1201 N   0  0  0  0  0  0  0  0  0  0  0  0
    5.7693   -0.6937   43.8418 C   0  0  0  0  0  0  0  0  0  0  0  0
    0.8078   -3.6166   43.6782 C   0  0  0  0  0  0  0  0  0  0  0  0
    0.0663   -4.7011   43.7415 N   0  0  0  0  0  0  0  0  0  0  0  0
    6.2223   -2.6843   45.1565 C   0  0  0  0  0  0  0  0  0  0  0  0
    1.4459   -3.3095   45.0236 O   0  0  0  0  0  0  0  0  0  0  0  0
   -0.5278   -5.1074   42.5506 C   0  0  0  0  0  0  0  0  0  0  0  0
   -1.3099   -6.2193   42.5332 N   0  0  0  0  0  0  0  0  0  0  0  0
   -0.3906   -4.3573   41.3904 C   0  0  0  0  0  0  0  0  0  0  0  0
    7.0535   -0.4845   44.4478 N   0  0  0  0  0  0  0  0  0  0  0  0
    0.6210   -3.8397   46.1835 C   0  0  0  0  0  0  0  0  0  0  0  0
    6.2906   -3.7888   45.8815 C   0  0  0  0  0  0  0  0  0  0  0  0
    7.3868   -4.0307   46.6450 C   0  0  0  0  0  0  0  0  0  0  0  0
    7.2911   -1.6471   45.3058 C   0  0  2  0  0  0  0  0  0  0  0  0
    8.4503   -3.1394   46.7342 C   0  0  0  0  0  0  0  0  0  0  0  0
    8.4698   -1.9481   46.2096 C   0  0  0  0  0  0  0  0  0  0  0  0
    9.5355   -3.4574   47.6466 O   0  0  0  0  0  0  0  0  0  0  0  0
   10.7239   -3.2394   47.1960 C   0  0  0  0  0  0  0  0  0  0  0  0
   11.3519   -4.3113   46.6932 C   0  0  0  0  0  0  0  0  0  0  0  0
   11.3844   -1.9750   47.3381 C   0  0  0  0  0  0  0  0  0  0  0  0
   12.6499   -1.8546   46.8770 C   0  0  0  0  0  0  0  0  0  0  0  0
   10.6955   -5.5950   46.5459 O   0  0  0  0  0  0  0  0  0  0  0  0
   11.1062   -6.5176   47.2888 C   0  0  0  0  0  0  0  0  0  0  0  0
   13.3383   -0.5589   46.9164 C   0  0  0  0  0  0  0  0  0  0  0  0
   13.3672   -2.9858   46.3126 C   0  0  0  0  0  0  0  0  0  0  0  0
   13.8062   -0.1200   45.7266 O   0  0  0  0  0  0  0  0  0  0  0  0
   12.7323   -4.1881   46.2348 C   0  0  0  0  0  0  0  0  0  0  0  0
   13.1848    0.2499   47.8271 O   0  0  0  0  0  0  0  0  0  0  0  0
  1  2  1  0
  2  3  2  0
  3  4  1  0
  1  5  2  0
  4  5  1  0
  4  6  2  0
  5  7  1  0
  7  8  2  0
  6  9  1  0
  3 10  1  0
  9 11  1  0
 10 11  1  0
  7 12  1  0
 12 13  2  0
  9 14  2  0
 12 15  1  0
 13 16  1  0
 16 17  1  0
  8 18  1  0
 16 18  2  0
 11 19  2  0
 15 20  1  0
 14 21  1  0
 21 22  2  0
 14 23  1  0
 19 23  1  0
 22 24  1  0
 23 25  1  6
 24 25  2  0
 24 26  1  0
 26 27  1  0
 27 28  2  0
 27 29  1  0
 29 30  2  0
 28 31  1  0
 31 32  1  0
 30 33  1  0
 30 34  1  0
 33 35  2  0
 28 36  1  0
 34 36  2  0
 33 37  1  0
M  END
$$$$
O14757_Pocket2Mol_idx-in-all-generaetd-591
     RDKit          3D

 35 42  0  0  0  0  0  0  0  0999 V2000
    4.8173    0.2791   42.6993 N   0  0  0  0  0  0  0  0  0  0  0  0
    5.3297   -0.7477   43.3688 C   0  0  0  0  0  0  0  0  0  0  0  0
    3.4732   -0.2235   42.4530 C   0  0  0  0  0  0  0  0  0  0  0  0
    4.4984   -1.7876   43.6214 C   0  0  0  0  0  0  0  0  0  0  0  0
    3.3438   -1.5190   42.9379 C   0  0  0  0  0  0  0  0  0  0  0  0
    2.1381   -2.3401   42.8254 C   0  0  0  0  0  0  0  0  0  0  0  0
    2.3894    0.3572   41.9843 N   0  0  0  0  0  0  0  0  0  0  0  0
    4.9180   -3.0430   44.3829 C   0  0  0  0  0  0  0  0  0  0  0  0
    5.9444   -2.9314   45.3934 C   0  0  0  0  0  0  0  0  0  0  0  0
    4.2808   -4.1329   44.3252 C   0  0  0  0  0  0  0  0  0  0  0  0
    3.1588   -4.4221   43.4852 O   0  0  0  0  0  0  0  0  0  0  0  0
    4.5704   -5.2518   45.1995 C   0  0  0  0  0  0  0  0  0  0  0  0
    1.9853   -3.6792   43.3495 C   0  0  0  0  0  0  0  0  0  0  0  0
    0.9181   -4.3294   43.4638 C   0  0  0  0  0  0  0  0  0  0  0  0
    6.7403   -1.6226   45.5272 C   0  0  2  0  0  0  0  0  0  0  0  0
    0.9752   -1.7845   42.3366 C   0  0  0  0  0  0  0  0  0  0  0  0
    6.2516   -3.7287   46.2722 C   0  0  0  0  0  0  0  0  0  0  0  0
   -0.2404   -2.4179   42.2529 C   0  0  0  0  0  0  0  0  0  0  0  0
   -1.3835   -1.8904   41.6559 N   0  0  0  0  0  0  0  0  0  0  0  0
    3.8706   -6.4216   45.1394 O   0  0  0  0  0  0  0  0  0  0  0  0
    0.9456   -0.2789   41.7649 C   0  0  0  0  0  0  0  0  0  0  0  0
   -0.2678   -3.6969   42.7575 C   0  0  0  0  0  0  0  0  0  0  0  0
    6.3913   -0.7000   44.3807 N   0  0  0  0  0  0  0  0  0  0  0  0
    7.9391   -1.5867   46.0069 C   0  0  0  0  0  0  0  0  0  0  0  0
    8.7787   -0.4879   45.9761 O   0  0  0  0  0  0  0  0  0  0  0  0
    5.3853   -5.1216   46.3780 C   0  0  0  0  0  0  0  0  0  0  0  0
    8.4504   -2.7517   46.6262 N   0  0  0  0  0  0  0  0  0  0  0  0
    7.4807   -3.7374   47.0380 C   0  0  0  0  0  0  0  0  0  0  0  0
    9.7442   -2.7944   46.9091 C   0  0  0  0  0  0  0  0  0  0  0  0
   10.5425   -3.4426   45.9689 C   0  0  0  0  0  0  0  0  0  0  0  0
   10.3017   -2.2524   47.9671 C   0  0  0  0  0  0  0  0  0  0  0  0
    9.4843   -1.5208   48.9551 C   0  0  0  0  0  0  0  0  0  0  0  0
   11.9725   -3.4596   46.1303 C   0  0  0  0  0  0  0  0  0  0  0  0
   12.5234   -2.9905   47.2942 C   0  0  0  0  0  0  0  0  0  0  0  0
   11.7447   -2.2971   48.2202 C   0  0  0  0  0  0  0  0  0  0  0  0
  1  2  2  0
  1  3  1  0
  2  4  1  0
  3  5  1  0
  4  5  2  0
  5  6  1  0
  3  7  2  0
  4  8  1  0
  8  9  1  0
  8 10  2  0
 10 11  1  0
 10 12  1  0
  6 13  1  0
 11 13  1  0
 13 14  2  0
  9 15  1  0
  6 16  2  0
  9 17  2  0
 16 18  1  0
 18 19  1  0
 12 20  1  0
  7 21  1  0
 16 21  1  0
 14 22  1  0
 18 22  2  0
  2 23  1  0
 15 23  1  6
 15 24  1  0
 24 25  2  0
 12 26  2  0
 17 26  1  0
 24 27  1  0
 17 28  1  0
 27 28  1  0
 27 29  1  0
 29 30  2  0
 29 31  1  0
 31 32  1  0
 30 33  1  0
 33 34  2  0
 31 35  2  0
 34 35  1  0
M  END
$$$$
O14757_Pocket2Mol_idx-in-all-generaetd-592
     RDKit          3D

 26 29  0  0  0  0  0  0  0  0999 V2000
    4.5156    0.0550   42.9895 N   0  0  0  0  0  0  0  0  0  0  0  0
    5.0618   -0.8645   43.5295 C   0  0  0  0  0  0  0  0  0  0  0  0
    4.4350   -2.0604   43.7783 C   0  0  0  0  0  0  0  0  0  0  0  0
    4.9987   -3.0994   44.5839 C   0  0  0  0  0  0  0  0  0  0  0  0
    6.0780   -2.8704   45.3929 N   0  0  0  0  0  0  0  0  0  0  0  0
    3.3576   -1.8704   43.0010 C   0  0  0  0  0  0  0  0  0  0  0  0
    6.5991   -3.8202   46.1461 C   0  0  0  0  0  0  0  0  0  0  0  0
    3.2259   -0.4393   42.5186 N   0  0  0  0  0  0  0  0  0  0  0  0
    2.1160    0.0848   41.9593 C   0  0  0  0  0  0  0  0  0  0  0  0
    2.2673   -2.7696   42.7810 C   0  0  0  0  0  0  0  0  0  0  0  0
    2.0244   -3.8279   43.5411 C   0  0  0  0  0  0  0  0  0  0  0  0
    8.0099   -3.3793   46.6664 C   0  0  0  0  0  0  0  0  0  0  0  0
    1.1755   -2.4549   41.8779 C   0  0  0  0  0  0  0  0  0  0  0  0
    8.9736   -4.3319   46.6582 C   0  0  0  0  0  0  0  0  0  0  0  0
    1.0753   -0.8703   41.6938 C   0  0  0  0  0  0  0  0  0  0  0  0
    8.4589   -2.0413   46.7997 C   0  0  0  0  0  0  0  0  0  0  0  0
    0.0453   -3.0796   41.6515 C   0  0  0  0  0  0  0  0  0  0  0  0
   10.2902   -4.1111   46.9907 C   0  0  0  0  0  0  0  0  0  0  0  0
   10.7168   -2.7286   47.1558 C   0  0  0  0  0  0  0  0  0  0  0  0
   -0.9401   -2.7505   40.7294 O   0  0  0  0  0  0  0  0  0  0  0  0
    9.7443   -1.7041   47.0902 C   0  0  0  0  0  0  0  0  0  0  0  0
    0.9386   -4.7257   43.2429 C   0  0  0  0  0  0  0  0  0  0  0  0
    0.7987   -5.9798   43.9087 C   0  0  0  0  0  0  0  0  0  0  0  0
   -0.0185   -4.3083   42.3166 C   0  0  0  0  0  0  0  0  0  0  0  0
    1.5934   -6.1843   45.0814 C   0  0  0  0  0  0  0  0  0  0  0  0
    1.0843   -5.5683   46.1020 O   0  0  0  0  0  0  0  0  0  0  0  0
  1  2  2  0
  2  3  1  0
  3  4  1  0
  4  5  2  3
  3  6  2  0
  5  7  1  0
  1  8  1  0
  6  8  1  0
  8  9  1  0
  6 10  1  0
 10 11  2  0
  7 12  1  0
 10 13  1  0
 12 14  2  0
  9 15  2  0
 13 15  1  0
 12 16  1  0
 13 17  2  0
 14 18  1  0
 18 19  2  0
 17 20  1  0
 16 21  2  0
 19 21  1  0
 11 22  1  0
 22 23  1  0
 17 24  1  0
 22 24  2  0
 23 25  1  0
 25 26  1  0
M  END
$$$$
O14757_Pocket2Mol_idx-in-all-generaetd-593
     RDKit          3D

 39 45  0  0  0  0  0  0  0  0999 V2000
    1.5482   -0.3111   41.9233 C   0  0  0  0  0  0  0  0  0  0  0  0
    2.7284    0.2018   42.1525 N   0  0  0  0  0  0  0  0  0  0  0  0
    3.7893   -0.3016   42.7005 C   0  0  0  0  0  0  0  0  0  0  0  0
    3.3781   -1.7350   43.0000 C   0  0  0  0  0  0  0  0  0  0  0  0
    2.0339   -1.9619   42.6217 C   0  0  0  0  0  0  0  0  0  0  0  0
    4.1166   -2.4997   43.8458 C   0  0  0  0  0  0  0  0  0  0  0  0
    1.1731   -3.0051   42.5773 C   0  0  0  0  0  0  0  0  0  0  0  0
    0.4701   -3.2344   41.4901 C   0  0  0  0  0  0  0  0  0  0  0  0
    5.3799   -1.7814   44.2691 C   0  0  0  0  0  0  0  0  0  0  0  0
    5.0159   -0.0180   43.1201 N   0  0  0  0  0  0  0  0  0  0  0  0
    5.7693   -0.6937   43.8418 C   0  0  0  0  0  0  0  0  0  0  0  0
    0.8078   -3.6166   43.6782 C   0  0  0  0  0  0  0  0  0  0  0  0
    0.0663   -4.7011   43.7415 N   0  0  0  0  0  0  0  0  0  0  0  0
    6.2223   -2.6843   45.1565 C   0  0  0  0  0  0  0  0  0  0  0  0
    6.9599   -0.2351   44.2608 N   0  0  0  0  0  0  0  0  0  0  0  0
    5.9065   -3.9037   45.7499 N   0  0  0  0  0  0  0  0  0  0  0  0
   -0.5459   -5.1185   42.5870 C   0  0  0  0  0  0  0  0  0  0  0  0
    5.7480   -4.0340   46.9810 C   0  0  0  0  0  0  0  0  0  0  0  0
    7.4448   -1.8511   45.4198 C   0  0  0  0  0  0  0  0  0  0  0  0
    7.7572   -0.7827   45.0128 C   0  0  0  0  0  0  0  0  0  0  0  0
    8.4076   -2.7217   46.4541 C   0  0  0  0  0  0  0  0  0  0  0  0
    9.3167   -2.0988   47.1049 N   0  0  0  0  0  0  0  0  0  0  0  0
   -0.4719   -4.3893   41.5406 C   0  0  0  0  0  0  0  0  0  0  0  0
    8.3667   -4.0284   46.5743 N   0  0  0  0  0  0  0  0  0  0  0  0
   10.1532   -2.5726   47.9567 C   0  0  0  0  0  0  0  0  0  0  0  0
   11.0726   -1.7892   48.6998 C   0  0  0  0  0  0  0  0  0  0  0  0
   10.4886   -0.9372   49.4584 C   0  0  0  0  0  0  0  0  0  0  0  0
    8.9772   -4.5617   47.6013 C   0  0  0  0  0  0  0  0  0  0  0  0
    9.9765   -3.9922   48.2636 C   0  0  0  0  0  0  0  0  0  0  0  0
   11.3393   -0.1462   50.3539 C   0  0  0  0  0  0  0  0  0  0  0  0
   12.4892   -1.8956   48.4941 C   0  0  0  0  0  0  0  0  0  0  0  0
   12.8930   -0.3809   50.0834 C   0  0  0  0  0  0  0  0  0  0  0  0
   12.9994   -2.9244   47.4139 C   0  0  0  0  0  0  0  0  0  0  0  0
   13.2804   -1.1960   49.2234 C   0  0  0  0  0  0  0  0  0  0  0  0
   13.2158   -2.3419   46.2078 C   0  0  0  0  0  0  0  0  0  0  0  0
   12.1688   -2.0557   45.4064 C   0  0  0  0  0  0  0  0  0  0  0  0
   12.3247   -1.4555   44.0967 C   0  0  0  0  0  0  0  0  0  0  0  0
   13.5877   -1.1963   43.9660 C   0  0  0  0  0  0  0  0  0  0  0  0
   14.5051   -1.6930   45.1811 S   0  0  0  0  0  0  0  0  0  0  0  0
  1  2  1  0
  2  3  2  0
  3  4  1  0
  1  5  2  0
  4  5  1  0
  4  6  2  0
  5  7  1  0
  7  8  2  0
  6  9  1  0
  3 10  1  0
  9 11  2  0
 10 11  1  0
  7 12  1  0
 12 13  2  0
  9 14  1  0
 11 15  1  0
 14 16  1  0
 13 17  1  0
 16 18  1  0
 14 19  2  0
 15 20  2  0
 19 20  1  0
 19 21  1  0
 21 22  2  0
  8 23  1  0
 17 23  2  0
 21 24  1  0
 22 25  1  0
 25 26  1  0
 26 27  2  0
 24 28  2  0
 25 29  2  0
 28 29  1  0
 27 30  1  0
 26 31  1  0
 30 32  2  0
 31 33  1  0
 31 34  2  0
 32 34  1  0
 33 35  1  0
 35 36  2  0
 36 37  1  0
 37 38  2  0
 35 39  1  0
 38 39  1  0
M  END
$$$$
O14757_Pocket2Mol_idx-in-all-generaetd-594
     RDKit          3D

 27 31  0  0  0  0  0  0  0  0999 V2000
    1.5482   -0.3111   41.9233 C   0  0  0  0  0  0  0  0  0  0  0  0
    2.7284    0.2018   42.1525 N   0  0  0  0  0  0  0  0  0  0  0  0
    3.7893   -0.3016   42.7005 C   0  0  0  0  0  0  0  0  0  0  0  0
    3.3781   -1.7350   43.0000 C   0  0  0  0  0  0  0  0  0  0  0  0
    2.0339   -1.9619   42.6217 C   0  0  0  0  0  0  0  0  0  0  0  0
    5.0090    0.1219   42.9340 N   0  0  0  0  0  0  0  0  0  0  0  0
    4.2895   -2.4979   43.6707 C   0  0  0  0  0  0  0  0  0  0  0  0
    5.8391   -0.6675   43.6343 C   0  0  0  0  0  0  0  0  0  0  0  0
    6.9849   -0.2377   44.0028 N   0  0  0  0  0  0  0  0  0  0  0  0
    4.0426   -3.8794   44.0832 C   0  0  0  0  0  0  0  0  0  0  0  0
    7.6796   -0.8734   44.9326 C   0  0  0  0  0  0  0  0  0  0  0  0
    1.1064   -2.9576   42.4211 C   0  0  0  0  0  0  0  0  0  0  0  0
    5.5298   -1.9496   44.0315 C   0  0  0  0  0  0  0  0  0  0  0  0
    3.8954   -4.1817   45.4718 C   0  0  0  0  0  0  0  0  0  0  0  0
    0.6765   -3.5480   43.4006 C   0  0  0  0  0  0  0  0  0  0  0  0
    0.5804   -3.2191   41.1635 C   0  0  0  0  0  0  0  0  0  0  0  0
    2.8083   -4.8227   45.9203 N   0  0  0  0  0  0  0  0  0  0  0  0
   -0.2895   -4.3411   41.4783 C   0  0  0  0  0  0  0  0  0  0  0  0
    1.6241   -4.1113   46.2493 C   0  0  0  0  0  0  0  0  0  0  0  0
    6.2863   -2.7050   44.9803 C   0  0  0  0  0  0  0  0  0  0  0  0
    1.0882   -3.7164   44.7216 C   0  0  0  0  0  0  0  0  0  0  0  0
    8.8985   -0.3341   45.3420 O   0  0  0  0  0  0  0  0  0  0  0  0
   -0.2354   -4.7281   42.8828 C   0  0  0  0  0  0  0  0  0  0  0  0
    7.2640   -2.0414   45.6029 C   0  0  0  0  0  0  0  0  0  0  0  0
    8.2420   -2.7874   46.4491 C   0  0  0  0  0  0  0  0  0  0  0  0
    8.8892   -2.1288   47.3521 O   0  0  0  0  0  0  0  0  0  0  0  0
    8.2556   -4.1184   46.5245 O   0  0  0  0  0  0  0  0  0  0  0  0
  1  2  1  0
  2  3  2  0
  3  4  1  0
  1  5  2  0
  4  5  1  0
  3  6  1  0
  4  7  2  0
  6  8  1  0
  8  9  1  0
  7 10  1  0
  9 11  1  0
  5 12  1  0
  7 13  1  0
  8 13  2  0
 10 14  1  0
 12 15  1  0
 12 16  2  0
 14 17  1  0
 16 18  1  0
 17 19  1  0
 13 20  1  0
 15 21  2  3
 19 21  1  0
 11 22  2  0
 15 23  1  0
 18 23  2  0
 11 24  1  0
 20 24  2  0
 24 25  1  0
 25 26  1  0
 25 27  2  0
M  END
$$$$
O14757_Pocket2Mol_idx-in-all-generaetd-595
     RDKit          3D

 31 36  0  0  0  0  0  0  0  0999 V2000
    1.5482   -0.3111   41.9233 C   0  0  0  0  0  0  0  0  0  0  0  0
    2.7284    0.2018   42.1525 N   0  0  0  0  0  0  0  0  0  0  0  0
    3.7893   -0.3016   42.7005 C   0  0  0  0  0  0  0  0  0  0  0  0
    3.3781   -1.7350   43.0000 C   0  0  0  0  0  0  0  0  0  0  0  0
    2.0339   -1.9619   42.6217 C   0  0  0  0  0  0  0  0  0  0  0  0
    4.1166   -2.4997   43.8458 C   0  0  0  0  0  0  0  0  0  0  0  0
    1.1731   -3.0051   42.5773 C   0  0  0  0  0  0  0  0  0  0  0  0
    0.4701   -3.2344   41.4901 C   0  0  0  0  0  0  0  0  0  0  0  0
    5.3799   -1.7814   44.2691 C   0  0  0  0  0  0  0  0  0  0  0  0
    5.0159   -0.0180   43.1201 N   0  0  0  0  0  0  0  0  0  0  0  0
    5.7693   -0.6937   43.8418 C   0  0  0  0  0  0  0  0  0  0  0  0
    0.8078   -3.6166   43.6782 C   0  0  0  0  0  0  0  0  0  0  0  0
    0.0663   -4.7011   43.7415 N   0  0  0  0  0  0  0  0  0  0  0  0
    6.2223   -2.6843   45.1565 C   0  0  0  0  0  0  0  0  0  0  0  0
    1.4459   -3.3095   45.0236 O   0  0  0  0  0  0  0  0  0  0  0  0
   -0.5278   -5.1074   42.5506 C   0  0  0  0  0  0  0  0  0  0  0  0
   -1.3099   -6.2193   42.5332 N   0  0  0  0  0  0  0  0  0  0  0  0
   -0.3906   -4.3573   41.3904 C   0  0  0  0  0  0  0  0  0  0  0  0
    7.0535   -0.4845   44.4478 N   0  0  0  0  0  0  0  0  0  0  0  0
    0.6210   -3.8397   46.1835 C   0  0  0  0  0  0  0  0  0  0  0  0
    6.2906   -3.7888   45.8815 C   0  0  0  0  0  0  0  0  0  0  0  0
    7.3965   -1.5466   45.3147 C   0  0  2  0  0  0  0  0  0  0  0  0
    5.1449   -4.4973   46.0473 O   0  0  0  0  0  0  0  0  0  0  0  0
    7.4148   -4.1081   46.6372 C   0  0  0  0  0  0  0  0  0  0  0  0
    8.5011   -3.1747   46.6693 C   0  0  0  0  0  0  0  0  0  0  0  0
    8.5024   -1.9693   46.1866 C   0  0  0  0  0  0  0  0  0  0  0  0
    9.5172   -0.9853   46.2464 C   0  0  0  0  0  0  0  0  0  0  0  0
   10.6071   -1.2828   47.0155 C   0  0  0  0  0  0  0  0  0  0  0  0
    9.6602   -3.4744   47.5183 C   0  0  0  0  0  0  0  0  0  0  0  0
    4.3963   -4.5898   47.1625 C   0  0  0  0  0  0  0  0  0  0  0  0
   10.6804   -2.5664   47.6936 C   0  0  0  0  0  0  0  0  0  0  0  0
  1  2  1  0
  2  3  2  0
  3  4  1  0
  1  5  2  0
  4  5  1  0
  4  6  2  0
  5  7  1  0
  7  8  2  0
  6  9  1  0
  3 10  1  0
  9 11  1  0
 10 11  1  0
  7 12  1  0
 12 13  2  0
  9 14  2  0
 12 15  1  0
 13 16  1  0
 16 17  1  0
  8 18  1  0
 16 18  2  0
 11 19  2  0
 15 20  1  0
 14 21  1  0
 14 22  1  0
 22 19  1  6
 21 23  1  0
 21 24  2  0
 24 25  1  0
 22 26  1  0
 25 26  2  0
 26 27  1  0
 27 28  2  0
 25 29  1  0
 23 30  1  0
 28 31  1  0
 29 31  2  0
M  END
$$$$
O14757_Pocket2Mol_idx-in-all-generaetd-596
     RDKit          3D

 45 53  0  0  0  0  0  0  0  0999 V2000
    1.5482   -0.3111   41.9233 C   0  0  0  0  0  0  0  0  0  0  0  0
    2.7284    0.2018   42.1525 N   0  0  0  0  0  0  0  0  0  0  0  0
    3.7893   -0.3016   42.7005 C   0  0  0  0  0  0  0  0  0  0  0  0
    3.3781   -1.7350   43.0000 C   0  0  0  0  0  0  0  0  0  0  0  0
    2.0339   -1.9619   42.6217 C   0  0  0  0  0  0  0  0  0  0  0  0
    5.0090    0.1219   42.9340 N   0  0  0  0  0  0  0  0  0  0  0  0
    4.2895   -2.4979   43.6707 C   0  0  0  0  0  0  0  0  0  0  0  0
    5.8391   -0.6675   43.6343 C   0  0  0  0  0  0  0  0  0  0  0  0
    6.9849   -0.2377   44.0028 N   0  0  0  0  0  0  0  0  0  0  0  0
    4.0426   -3.8794   44.0832 C   0  0  0  0  0  0  0  0  0  0  0  0
    7.6796   -0.8734   44.9326 C   0  0  0  0  0  0  0  0  0  0  0  0
    1.1064   -2.9576   42.4211 C   0  0  0  0  0  0  0  0  0  0  0  0
    5.5298   -1.9496   44.0315 C   0  0  0  0  0  0  0  0  0  0  0  0
    3.8954   -4.1817   45.4718 C   0  0  0  0  0  0  0  0  0  0  0  0
    0.6765   -3.5480   43.4006 C   0  0  1  0  0  0  0  0  0  0  0  0
    0.5804   -3.2191   41.1635 C   0  0  0  0  0  0  0  0  0  0  0  0
    2.8083   -4.8227   45.9203 N   0  0  0  0  0  0  0  0  0  0  0  0
   -0.1574   -4.5754   42.9329 N   0  0  0  0  0  0  0  0  0  0  0  0
    6.5271   -2.5531   44.9677 C   0  0  0  0  0  0  0  0  0  0  0  0
   -0.2272   -4.3703   41.5137 C   0  0  0  0  0  0  0  0  0  0  0  0
    7.5095   -2.0029   45.3993 C   0  0  0  0  0  0  0  0  0  0  0  0
    8.2550   -2.6982   46.3988 C   0  0  0  0  0  0  0  0  0  0  0  0
    8.8975   -0.3029   45.3267 O   0  0  0  0  0  0  0  0  0  0  0  0
    4.8299   -4.4637   46.4212 C   0  0  0  0  0  0  0  0  0  0  0  0
    4.2707   -4.9248   47.6295 N   0  0  0  0  0  0  0  0  0  0  0  0
    3.2045   -5.2092   47.1521 C   0  0  0  0  0  0  0  0  0  0  0  0
    1.4482   -4.6186   45.4134 C   0  0  1  0  0  0  0  0  0  0  0  0
    1.2398   -3.5043   44.6236 O   0  0  0  0  0  0  0  0  0  0  0  0
    6.3317   -3.9297   46.0870 C   0  0  2  0  0  0  0  0  0  0  0  0
    9.5296   -2.5449   46.9776 C   0  0  0  0  0  0  0  0  0  0  0  0
    9.7921   -1.7530   47.9018 O   0  0  0  0  0  0  0  0  0  0  0  0
    7.3972   -3.8130   46.7939 C   0  0  0  0  0  0  0  0  0  0  0  0
    1.2392   -5.7793   44.5610 C   0  0  0  0  0  0  0  0  0  0  0  0
   10.4934   -3.0755   46.3117 O   0  0  0  0  0  0  0  0  0  0  0  0
   10.9462   -4.1456   46.8830 C   0  0  0  0  0  0  0  0  0  0  0  0
   12.2796   -4.1987   47.0522 C   0  0  0  0  0  0  0  0  0  0  0  0
   12.9062   -5.3205   47.0633 C   0  0  0  0  0  0  0  0  0  0  0  0
   14.4025   -5.4237   47.2465 C   0  0  0  0  0  0  0  0  0  0  0  0
   12.2726   -6.4947   46.5456 C   0  0  0  0  0  0  0  0  0  0  0  0
   12.9587   -7.7334   46.4794 O   0  0  0  0  0  0  0  0  0  0  0  0
   10.2747   -5.3278   46.3400 C   0  0  0  0  0  0  0  0  0  0  0  0
   13.6411   -8.2088   45.4721 C   0  0  0  0  0  0  0  0  0  0  0  0
   10.9398   -6.5188   46.3017 C   0  0  0  0  0  0  0  0  0  0  0  0
   15.1420   -4.5521   46.7728 O   0  0  0  0  0  0  0  0  0  0  0  0
   14.8408   -6.3018   47.9995 O   0  0  0  0  0  0  0  0  0  0  0  0
  1  2  1  0
  2  3  2  0
  3  4  1  0
  1  5  2  0
  4  5  1  0
  3  6  1  0
  4  7  2  0
  6  8  1  0
  8  9  1  0
  7 10  1  0
  9 11  1  0
  5 12  1  0
  7 13  1  0
  8 13  2  0
 10 14  1  0
 12 15  1  0
 12 16  2  0
 14 17  1  0
 15 18  1  0
 13 19  1  0
 16 20  1  0
 18 20  2  0
 11 21  1  0
 19 21  2  0
 21 22  1  0
 11 23  2  0
 14 24  2  0
 24 25  1  0
 17 26  1  0
 25 26  2  0
 17 27  1  0
 15 28  1  6
 27 28  1  0
 19 29  1  0
 24 29  1  0
 22 30  1  0
 30 31  2  0
 22 32  2  0
 29 32  1  1
 27 33  1  6
 30 34  1  0
 34 35  1  0
 35 36  2  0
 36 37  1  0
 37 38  1  0
 37 39  2  0
 39 40  1  0
 35 41  1  0
 40 42  1  0
 39 43  1  0
 41 43  2  0
 38 44  2  0
 38 45  1  0
M  END
$$$$
O14757_Pocket2Mol_idx-in-all-generaetd-597
     RDKit          3D

 36 42  0  0  0  0  0  0  0  0999 V2000
    4.5156    0.0550   42.9895 N   0  0  0  0  0  0  0  0  0  0  0  0
    5.0618   -0.8645   43.5295 C   0  0  0  0  0  0  0  0  0  0  0  0
    4.4350   -2.0604   43.7783 C   0  0  0  0  0  0  0  0  0  0  0  0
    4.9987   -3.0994   44.5839 C   0  0  0  0  0  0  0  0  0  0  0  0
    3.2714   -1.8664   43.0632 C   0  0  0  0  0  0  0  0  0  0  0  0
    6.4064   -0.5942   44.3204 N   0  0  0  0  0  0  0  0  0  0  0  0
    4.3422   -4.3256   44.7203 C   0  0  0  0  0  0  0  0  0  0  0  0
    2.1845   -2.6668   42.8270 N   0  0  0  0  0  0  0  0  0  0  0  0
    3.3305   -0.5395   42.5465 N   0  0  0  0  0  0  0  0  0  0  0  0
    1.9502   -3.8972   43.4076 C   0  0  0  0  0  0  0  0  0  0  0  0
    2.7156   -4.1184   44.6954 N   0  0  0  0  0  0  0  0  0  0  0  0
    6.8581   -1.5862   45.1101 C   0  0  0  0  0  0  0  0  0  0  0  0
    6.1801   -2.8430   45.2383 C   0  0  0  0  0  0  0  0  0  0  0  0
    2.1454   -5.1901   45.5771 C   0  0  0  0  0  0  0  0  0  0  0  0
    8.0137   -1.3946   45.8526 C   0  0  0  0  0  0  0  0  0  0  0  0
    0.9733   -4.5725   43.2066 O   0  0  0  0  0  0  0  0  0  0  0  0
    2.2437    0.0035   41.8733 C   0  0  0  0  0  0  0  0  0  0  0  0
    1.3210   -2.2077   41.7009 C   0  0  0  0  0  0  0  0  0  0  0  0
    8.6047   -2.2876   46.6923 C   0  0  0  0  0  0  0  0  0  0  0  0
    7.9141   -3.5157   46.8869 C   0  0  0  0  0  0  0  0  0  0  0  0
    1.0501   -0.8658   41.6612 C   0  0  0  0  0  0  0  0  0  0  0  0
    6.7278   -3.7718   46.2525 C   0  0  0  0  0  0  0  0  0  0  0  0
    9.8280   -2.0492   47.3361 C   0  0  0  0  0  0  0  0  0  0  0  0
    9.8262   -1.5735   48.5432 C   0  0  0  0  0  0  0  0  0  0  0  0
   11.0745   -2.0905   46.6735 C   0  0  0  0  0  0  0  0  0  0  0  0
    8.5798   -1.4294   49.3788 F   0  0  0  0  0  0  0  0  0  0  0  0
   10.9035   -1.3906   49.1995 C   0  0  0  0  0  0  0  0  0  0  0  0
   12.1747   -1.4739   48.6417 C   0  0  0  0  0  0  0  0  0  0  0  0
   11.1434   -2.4219   45.1973 C   0  0  0  0  0  0  0  0  0  0  0  0
   12.2109   -1.8074   47.3731 C   0  0  0  0  0  0  0  0  0  0  0  0
   13.4851   -1.9470   46.7697 C   0  0  0  0  0  0  0  0  0  0  0  0
   14.6156   -1.6667   47.4317 O   0  0  0  0  0  0  0  0  0  0  0  0
   12.2495   -2.3377   44.7699 C   0  0  0  0  0  0  0  0  0  0  0  0
   13.5197   -2.1755   45.4036 N   0  0  0  0  0  0  0  0  0  0  0  0
   14.8365   -2.2351   44.7807 O   0  0  0  0  0  0  0  0  0  0  0  0
    1.0421   -4.5240   46.3521 C   0  0  0  0  0  0  0  0  0  0  0  0
  1  2  2  0
  2  3  1  0
  3  4  1  0
  3  5  2  0
  2  6  1  0
  4  7  1  0
  5  8  1  0
  1  9  1  0
  5  9  1  0
  8 10  1  0
  7 11  1  0
 10 11  1  0
  6 12  2  0
  4 13  2  0
 12 13  1  0
 11 14  1  0
 12 15  1  0
 10 16  2  0
  9 17  1  0
  8 18  1  0
 15 19  2  0
 19 20  1  0
 17 21  1  0
 18 21  1  0
 13 22  1  0
 20 22  2  0
 19 23  1  0
 23 24  2  0
 23 25  1  0
 24 26  1  0
 24 27  1  0
 27 28  2  0
 25 29  1  0
 25 30  2  0
 28 30  1  0
 30 31  1  0
 31 32  2  0
 29 33  2  0
 31 34  1  0
 33 34  1  0
 34 35  1  0
 14 36  1  0
M  END
$$$$
O14757_Pocket2Mol_idx-in-all-generaetd-598
     RDKit          3D

 46 54  0  0  0  0  0  0  0  0999 V2000
    1.5482   -0.3111   41.9233 C   0  0  0  0  0  0  0  0  0  0  0  0
    2.7284    0.2018   42.1525 N   0  0  0  0  0  0  0  0  0  0  0  0
    3.7893   -0.3016   42.7005 C   0  0  0  0  0  0  0  0  0  0  0  0
    3.3781   -1.7350   43.0000 C   0  0  0  0  0  0  0  0  0  0  0  0
    2.0339   -1.9619   42.6217 C   0  0  0  0  0  0  0  0  0  0  0  0
    5.0090    0.1219   42.9340 N   0  0  0  0  0  0  0  0  0  0  0  0
    4.2895   -2.4979   43.6707 C   0  0  0  0  0  0  0  0  0  0  0  0
    5.8391   -0.6675   43.6343 C   0  0  0  0  0  0  0  0  0  0  0  0
    6.9849   -0.2377   44.0028 N   0  0  0  0  0  0  0  0  0  0  0  0
    4.0426   -3.8794   44.0832 C   0  0  0  0  0  0  0  0  0  0  0  0
    7.6796   -0.8734   44.9326 C   0  0  0  0  0  0  0  0  0  0  0  0
    1.1064   -2.9576   42.4211 C   0  0  0  0  0  0  0  0  0  0  0  0
    5.5298   -1.9496   44.0315 C   0  0  0  0  0  0  0  0  0  0  0  0
    3.8954   -4.1817   45.4718 C   0  0  0  0  0  0  0  0  0  0  0  0
    0.6765   -3.5480   43.4006 C   0  0  1  0  0  0  0  0  0  0  0  0
    0.5804   -3.2191   41.1635 C   0  0  0  0  0  0  0  0  0  0  0  0
    2.8083   -4.8227   45.9203 N   0  0  0  0  0  0  0  0  0  0  0  0
   -0.1574   -4.5754   42.9329 N   0  0  0  0  0  0  0  0  0  0  0  0
    6.5271   -2.5531   44.9677 C   0  0  0  0  0  0  0  0  0  0  0  0
   -0.2272   -4.3703   41.5137 C   0  0  0  0  0  0  0  0  0  0  0  0
    7.5095   -2.0029   45.3993 C   0  0  0  0  0  0  0  0  0  0  0  0
    8.2550   -2.6982   46.3988 C   0  0  1  0  0  0  0  0  0  0  0  0
    8.8975   -0.3029   45.3267 O   0  0  0  0  0  0  0  0  0  0  0  0
    4.8299   -4.4637   46.4212 C   0  0  0  0  0  0  0  0  0  0  0  0
    4.2707   -4.9248   47.6295 N   0  0  0  0  0  0  0  0  0  0  0  0
    3.2045   -5.2092   47.1521 C   0  0  0  0  0  0  0  0  0  0  0  0
    1.4482   -4.6186   45.4134 C   0  0  0  0  0  0  0  0  0  0  0  0
    1.3256   -3.7660   44.6394 N   0  0  0  0  0  0  0  0  0  0  0  0
    9.2816   -2.1418   47.1273 N   0  0  0  0  0  0  0  0  0  0  0  0
   10.0629   -3.1324   47.8508 C   0  0  0  0  0  0  0  0  0  0  0  0
    6.3491   -3.8960   46.0844 C   0  0  2  0  0  0  0  0  0  0  0  0
    7.4349   -3.5889   46.9054 C   0  0  0  0  0  0  0  0  0  0  0  0
   10.3145   -2.7271   49.0818 O   0  0  0  0  0  0  0  0  0  0  0  0
    0.6213   -5.4445   45.7455 O   0  0  0  0  0  0  0  0  0  0  0  0
   11.0262   -3.8136   47.1050 C   0  0  0  0  0  0  0  0  0  0  0  0
   12.1704   -3.3854   46.7547 C   0  0  0  0  0  0  0  0  0  0  0  0
   13.1080   -4.1111   46.0053 C   0  0  0  0  0  0  0  0  0  0  0  0
   14.3489   -3.5966   45.7888 C   0  0  0  0  0  0  0  0  0  0  0  0
   12.7430   -5.2725   45.5056 C   0  0  0  0  0  0  0  0  0  0  0  0
   14.6935   -2.2816   45.3353 C   0  0  0  0  0  0  0  0  0  0  0  0
   10.7905   -5.3371   46.8117 C   0  0  0  0  0  0  0  0  0  0  0  0
   15.8085   -1.9565   45.0154 O   0  0  0  0  0  0  0  0  0  0  0  0
   13.6959   -1.4018   45.6135 O   0  0  0  0  0  0  0  0  0  0  0  0
    9.5176   -5.8847   47.1773 O   0  0  0  0  0  0  0  0  0  0  0  0
    9.5461   -6.7413   48.0397 C   0  0  0  0  0  0  0  0  0  0  0  0
   11.4841   -5.8752   45.8168 C   0  0  0  0  0  0  0  0  0  0  0  0
  1  2  1  0
  2  3  2  0
  3  4  1  0
  1  5  2  0
  4  5  1  0
  3  6  1  0
  4  7  2  0
  6  8  1  0
  8  9  1  0
  7 10  1  0
  9 11  1  0
  5 12  1  0
  7 13  1  0
  8 13  2  0
 10 14  1  0
 12 15  1  0
 12 16  2  0
 14 17  1  0
 15 18  1  0
 13 19  1  0
 16 20  1  0
 18 20  2  0
 11 21  1  0
 19 21  2  0
 21 22  1  0
 11 23  2  0
 14 24  2  0
 24 25  1  0
 17 26  1  0
 25 26  2  0
 17 27  1  0
 15 28  1  6
 27 28  1  0
 22 29  1  1
 29 30  1  0
 19 31  1  0
 24 31  1  0
 22 32  1  0
 31 32  1  1
 30 33  2  0
 27 34  2  0
 30 35  1  0
 35 36  2  0
 36 37  1  0
 37 38  1  0
 37 39  2  0
 38 40  1  0
 35 41  1  0
 40 42  2  0
 40 43  1  0
 41 44  1  0
 44 45  1  0
 39 46  1  0
 41 46  2  0
M  END
$$$$
O14757_Pocket2Mol_idx-in-all-generaetd-599
     RDKit          3D

 46 52  0  0  0  0  0  0  0  0999 V2000
    5.3420    0.2589   42.8836 O   0  0  0  0  0  0  0  0  0  0  0  0
    5.1627   -0.7554   43.4753 C   0  0  0  0  0  0  0  0  0  0  0  0
    4.0509   -1.4657   43.4177 N   0  0  0  0  0  0  0  0  0  0  0  0
    5.9969   -1.2317   44.6840 C   0  0  0  0  0  0  0  0  0  0  0  0
    2.9618   -1.1021   42.5918 C   0  0  0  0  0  0  0  0  0  0  0  0
    7.3392   -0.8596   44.8412 C   0  0  0  0  0  0  0  0  0  0  0  0
    1.9754   -2.0820   42.2741 C   0  0  0  0  0  0  0  0  0  0  0  0
    5.5910   -2.4282   45.3439 C   0  0  0  0  0  0  0  0  0  0  0  0
    6.5874   -2.9636   46.1581 C   0  0  0  0  0  0  0  0  0  0  0  0
    4.2763   -3.0680   45.0493 N   0  0  0  0  0  0  0  0  0  0  0  0
    3.6188   -2.5886   44.2024 C   0  0  0  0  0  0  0  0  0  0  0  0
    8.1921   -1.4071   45.7505 C   0  0  0  0  0  0  0  0  0  0  0  0
    1.0154   -1.8839   41.2980 C   0  0  0  0  0  0  0  0  0  0  0  0
    2.5720   -3.3564   43.9063 C   0  0  0  0  0  0  0  0  0  0  0  0
    0.2502   -2.8976   41.0751 C   0  0  0  0  0  0  0  0  0  0  0  0
    6.1761   -4.1775   47.0209 C   0  0  0  0  0  0  0  0  0  0  0  0
    1.7266   -3.1047   43.0115 C   0  0  2  0  0  0  0  0  0  0  0  0
    2.3696   -4.5367   44.7536 N   0  0  0  0  0  0  0  0  0  0  0  0
    1.2264   -5.2346   44.4693 C   0  0  0  0  0  0  0  0  0  0  0  0
    0.7187   -3.8955   42.5465 C   0  0  0  0  0  0  0  0  0  0  0  0
    9.4576   -0.8949   46.0327 N   0  0  0  0  0  0  0  0  0  0  0  0
    0.8625   -6.3901   45.2462 C   0  0  0  0  0  0  0  0  0  0  0  0
    7.6467   -2.5139   46.4892 C   0  0  0  0  0  0  0  0  0  0  0  0
   10.4908   -1.5336   45.8242 C   0  0  0  0  0  0  0  0  0  0  0  0
    0.3057   -4.9299   43.2909 C   0  0  0  0  0  0  0  0  0  0  0  0
   11.5916   -1.4291   46.7436 C   0  0  0  0  0  0  0  0  0  0  0  0
   10.5566   -2.3672   44.8649 O   0  0  0  0  0  0  0  0  0  0  0  0
   12.8421   -1.9355   46.2823 C   0  0  0  0  0  0  0  0  0  0  0  0
   13.4833   -2.8582   46.9841 C   0  0  0  0  0  0  0  0  0  0  0  0
   11.4002   -1.1447   48.0540 C   0  0  0  0  0  0  0  0  0  0  0  0
   10.2867   -0.4569   48.4999 O   0  0  0  0  0  0  0  0  0  0  0  0
   12.3327   -1.4798   48.9564 C   0  0  0  0  0  0  0  0  0  0  0  0
   14.7901   -3.3162   46.6439 C   0  0  0  0  0  0  0  0  0  0  0  0
   12.1651   -1.3050   50.3239 O   0  0  0  0  0  0  0  0  0  0  0  0
   15.6765   -2.5740   46.0979 C   0  0  0  0  0  0  0  0  0  0  0  0
   13.4417   -2.4710   48.5369 C   0  0  0  0  0  0  0  0  0  0  0  0
    3.0238    0.0742   42.0657 O   0  0  0  0  0  0  0  0  0  0  0  0
   16.9621   -3.2473   45.5967 C   0  0  0  0  0  0  0  0  0  0  0  0
   17.0811   -4.5622   45.6708 C   0  0  0  0  0  0  0  0  0  0  0  0
   14.7039   -4.6671   47.0178 C   0  0  0  0  0  0  0  0  0  0  0  0
   13.8590   -5.5263   47.5476 C   0  0  0  0  0  0  0  0  0  0  0  0
   12.7413   -5.7702   46.8437 N   0  0  0  0  0  0  0  0  0  0  0  0
   16.0347   -5.3960   46.4177 C   0  0  0  0  0  0  0  0  0  0  0  0
   11.6368   -6.3573   47.3653 C   0  0  0  0  0  0  0  0  0  0  0  0
   10.4889   -6.3792   46.4729 C   0  0  0  0  0  0  0  0  0  0  0  0
    9.4513   -7.1130   46.8798 O   0  0  0  0  0  0  0  0  0  0  0  0
  1  2  2  0
  2  3  1  0
  2  4  1  0
  3  5  1  0
  4  6  2  0
  5  7  1  0
  4  8  1  0
  8  9  2  0
  8 10  1  0
  3 11  1  0
 10 11  2  0
  6 12  1  0
  7 13  2  0
 11 14  1  0
 13 15  1  0
  9 16  1  0
 17  7  1  6
 14 17  1  0
 14 18  2  0
 18 19  1  0
 15 20  2  0
 17 20  1  0
 12 21  1  0
 19 22  1  0
  9 23  1  0
 12 23  2  0
 21 24  1  0
 19 25  2  0
 20 25  1  0
 24 26  1  0
 24 27  2  0
 26 28  2  0
 28 29  1  0
 26 30  1  0
 30 31  1  0
 30 32  2  0
 29 33  1  0
 32 34  1  0
 33 35  2  0
 29 36  2  0
 32 36  1  0
  5 37  2  0
 35 38  1  0
 38 39  2  0
 33 40  1  0
 40 41  1  0
 41 42  1  0
 39 43  1  0
 40 43  2  0
 42 44  1  0
 44 45  1  0
 45 46  1  0
M  END
$$$$
O14757_Pocket2Mol_idx-in-all-generaetd-600
     RDKit          3D

 40 48  0  0  0  0  0  0  0  0999 V2000
    1.5482   -0.3111   41.9233 C   0  0  0  0  0  0  0  0  0  0  0  0
    2.7284    0.2018   42.1525 N   0  0  0  0  0  0  0  0  0  0  0  0
    3.7893   -0.3016   42.7005 C   0  0  0  0  0  0  0  0  0  0  0  0
    3.3781   -1.7350   43.0000 C   0  0  0  0  0  0  0  0  0  0  0  0
    2.0339   -1.9619   42.6217 C   0  0  0  0  0  0  0  0  0  0  0  0
    5.0090    0.1219   42.9340 N   0  0  0  0  0  0  0  0  0  0  0  0
    4.2895   -2.4979   43.6707 C   0  0  0  0  0  0  0  0  0  0  0  0
    5.8391   -0.6675   43.6343 C   0  0  0  0  0  0  0  0  0  0  0  0
    6.9849   -0.2377   44.0028 N   0  0  0  0  0  0  0  0  0  0  0  0
    4.0426   -3.8794   44.0832 C   0  0  0  0  0  0  0  0  0  0  0  0
    7.6796   -0.8734   44.9326 C   0  0  0  0  0  0  0  0  0  0  0  0
    1.1064   -2.9576   42.4211 C   0  0  0  0  0  0  0  0  0  0  0  0
    5.5298   -1.9496   44.0315 C   0  0  0  0  0  0  0  0  0  0  0  0
    3.8954   -4.1817   45.4718 C   0  0  0  0  0  0  0  0  0  0  0  0
    0.6765   -3.5480   43.4006 C   0  0  1  0  0  0  0  0  0  0  0  0
    0.5804   -3.2191   41.1635 C   0  0  0  0  0  0  0  0  0  0  0  0
    2.8083   -4.8227   45.9203 N   0  0  0  0  0  0  0  0  0  0  0  0
   -0.1574   -4.5754   42.9329 N   0  0  0  0  0  0  0  0  0  0  0  0
    6.5271   -2.5531   44.9677 C   0  0  0  0  0  0  0  0  0  0  0  0
   -0.2272   -4.3703   41.5137 C   0  0  0  0  0  0  0  0  0  0  0  0
    7.5095   -2.0029   45.3993 C   0  0  0  0  0  0  0  0  0  0  0  0
    8.2550   -2.6982   46.3988 C   0  0  0  0  0  0  0  0  0  0  0  0
    8.8975   -0.3029   45.3267 O   0  0  0  0  0  0  0  0  0  0  0  0
    4.8299   -4.4637   46.4212 C   0  0  0  0  0  0  0  0  0  0  0  0
    4.2707   -4.9248   47.6295 N   0  0  0  0  0  0  0  0  0  0  0  0
    3.2045   -5.2092   47.1521 C   0  0  0  0  0  0  0  0  0  0  0  0
    1.4482   -4.6186   45.4134 C   0  0  1  0  0  0  0  0  0  0  0  0
    1.2398   -3.5043   44.6236 O   0  0  0  0  0  0  0  0  0  0  0  0
    6.3317   -3.9297   46.0870 C   0  0  2  0  0  0  0  0  0  0  0  0
    9.5296   -2.5449   46.9776 C   0  0  0  0  0  0  0  0  0  0  0  0
    9.7921   -1.7530   47.9018 O   0  0  0  0  0  0  0  0  0  0  0  0
    7.3972   -3.8130   46.7939 C   0  0  0  0  0  0  0  0  0  0  0  0
    1.2392   -5.7793   44.5610 C   0  0  0  0  0  0  0  0  0  0  0  0
   10.4934   -3.0755   46.3117 N   0  0  0  0  0  0  0  0  0  0  0  0
   10.3750   -4.1130   45.4302 C   0  0  0  0  0  0  0  0  0  0  0  0
   11.8947   -2.7998   46.7984 C   0  0  0  0  0  0  0  0  0  0  0  0
   12.5725   -3.7950   47.1748 C   0  0  0  0  0  0  0  0  0  0  0  0
   12.6546   -4.9036   46.1748 N   0  0  0  0  0  0  0  0  0  0  0  0
   13.3917   -6.0635   46.6035 C   0  0  0  0  0  0  0  0  0  0  0  0
   11.3223   -5.3449   45.8247 C   0  0  0  0  0  0  0  0  0  0  0  0
  1  2  1  0
  2  3  2  0
  3  4  1  0
  1  5  2  0
  4  5  1  0
  3  6  1  0
  4  7  2  0
  6  8  1  0
  8  9  1  0
  7 10  1  0
  9 11  1  0
  5 12  1  0
  7 13  1  0
  8 13  2  0
 10 14  1  0
 12 15  1  0
 12 16  2  0
 14 17  1  0
 15 18  1  0
 13 19  1  0
 16 20  1  0
 18 20  2  0
 11 21  1  0
 19 21  2  0
 21 22  1  0
 11 23  2  0
 14 24  2  0
 24 25  1  0
 17 26  1  0
 25 26  2  0
 17 27  1  0
 15 28  1  6
 27 28  1  0
 19 29  1  0
 24 29  1  0
 22 30  1  0
 30 31  2  0
 22 32  2  0
 29 32  1  1
 27 33  1  6
 30 34  1  0
 34 35  1  0
 34 36  1  0
 36 37  1  0
 37 38  1  0
 38 39  1  0
 35 40  1  0
 38 40  1  0
M  END
$$$$
O14757_Pocket2Mol_idx-in-all-generaetd-601
     RDKit          3D

 45 53  0  0  0  0  0  0  0  0999 V2000
    1.5482   -0.3111   41.9233 C   0  0  0  0  0  0  0  0  0  0  0  0
    2.7284    0.2018   42.1525 N   0  0  0  0  0  0  0  0  0  0  0  0
    3.7893   -0.3016   42.7005 C   0  0  0  0  0  0  0  0  0  0  0  0
    3.3781   -1.7350   43.0000 C   0  0  0  0  0  0  0  0  0  0  0  0
    2.0339   -1.9619   42.6217 C   0  0  0  0  0  0  0  0  0  0  0  0
    5.0090    0.1219   42.9340 N   0  0  0  0  0  0  0  0  0  0  0  0
    4.2895   -2.4979   43.6707 C   0  0  0  0  0  0  0  0  0  0  0  0
    5.8391   -0.6675   43.6343 C   0  0  0  0  0  0  0  0  0  0  0  0
    6.9849   -0.2377   44.0028 N   0  0  0  0  0  0  0  0  0  0  0  0
    4.0426   -3.8794   44.0832 C   0  0  0  0  0  0  0  0  0  0  0  0
    7.6796   -0.8734   44.9326 C   0  0  0  0  0  0  0  0  0  0  0  0
    1.1064   -2.9576   42.4211 C   0  0  0  0  0  0  0  0  0  0  0  0
    5.5298   -1.9496   44.0315 C   0  0  0  0  0  0  0  0  0  0  0  0
    3.8954   -4.1817   45.4718 C   0  0  0  0  0  0  0  0  0  0  0  0
    0.6765   -3.5480   43.4006 C   0  0  1  0  0  0  0  0  0  0  0  0
    0.5804   -3.2191   41.1635 C   0  0  0  0  0  0  0  0  0  0  0  0
    2.8083   -4.8227   45.9203 N   0  0  0  0  0  0  0  0  0  0  0  0
   -0.1574   -4.5754   42.9329 N   0  0  0  0  0  0  0  0  0  0  0  0
    6.5271   -2.5531   44.9677 C   0  0  0  0  0  0  0  0  0  0  0  0
   -0.2272   -4.3703   41.5137 C   0  0  0  0  0  0  0  0  0  0  0  0
    7.5095   -2.0029   45.3993 C   0  0  0  0  0  0  0  0  0  0  0  0
    8.2550   -2.6982   46.3988 C   0  0  0  0  0  0  0  0  0  0  0  0
    8.8975   -0.3029   45.3267 O   0  0  0  0  0  0  0  0  0  0  0  0
    4.8299   -4.4637   46.4212 C   0  0  0  0  0  0  0  0  0  0  0  0
    4.2707   -4.9248   47.6295 N   0  0  0  0  0  0  0  0  0  0  0  0
    3.2045   -5.2092   47.1521 C   0  0  0  0  0  0  0  0  0  0  0  0
    1.4482   -4.6186   45.4134 C   0  0  1  0  0  0  0  0  0  0  0  0
    1.2398   -3.5043   44.6236 O   0  0  0  0  0  0  0  0  0  0  0  0
    6.3317   -3.9297   46.0870 C   0  0  2  0  0  0  0  0  0  0  0  0
    9.5296   -2.5449   46.9776 C   0  0  0  0  0  0  0  0  0  0  0  0
    9.7921   -1.7530   47.9018 O   0  0  0  0  0  0  0  0  0  0  0  0
    7.3972   -3.8130   46.7939 C   0  0  0  0  0  0  0  0  0  0  0  0
    1.2392   -5.7793   44.5610 C   0  0  0  0  0  0  0  0  0  0  0  0
   10.4934   -3.0755   46.3117 N   0  0  0  0  0  0  0  0  0  0  0  0
   10.3750   -4.1130   45.4302 C   0  0  0  0  0  0  0  0  0  0  0  0
   11.8947   -2.7998   46.7984 C   0  0  0  0  0  0  0  0  0  0  0  0
   12.5725   -3.7950   47.1748 C   0  0  0  0  0  0  0  0  0  0  0  0
   12.4263   -1.5296   46.5097 C   0  0  0  0  0  0  0  0  0  0  0  0
   13.9907   -3.6147   47.5346 C   0  0  0  0  0  0  0  0  0  0  0  0
   13.7686   -1.3248   46.7623 C   0  0  0  0  0  0  0  0  0  0  0  0
   14.3607   -0.0220   46.5071 O   0  0  0  0  0  0  0  0  0  0  0  0
   14.8324   -4.6433   48.0756 O   0  0  0  0  0  0  0  0  0  0  0  0
   14.5962   -2.2577   47.3016 C   0  0  0  0  0  0  0  0  0  0  0  0
   15.6792   -2.0466   47.5167 O   0  0  0  0  0  0  0  0  0  0  0  0
   13.8681    1.0165   46.9392 C   0  0  0  0  0  0  0  0  0  0  0  0
  1  2  1  0
  2  3  2  0
  3  4  1  0
  1  5  2  0
  4  5  1  0
  3  6  1  0
  4  7  2  0
  6  8  1  0
  8  9  1  0
  7 10  1  0
  9 11  1  0
  5 12  1  0
  7 13  1  0
  8 13  2  0
 10 14  1  0
 12 15  1  0
 12 16  2  0
 14 17  1  0
 15 18  1  0
 13 19  1  0
 16 20  1  0
 18 20  2  0
 11 21  1  0
 19 21  2  0
 21 22  1  0
 11 23  2  0
 14 24  2  0
 24 25  1  0
 17 26  1  0
 25 26  2  0
 17 27  1  0
 15 28  1  6
 27 28  1  0
 19 29  1  0
 24 29  1  0
 22 30  1  0
 30 31  2  0
 22 32  2  0
 29 32  1  1
 27 33  1  6
 30 34  1  0
 34 35  1  0
 34 36  1  0
 36 37  2  0
 36 38  1  0
 37 39  1  0
 38 40  2  0
 40 41  1  0
 39 42  1  0
 39 43  2  0
 40 43  1  0
 43 44  1  0
 41 45  1  0
M  END
$$$$
O14757_Pocket2Mol_idx-in-all-generaetd-602
     RDKit          3D

 33 39  0  0  0  0  0  0  0  0999 V2000
    4.8173    0.2791   42.6993 N   0  0  0  0  0  0  0  0  0  0  0  0
    5.3297   -0.7477   43.3688 C   0  0  0  0  0  0  0  0  0  0  0  0
    3.4732   -0.2235   42.4530 C   0  0  0  0  0  0  0  0  0  0  0  0
    4.4984   -1.7876   43.6214 C   0  0  0  0  0  0  0  0  0  0  0  0
    3.3438   -1.5190   42.9379 C   0  0  0  0  0  0  0  0  0  0  0  0
    2.1381   -2.3401   42.8254 C   0  0  0  0  0  0  0  0  0  0  0  0
    2.3894    0.3572   41.9843 N   0  0  0  0  0  0  0  0  0  0  0  0
    4.9180   -3.0430   44.3829 C   0  0  0  0  0  0  0  0  0  0  0  0
    5.9444   -2.9314   45.3934 C   0  0  0  0  0  0  0  0  0  0  0  0
    4.2808   -4.1329   44.3252 C   0  0  0  0  0  0  0  0  0  0  0  0
    3.1588   -4.4221   43.4852 O   0  0  0  0  0  0  0  0  0  0  0  0
    4.5704   -5.2518   45.1995 C   0  0  0  0  0  0  0  0  0  0  0  0
    1.9853   -3.6792   43.3495 C   0  0  0  0  0  0  0  0  0  0  0  0
    0.9181   -4.3294   43.4638 C   0  0  0  0  0  0  0  0  0  0  0  0
    6.7403   -1.6226   45.5272 C   0  0  0  0  0  0  0  0  0  0  0  0
    0.9752   -1.7845   42.3366 C   0  0  0  0  0  0  0  0  0  0  0  0
    5.5543   -5.1294   46.1078 C   0  0  0  0  0  0  0  0  0  0  0  0
    7.9772   -1.5901   46.1526 C   0  0  0  0  0  0  0  0  0  0  0  0
    8.6171   -2.7180   46.2255 N   0  0  0  0  0  0  0  0  0  0  0  0
    6.5160   -0.7262   44.3482 C   0  0  0  0  0  0  0  0  0  0  0  0
    5.8670   -6.1665   47.0241 O   0  0  0  0  0  0  0  0  0  0  0  0
   -0.2437   -2.4672   42.2827 C   0  0  0  0  0  0  0  0  0  0  0  0
   -0.2692   -3.7414   42.8178 C   0  0  0  0  0  0  0  0  0  0  0  0
    6.3047   -3.9815   46.2287 C   0  0  0  0  0  0  0  0  0  0  0  0
    8.0291   -3.5777   47.1715 C   0  0  0  0  0  0  0  0  0  0  0  0
    7.2074   -4.2766   47.0234 C   0  0  0  0  0  0  0  0  0  0  0  0
    1.1879   -0.4281   41.8692 C   0  0  0  0  0  0  0  0  0  0  0  0
   10.1009   -2.3306   46.5895 C   0  0  0  0  0  0  0  0  0  0  0  0
   10.5049   -1.2887   46.4663 O   0  0  0  0  0  0  0  0  0  0  0  0
   10.9104   -3.4150   47.1173 C   0  0  0  0  0  0  0  0  0  0  0  0
   12.0683   -3.5397   46.4456 C   0  0  0  0  0  0  0  0  0  0  0  0
   12.5181   -4.8506   46.1388 O   0  0  0  0  0  0  0  0  0  0  0  0
   12.8236   -2.6214   45.8551 O   0  0  0  0  0  0  0  0  0  0  0  0
  1  2  2  0
  1  3  1  0
  2  4  1  0
  3  5  1  0
  4  5  2  0
  5  6  1  0
  3  7  2  0
  4  8  1  0
  8  9  2  0
  8 10  1  0
 10 11  1  0
 10 12  2  0
  6 13  2  0
 11 13  1  0
 13 14  1  0
  9 15  1  0
  6 16  1  0
 12 17  1  0
 15 18  1  0
 18 19  1  0
  2 20  1  0
 15 20  2  0
 17 21  1  0
 16 22  2  0
 14 23  2  0
 22 23  1  0
  9 24  1  0
 17 24  2  0
 19 25  1  0
 24 26  1  0
 25 26  2  0
  7 27  1  0
 16 27  1  0
 19 28  1  0
 28 29  2  0
 28 30  1  0
 30 31  1  0
 31 32  1  0
 31 33  2  0
M  END
$$$$
O14757_Pocket2Mol_idx-in-all-generaetd-603
     RDKit          3D

 44 52  0  0  0  0  0  0  0  0999 V2000
    1.5482   -0.3111   41.9233 C   0  0  0  0  0  0  0  0  0  0  0  0
    2.7284    0.2018   42.1525 N   0  0  0  0  0  0  0  0  0  0  0  0
    3.7893   -0.3016   42.7005 C   0  0  0  0  0  0  0  0  0  0  0  0
    3.3781   -1.7350   43.0000 C   0  0  0  0  0  0  0  0  0  0  0  0
    2.0339   -1.9619   42.6217 C   0  0  0  0  0  0  0  0  0  0  0  0
    5.0090    0.1219   42.9340 N   0  0  0  0  0  0  0  0  0  0  0  0
    4.2895   -2.4979   43.6707 C   0  0  0  0  0  0  0  0  0  0  0  0
    5.8391   -0.6675   43.6343 C   0  0  0  0  0  0  0  0  0  0  0  0
    6.9849   -0.2377   44.0028 N   0  0  0  0  0  0  0  0  0  0  0  0
    4.0426   -3.8794   44.0832 C   0  0  0  0  0  0  0  0  0  0  0  0
    7.6796   -0.8734   44.9326 C   0  0  0  0  0  0  0  0  0  0  0  0
    1.1064   -2.9576   42.4211 C   0  0  0  0  0  0  0  0  0  0  0  0
    5.5298   -1.9496   44.0315 C   0  0  0  0  0  0  0  0  0  0  0  0
    3.8954   -4.1817   45.4718 C   0  0  0  0  0  0  0  0  0  0  0  0
    0.6765   -3.5480   43.4006 C   0  0  1  0  0  0  0  0  0  0  0  0
    0.5804   -3.2191   41.1635 C   0  0  0  0  0  0  0  0  0  0  0  0
    2.8083   -4.8227   45.9203 N   0  0  0  0  0  0  0  0  0  0  0  0
   -0.1574   -4.5754   42.9329 N   0  0  0  0  0  0  0  0  0  0  0  0
    6.5271   -2.5531   44.9677 C   0  0  0  0  0  0  0  0  0  0  0  0
   -0.2272   -4.3703   41.5137 C   0  0  0  0  0  0  0  0  0  0  0  0
    7.5095   -2.0029   45.3993 C   0  0  0  0  0  0  0  0  0  0  0  0
    8.2550   -2.6982   46.3988 C   0  0  2  0  0  0  0  0  0  0  0  0
    8.8975   -0.3029   45.3267 O   0  0  0  0  0  0  0  0  0  0  0  0
    4.8299   -4.4637   46.4212 C   0  0  0  0  0  0  0  0  0  0  0  0
    4.2707   -4.9248   47.6295 N   0  0  0  0  0  0  0  0  0  0  0  0
    3.2045   -5.2092   47.1521 C   0  0  0  0  0  0  0  0  0  0  0  0
    1.4482   -4.6186   45.4134 C   0  0  2  0  0  0  0  0  0  0  0  0
    1.2398   -3.5043   44.6236 O   0  0  0  0  0  0  0  0  0  0  0  0
    6.3317   -3.9297   46.0870 C   0  0  2  0  0  0  0  0  0  0  0  0
    9.5296   -2.5449   46.9776 C   0  0  0  0  0  0  0  0  0  0  0  0
    9.7921   -1.7530   47.9018 O   0  0  0  0  0  0  0  0  0  0  0  0
    7.4454   -3.8344   46.8035 C   0  0  0  0  0  0  0  0  0  0  0  0
   10.5010   -3.0847   46.3190 O   0  0  0  0  0  0  0  0  0  0  0  0
    0.5569   -4.7693   46.5649 C   0  0  0  0  0  0  0  0  0  0  0  0
   11.7452   -2.8462   46.6234 C   0  0  0  0  0  0  0  0  0  0  0  0
   12.4344   -1.8951   45.7393 C   0  0  0  0  0  0  0  0  0  0  0  0
   12.4612   -3.5429   47.5581 C   0  0  0  0  0  0  0  0  0  0  0  0
   11.7737   -4.5216   48.4115 C   0  0  0  0  0  0  0  0  0  0  0  0
   13.7761   -1.6251   45.9829 C   0  0  0  0  0  0  0  0  0  0  0  0
   13.7909   -3.1787   47.7950 C   0  0  0  0  0  0  0  0  0  0  0  0
   11.6069   -4.2006   49.6507 O   0  0  0  0  0  0  0  0  0  0  0  0
   11.0942   -5.4364   47.9032 O   0  0  0  0  0  0  0  0  0  0  0  0
   14.3604   -2.3577   47.1142 C   0  0  0  0  0  0  0  0  0  0  0  0
   14.5243   -0.6125   45.2180 C   0  0  0  0  0  0  0  0  0  0  0  0
  1  2  1  0
  2  3  2  0
  3  4  1  0
  1  5  2  0
  4  5  1  0
  3  6  1  0
  4  7  2  0
  6  8  1  0
  8  9  1  0
  7 10  1  0
  9 11  1  0
  5 12  1  0
  7 13  1  0
  8 13  2  0
 10 14  1  0
 12 15  1  0
 12 16  2  0
 14 17  1  0
 15 18  1  0
 13 19  1  0
 16 20  1  0
 18 20  2  0
 11 21  1  0
 19 21  2  0
 21 22  1  0
 11 23  2  0
 14 24  2  0
 24 25  1  0
 17 26  1  0
 25 26  2  0
 17 27  1  0
 15 28  1  6
 27 28  1  0
 19 29  1  0
 24 29  1  0
 22 30  1  6
 30 31  2  0
 22 32  1  0
 29 32  1  1
 30 33  1  0
 27 34  1  1
 33 35  1  0
 35 36  2  0
 35 37  1  0
 37 38  1  0
 36 39  1  0
 37 40  2  0
 38 41  2  0
 38 42  1  0
 39 43  2  0
 40 43  1  0
 39 44  1  0
M  END
$$$$
O14757_Pocket2Mol_idx-in-all-generaetd-604
     RDKit          3D

 41 47  0  0  0  0  0  0  0  0999 V2000
    1.5482   -0.3111   41.9233 C   0  0  0  0  0  0  0  0  0  0  0  0
    2.7284    0.2018   42.1525 N   0  0  0  0  0  0  0  0  0  0  0  0
    3.7893   -0.3016   42.7005 C   0  0  0  0  0  0  0  0  0  0  0  0
    3.3781   -1.7350   43.0000 C   0  0  0  0  0  0  0  0  0  0  0  0
    2.0339   -1.9619   42.6217 C   0  0  0  0  0  0  0  0  0  0  0  0
    4.1166   -2.4997   43.8458 C   0  0  0  0  0  0  0  0  0  0  0  0
    1.1731   -3.0051   42.5773 C   0  0  0  0  0  0  0  0  0  0  0  0
    0.4701   -3.2344   41.4901 C   0  0  0  0  0  0  0  0  0  0  0  0
    5.3799   -1.7814   44.2691 C   0  0  0  0  0  0  0  0  0  0  0  0
    5.0159   -0.0180   43.1201 N   0  0  0  0  0  0  0  0  0  0  0  0
    5.7693   -0.6937   43.8418 C   0  0  0  0  0  0  0  0  0  0  0  0
    0.8078   -3.6166   43.6782 C   0  0  0  0  0  0  0  0  0  0  0  0
    0.0663   -4.7011   43.7415 N   0  0  0  0  0  0  0  0  0  0  0  0
    6.2223   -2.6843   45.1565 C   0  0  0  0  0  0  0  0  0  0  0  0
    6.9599   -0.2351   44.2608 N   0  0  0  0  0  0  0  0  0  0  0  0
    5.9065   -3.9037   45.7499 N   0  0  0  0  0  0  0  0  0  0  0  0
   -0.5459   -5.1185   42.5870 C   0  0  0  0  0  0  0  0  0  0  0  0
    5.7480   -4.0340   46.9810 C   0  0  0  0  0  0  0  0  0  0  0  0
    7.4448   -1.8511   45.4198 C   0  0  0  0  0  0  0  0  0  0  0  0
    7.7572   -0.7827   45.0128 C   0  0  0  0  0  0  0  0  0  0  0  0
    8.4076   -2.7217   46.4541 C   0  0  0  0  0  0  0  0  0  0  0  0
    9.3167   -2.0988   47.1049 N   0  0  0  0  0  0  0  0  0  0  0  0
   -0.4719   -4.3893   41.5406 C   0  0  0  0  0  0  0  0  0  0  0  0
    8.3667   -4.0284   46.5743 N   0  0  0  0  0  0  0  0  0  0  0  0
   10.1532   -2.5726   47.9567 C   0  0  0  0  0  0  0  0  0  0  0  0
   11.0726   -1.7892   48.6998 C   0  0  0  0  0  0  0  0  0  0  0  0
   10.4886   -0.9372   49.4584 C   0  0  0  0  0  0  0  0  0  0  0  0
    8.9772   -4.5617   47.6013 C   0  0  0  0  0  0  0  0  0  0  0  0
    9.9765   -3.9922   48.2636 C   0  0  0  0  0  0  0  0  0  0  0  0
   11.3393   -0.1462   50.3539 C   0  0  0  0  0  0  0  0  0  0  0  0
   12.4892   -1.8956   48.4941 C   0  0  0  0  0  0  0  0  0  0  0  0
   12.8930   -0.3809   50.0834 C   0  0  0  0  0  0  0  0  0  0  0  0
   12.9994   -2.9244   47.4139 C   0  0  0  0  0  0  0  0  0  0  0  0
   13.2804   -1.1960   49.2234 C   0  0  0  0  0  0  0  0  0  0  0  0
   13.2158   -2.3419   46.2078 C   0  0  0  0  0  0  0  0  0  0  0  0
   12.1688   -2.0557   45.4064 C   0  0  0  0  0  0  0  0  0  0  0  0
   12.3247   -1.4555   44.0967 C   0  0  0  0  0  0  0  0  0  0  0  0
   14.4741   -1.8909   45.6911 C   0  0  0  0  0  0  0  0  0  0  0  0
   13.5617   -1.1171   43.7088 C   0  0  0  0  0  0  0  0  0  0  0  0
   13.7141   -0.5004   42.4850 F   0  0  0  0  0  0  0  0  0  0  0  0
   14.6762   -1.2854   44.5326 C   0  0  0  0  0  0  0  0  0  0  0  0
  1  2  1  0
  2  3  2  0
  3  4  1  0
  1  5  2  0
  4  5  1  0
  4  6  2  0
  5  7  1  0
  7  8  2  0
  6  9  1  0
  3 10  1  0
  9 11  2  0
 10 11  1  0
  7 12  1  0
 12 13  2  0
  9 14  1  0
 11 15  1  0
 14 16  1  0
 13 17  1  0
 16 18  1  0
 14 19  2  0
 15 20  2  0
 19 20  1  0
 19 21  1  0
 21 22  2  0
  8 23  1  0
 17 23  2  0
 21 24  1  0
 22 25  1  0
 25 26  1  0
 26 27  2  0
 24 28  2  0
 25 29  2  0
 28 29  1  0
 27 30  1  0
 26 31  1  0
 30 32  2  0
 31 33  1  0
 31 34  2  0
 32 34  1  0
 33 35  1  0
 35 36  2  0
 36 37  1  0
 35 38  1  0
 37 39  2  0
 39 40  1  0
 38 41  2  0
 39 41  1  0
M  END
$$$$
O14757_Pocket2Mol_idx-in-all-generaetd-605
     RDKit          3D

 39 44  0  0  0  0  0  0  0  0999 V2000
    5.3420    0.2589   42.8836 O   0  0  0  0  0  0  0  0  0  0  0  0
    5.1627   -0.7554   43.4753 C   0  0  0  0  0  0  0  0  0  0  0  0
    4.0509   -1.4657   43.4177 N   0  0  0  0  0  0  0  0  0  0  0  0
    5.9969   -1.2317   44.6840 C   0  0  0  0  0  0  0  0  0  0  0  0
    2.9618   -1.1021   42.5918 C   0  0  1  0  0  0  0  0  0  0  0  0
    7.3392   -0.8596   44.8412 C   0  0  0  0  0  0  0  0  0  0  0  0
    1.9754   -2.0820   42.2741 C   0  0  0  0  0  0  0  0  0  0  0  0
    5.5910   -2.4282   45.3439 C   0  0  0  0  0  0  0  0  0  0  0  0
    6.5874   -2.9636   46.1581 C   0  0  0  0  0  0  0  0  0  0  0  0
    4.2763   -3.0680   45.0493 N   0  0  0  0  0  0  0  0  0  0  0  0
    3.6188   -2.5886   44.2024 C   0  0  0  0  0  0  0  0  0  0  0  0
    8.1921   -1.4071   45.7505 C   0  0  0  0  0  0  0  0  0  0  0  0
    1.0154   -1.8839   41.2980 C   0  0  0  0  0  0  0  0  0  0  0  0
    2.5720   -3.3564   43.9063 C   0  0  0  0  0  0  0  0  0  0  0  0
    0.2502   -2.8976   41.0751 C   0  0  0  0  0  0  0  0  0  0  0  0
    6.1761   -4.1775   47.0209 C   0  0  0  0  0  0  0  0  0  0  0  0
    1.7266   -3.1047   43.0115 C   0  0  2  0  0  0  0  0  0  0  0  0
    2.3696   -4.5367   44.7536 N   0  0  0  0  0  0  0  0  0  0  0  0
    1.2264   -5.2346   44.4693 C   0  0  0  0  0  0  0  0  0  0  0  0
    0.7187   -3.8955   42.5465 C   0  0  0  0  0  0  0  0  0  0  0  0
    9.4576   -0.8949   46.0327 N   0  0  0  0  0  0  0  0  0  0  0  0
    0.8625   -6.3901   45.2462 C   0  0  0  0  0  0  0  0  0  0  0  0
    7.6467   -2.5139   46.4892 C   0  0  0  0  0  0  0  0  0  0  0  0
   10.4908   -1.5336   45.8242 C   0  0  0  0  0  0  0  0  0  0  0  0
    0.3057   -4.9299   43.2909 C   0  0  0  0  0  0  0  0  0  0  0  0
   11.5916   -1.4291   46.7436 C   0  0  0  0  0  0  0  0  0  0  0  0
   10.5566   -2.3672   44.8649 O   0  0  0  0  0  0  0  0  0  0  0  0
   12.8421   -1.9355   46.2823 C   0  0  0  0  0  0  0  0  0  0  0  0
   13.4833   -2.8582   46.9841 C   0  0  0  0  0  0  0  0  0  0  0  0
   11.4002   -1.1447   48.0540 C   0  0  0  0  0  0  0  0  0  0  0  0
   10.2867   -0.4569   48.4999 O   0  0  0  0  0  0  0  0  0  0  0  0
   12.3327   -1.4798   48.9564 C   0  0  0  0  0  0  0  0  0  0  0  0
   14.7901   -3.3162   46.6439 C   0  0  0  0  0  0  0  0  0  0  0  0
    2.4608    0.2113   42.8511 C   0  0  0  0  0  0  0  0  0  0  0  0
   13.6779   -2.2436   48.5402 C   0  0  0  0  0  0  0  0  0  0  0  0
   15.7804   -2.8363   45.9884 C   0  0  0  0  0  0  0  0  0  0  0  0
   15.8172   -1.5141   45.6297 C   0  0  0  0  0  0  0  0  0  0  0  0
   15.6185   -1.2681   44.3493 C   0  0  0  0  0  0  0  0  0  0  0  0
   15.0734   -2.0989   43.4147 O   0  0  0  0  0  0  0  0  0  0  0  0
  1  2  2  0
  2  3  1  0
  2  4  1  0
  3  5  1  0
  4  6  2  0
  5  7  1  0
  4  8  1  0
  8  9  2  0
  8 10  1  0
  3 11  1  0
 10 11  2  0
  6 12  1  0
  7 13  2  0
 11 14  1  0
 13 15  1  0
  9 16  1  0
 17  7  1  6
 14 17  1  0
 14 18  2  0
 18 19  1  0
 15 20  2  0
 17 20  1  0
 12 21  1  0
 19 22  1  0
  9 23  1  0
 12 23  2  0
 21 24  1  0
 19 25  2  0
 20 25  1  0
 24 26  1  0
 24 27  2  0
 26 28  2  0
 28 29  1  0
 26 30  1  0
 30 31  1  0
 30 32  2  0
 29 33  1  0
  5 34  1  1
 29 35  2  0
 32 35  1  0
 33 36  2  3
 36 37  1  0
 37 38  2  3
 38 39  1  0
M  END
$$$$
O14757_Pocket2Mol_idx-in-all-generaetd-606
     RDKit          3D

 26 30  0  0  0  0  0  0  0  0999 V2000
    5.3420    0.2589   42.8836 N   0  0  0  0  0  0  0  0  0  0  0  0
    5.6740   -0.8311   43.5645 C   0  0  0  0  0  0  0  0  0  0  0  0
    6.8416   -0.9240   44.3627 N   0  0  0  0  0  0  0  0  0  0  0  0
    4.1141    0.2821   42.2689 C   0  0  0  0  0  0  0  0  0  0  0  0
    3.2237   -0.7484   42.3921 N   0  0  0  0  0  0  0  0  0  0  0  0
    6.8097   -1.9585   45.3182 C   0  0  0  0  0  0  0  0  0  0  0  0
    3.5007   -1.8060   43.1511 C   0  0  0  0  0  0  0  0  0  0  0  0
    4.7020   -1.8573   43.8328 C   0  0  0  0  0  0  0  0  0  0  0  0
    5.4887   -2.6670   44.9856 C   0  0  0  0  0  0  0  0  0  0  0  0
    2.5208   -2.8458   43.2671 C   0  0  0  0  0  0  0  0  0  0  0  0
    2.6558   -3.8570   44.2541 C   0  0  0  0  0  0  0  0  0  0  0  0
    7.6468   -2.3589   46.2854 C   0  0  0  0  0  0  0  0  0  0  0  0
    3.8579   -4.1296   44.9532 N   0  0  0  0  0  0  0  0  0  0  0  0
    1.3096   -2.7520   42.6410 C   0  0  0  0  0  0  0  0  0  0  0  0
    4.9776   -3.8402   45.4939 C   0  0  0  0  0  0  0  0  0  0  0  0
    8.7023   -1.6088   46.4743 C   0  0  0  0  0  0  0  0  0  0  0  0
    9.5984   -1.8433   47.5139 C   0  0  0  0  0  0  0  0  0  0  0  0
    7.3782   -3.4221   47.2077 C   0  0  0  0  0  0  0  0  0  0  0  0
    1.5977   -4.7338   44.4801 C   0  0  0  0  0  0  0  0  0  0  0  0
    1.0668   -1.7644   41.4981 C   0  0  0  0  0  0  0  0  0  0  0  0
   10.8175   -0.9959   47.6882 O   0  0  0  0  0  0  0  0  0  0  0  0
   11.6053   -1.2371   48.6095 C   0  0  0  0  0  0  0  0  0  0  0  0
    8.2848   -3.7045   48.2226 C   0  0  0  0  0  0  0  0  0  0  0  0
    9.4330   -2.9092   48.3657 C   0  0  0  0  0  0  0  0  0  0  0  0
    0.4386   -4.6455   43.8155 C   0  0  0  0  0  0  0  0  0  0  0  0
    0.2835   -3.6763   42.8244 C   0  0  0  0  0  0  0  0  0  0  0  0
  1  2  2  0
  2  3  1  0
  1  4  1  0
  4  5  2  0
  3  6  1  0
  5  7  1  0
  2  8  1  0
  7  8  2  0
  6  9  2  0
  8  9  1  0
  7 10  1  0
 10 11  2  0
  6 12  1  0
 11 13  1  0
 10 14  1  0
  9 15  1  0
 13 15  1  0
 12 16  2  0
 16 17  1  0
 12 18  1  0
 11 19  1  0
 14 20  1  0
 17 21  1  0
 21 22  1  0
 18 23  2  0
 17 24  2  0
 23 24  1  0
 19 25  2  0
 14 26  2  0
 25 26  1  0
M  END
$$$$
O14757_Pocket2Mol_idx-in-all-generaetd-607
     RDKit          3D

 33 39  0  0  0  0  0  0  0  0999 V2000
    4.5156    0.0550   42.9895 N   0  0  0  0  0  0  0  0  0  0  0  0
    5.0618   -0.8645   43.5295 C   0  0  0  0  0  0  0  0  0  0  0  0
    4.4350   -2.0604   43.7783 C   0  0  0  0  0  0  0  0  0  0  0  0
    4.9987   -3.0994   44.5839 C   0  0  0  0  0  0  0  0  0  0  0  0
    3.2714   -1.8664   43.0632 C   0  0  0  0  0  0  0  0  0  0  0  0
    6.4064   -0.5942   44.3204 N   0  0  0  0  0  0  0  0  0  0  0  0
    4.3422   -4.3256   44.7203 C   0  0  0  0  0  0  0  0  0  0  0  0
    2.1845   -2.6668   42.8270 N   0  0  0  0  0  0  0  0  0  0  0  0
    3.3305   -0.5395   42.5465 N   0  0  0  0  0  0  0  0  0  0  0  0
    1.9502   -3.8972   43.4076 C   0  0  0  0  0  0  0  0  0  0  0  0
    2.7156   -4.1184   44.6954 N   0  0  0  0  0  0  0  0  0  0  0  0
    6.8581   -1.5862   45.1101 C   0  0  0  0  0  0  0  0  0  0  0  0
    6.1801   -2.8430   45.2383 C   0  0  0  0  0  0  0  0  0  0  0  0
    2.1454   -5.1901   45.5771 C   0  0  0  0  0  0  0  0  0  0  0  0
    8.0137   -1.3946   45.8526 C   0  0  0  0  0  0  0  0  0  0  0  0
    0.9733   -4.5725   43.2066 O   0  0  0  0  0  0  0  0  0  0  0  0
    2.2437    0.0035   41.8733 C   0  0  0  0  0  0  0  0  0  0  0  0
    1.3210   -2.2077   41.7009 C   0  0  0  0  0  0  0  0  0  0  0  0
    8.6047   -2.2876   46.6923 C   0  0  0  0  0  0  0  0  0  0  0  0
    7.9141   -3.5157   46.8869 C   0  0  0  0  0  0  0  0  0  0  0  0
    1.0501   -0.8658   41.6612 C   0  0  0  0  0  0  0  0  0  0  0  0
    6.7278   -3.7718   46.2525 C   0  0  0  0  0  0  0  0  0  0  0  0
    9.8280   -2.0492   47.3361 C   0  0  0  0  0  0  0  0  0  0  0  0
    9.8262   -1.5735   48.5432 C   0  0  0  0  0  0  0  0  0  0  0  0
   11.0745   -2.0905   46.6735 C   0  0  0  0  0  0  0  0  0  0  0  0
   11.1189   -2.5101   45.2315 C   0  0  0  0  0  0  0  0  0  0  0  0
    8.6548   -1.3952   49.4178 O   0  0  0  0  0  0  0  0  0  0  0  0
   12.2483   -1.7792   47.2003 C   0  0  0  0  0  0  0  0  0  0  0  0
   11.0576   -1.2774   49.2428 C   0  0  0  0  0  0  0  0  0  0  0  0
   13.4741   -1.9527   46.5228 C   0  0  0  0  0  0  0  0  0  0  0  0
   13.4814   -2.0642   45.1738 N   0  0  0  0  0  0  0  0  0  0  0  0
   12.3114   -1.4166   48.6347 C   0  0  0  0  0  0  0  0  0  0  0  0
   12.2813   -2.4130   44.6094 C   0  0  0  0  0  0  0  0  0  0  0  0
  1  2  2  0
  2  3  1  0
  3  4  1  0
  3  5  2  0
  2  6  1  0
  4  7  1  0
  5  8  1  0
  1  9  1  0
  5  9  1  0
  8 10  1  0
  7 11  1  0
 10 11  1  0
  6 12  2  0
  4 13  2  0
 12 13  1  0
 11 14  1  0
 12 15  1  0
 10 16  2  0
  9 17  1  0
  8 18  1  0
 15 19  2  0
 19 20  1  0
 17 21  1  0
 18 21  1  0
 13 22  1  0
 20 22  2  0
 19 23  1  0
 23 24  2  0
 23 25  1  0
 25 26  2  0
 24 27  1  0
 25 28  1  0
 24 29  1  0
 28 30  2  0
 30 31  1  0
 28 32  1  0
 29 32  2  0
 26 33  1  0
 31 33  2  0
M  END
$$$$
O14757_Pocket2Mol_idx-in-all-generaetd-608
     RDKit          3D

 27 30  0  0  0  0  0  0  0  0999 V2000
    5.5575   -0.4055   43.2321 N   0  0  0  0  0  0  0  0  0  0  0  0
    4.5233    0.0727   42.5988 N   0  0  0  0  0  0  0  0  0  0  0  0
    5.1726   -1.5114   43.9314 C   0  0  0  0  0  0  0  0  0  0  0  0
    5.9080   -2.2268   44.9217 C   0  0  0  0  0  0  0  0  0  0  0  0
    5.3635   -3.3861   45.5121 C   0  0  0  0  0  0  0  0  0  0  0  0
    7.1791   -1.7734   45.4544 C   0  0  0  0  0  0  0  0  0  0  0  0
    3.4069   -0.5377   42.5980 C   0  0  0  0  0  0  0  0  0  0  0  0
    2.1839   -0.4257   41.9942 C   0  0  0  0  0  0  0  0  0  0  0  0
    3.7449   -1.7453   43.5024 C   0  0  0  0  0  0  0  0  0  0  0  0
    7.8525   -0.6503   45.0420 O   0  0  0  0  0  0  0  0  0  0  0  0
    7.8789   -2.5576   46.3941 C   0  0  0  0  0  0  0  0  0  0  0  0
    2.8045   -2.7414   43.6928 C   0  0  0  0  0  0  0  0  0  0  0  0
    9.2115   -2.0969   46.8642 C   0  0  0  0  0  0  0  0  0  0  0  0
    4.0793   -3.8977   45.1232 C   0  0  0  0  0  0  0  0  0  0  0  0
    9.4064   -1.6424   47.9232 O   0  0  0  0  0  0  0  0  0  0  0  0
    3.1160   -3.7348   44.5196 N   0  0  0  0  0  0  0  0  0  0  0  0
   10.2271   -2.0181   45.9902 O   0  0  0  0  0  0  0  0  0  0  0  0
    1.5846   -2.6820   43.0143 C   0  0  0  0  0  0  0  0  0  0  0  0
   11.4761   -2.1798   46.4472 C   0  0  0  0  0  0  0  0  0  0  0  0
    1.2997   -1.5506   42.1525 C   0  0  0  0  0  0  0  0  0  0  0  0
    0.5555   -3.6734   43.1531 C   0  0  0  0  0  0  0  0  0  0  0  0
    0.3002   -4.1727   44.1809 O   0  0  0  0  0  0  0  0  0  0  0  0
   -0.0722   -4.0606   42.0699 O   0  0  0  0  0  0  0  0  0  0  0  0
    6.2261   -4.0853   46.5914 C   0  0  0  0  0  0  0  0  0  0  0  0
    7.3190   -3.6641   47.0173 C   0  0  0  0  0  0  0  0  0  0  0  0
   12.3118   -2.7990   45.3711 C   0  0  0  0  0  0  0  0  0  0  0  0
   13.1910   -1.9050   44.8727 O   0  0  0  0  0  0  0  0  0  0  0  0
  1  2  2  0
  1  3  1  0
  3  4  1  0
  4  5  2  0
  4  6  1  0
  2  7  1  0
  7  8  2  0
  3  9  2  0
  7  9  1  0
  6 10  1  0
  6 11  2  0
  9 12  1  0
 11 13  1  0
  5 14  1  0
 13 15  2  0
 12 16  1  0
 14 16  2  0
 13 17  1  0
 12 18  1  0
 17 19  1  0
  8 20  1  0
 18 20  2  0
 18 21  1  0
 21 22  1  0
 21 23  2  0
  5 24  1  0
 11 25  1  0
 24 25  2  0
 19 26  1  0
 26 27  1  0
M  END
$$$$
O14757_Pocket2Mol_idx-in-all-generaetd-609
     RDKit          3D

 47 56  0  0  0  0  0  0  0  0999 V2000
    1.5482   -0.3111   41.9233 C   0  0  0  0  0  0  0  0  0  0  0  0
    2.7284    0.2018   42.1525 N   0  0  0  0  0  0  0  0  0  0  0  0
    3.7893   -0.3016   42.7005 C   0  0  0  0  0  0  0  0  0  0  0  0
    3.3781   -1.7350   43.0000 C   0  0  0  0  0  0  0  0  0  0  0  0
    2.0339   -1.9619   42.6217 C   0  0  0  0  0  0  0  0  0  0  0  0
    5.0090    0.1219   42.9340 N   0  0  0  0  0  0  0  0  0  0  0  0
    4.2895   -2.4979   43.6707 C   0  0  0  0  0  0  0  0  0  0  0  0
    5.8391   -0.6675   43.6343 C   0  0  0  0  0  0  0  0  0  0  0  0
    6.9849   -0.2377   44.0028 N   0  0  0  0  0  0  0  0  0  0  0  0
    4.0426   -3.8794   44.0832 C   0  0  0  0  0  0  0  0  0  0  0  0
    7.6796   -0.8734   44.9326 C   0  0  0  0  0  0  0  0  0  0  0  0
    1.1064   -2.9576   42.4211 C   0  0  0  0  0  0  0  0  0  0  0  0
    5.5298   -1.9496   44.0315 C   0  0  0  0  0  0  0  0  0  0  0  0
    3.8954   -4.1817   45.4718 C   0  0  0  0  0  0  0  0  0  0  0  0
    0.6765   -3.5480   43.4006 C   0  0  1  0  0  0  0  0  0  0  0  0
    0.5804   -3.2191   41.1635 C   0  0  0  0  0  0  0  0  0  0  0  0
    2.8083   -4.8227   45.9203 N   0  0  0  0  0  0  0  0  0  0  0  0
   -0.1574   -4.5754   42.9329 N   0  0  0  0  0  0  0  0  0  0  0  0
    6.5271   -2.5531   44.9677 C   0  0  0  0  0  0  0  0  0  0  0  0
   -0.2272   -4.3703   41.5137 C   0  0  0  0  0  0  0  0  0  0  0  0
    7.5095   -2.0029   45.3993 C   0  0  0  0  0  0  0  0  0  0  0  0
    8.2550   -2.6982   46.3988 C   0  0  1  0  0  0  0  0  0  0  0  0
    8.8975   -0.3029   45.3267 O   0  0  0  0  0  0  0  0  0  0  0  0
    4.8299   -4.4637   46.4212 C   0  0  0  0  0  0  0  0  0  0  0  0
    4.2707   -4.9248   47.6295 N   0  0  0  0  0  0  0  0  0  0  0  0
    3.2045   -5.2092   47.1521 C   0  0  0  0  0  0  0  0  0  0  0  0
    1.4482   -4.6186   45.4134 C   0  0  0  0  0  0  0  0  0  0  0  0
    1.3256   -3.7660   44.6394 N   0  0  0  0  0  0  0  0  0  0  0  0
    9.2816   -2.1418   47.1273 N   0  0  0  0  0  0  0  0  0  0  0  0
   10.0629   -3.1324   47.8508 C   0  0  0  0  0  0  0  0  0  0  0  0
    6.3491   -3.8960   46.0844 C   0  0  2  0  0  0  0  0  0  0  0  0
    7.4349   -3.5889   46.9054 C   0  0  0  0  0  0  0  0  0  0  0  0
   10.3145   -2.7271   49.0818 O   0  0  0  0  0  0  0  0  0  0  0  0
   11.0221   -3.8171   47.1052 C   0  0  0  0  0  0  0  0  0  0  0  0
    0.8710   -5.7412   45.2074 O   0  0  0  0  0  0  0  0  0  0  0  0
   12.1654   -3.3890   46.7468 C   0  0  0  0  0  0  0  0  0  0  0  0
   13.1016   -4.1184   46.0003 C   0  0  0  0  0  0  0  0  0  0  0  0
   14.3410   -3.6031   45.7839 C   0  0  0  0  0  0  0  0  0  0  0  0
   12.7386   -5.2783   45.5019 C   0  0  0  0  0  0  0  0  0  0  0  0
   10.5019   -5.1787   46.6888 C   0  0  0  0  0  0  0  0  0  0  0  0
   11.4219   -5.8282   45.8667 C   0  0  0  0  0  0  0  0  0  0  0  0
   14.5762   -2.3044   45.3325 C   0  0  0  0  0  0  0  0  0  0  0  0
   15.9280   -1.8567   45.1007 C   0  0  0  0  0  0  0  0  0  0  0  0
   16.1507   -0.8334   44.8129 O   0  0  0  0  0  0  0  0  0  0  0  0
   15.4853   -4.4795   45.8613 C   0  0  0  0  0  0  0  0  0  0  0  0
   16.9426   -2.8164   45.2540 N   0  0  0  0  0  0  0  0  0  0  0  0
   16.7465   -4.0466   45.6203 C   0  0  0  0  0  0  0  0  0  0  0  0
  1  2  1  0
  2  3  2  0
  3  4  1  0
  1  5  2  0
  4  5  1  0
  3  6  1  0
  4  7  2  0
  6  8  1  0
  8  9  1  0
  7 10  1  0
  9 11  1  0
  5 12  1  0
  7 13  1  0
  8 13  2  0
 10 14  1  0
 12 15  1  0
 12 16  2  0
 14 17  1  0
 15 18  1  0
 13 19  1  0
 16 20  1  0
 18 20  2  0
 11 21  1  0
 19 21  2  0
 21 22  1  0
 11 23  2  0
 14 24  2  0
 24 25  1  0
 17 26  1  0
 25 26  2  0
 17 27  1  0
 15 28  1  6
 27 28  1  0
 22 29  1  1
 29 30  1  0
 19 31  1  0
 24 31  1  0
 22 32  1  0
 31 32  1  1
 30 33  2  0
 30 34  1  0
 27 35  2  0
 34 36  2  0
 36 37  1  0
 37 38  1  0
 37 39  2  0
 34 40  1  0
 39 41  1  0
 40 41  2  0
 38 42  2  0
 42 43  1  0
 43 44  2  0
 38 45  1  0
 43 46  1  0
 45 47  2  0
 46 47  1  0
M  END
$$$$
O14757_Pocket2Mol_idx-in-all-generaetd-610
     RDKit          3D

 38 44  0  0  0  0  0  0  0  0999 V2000
    1.5482   -0.3111   41.9233 C   0  0  0  0  0  0  0  0  0  0  0  0
    2.7284    0.2018   42.1525 N   0  0  0  0  0  0  0  0  0  0  0  0
    3.7893   -0.3016   42.7005 C   0  0  0  0  0  0  0  0  0  0  0  0
    3.3781   -1.7350   43.0000 C   0  0  0  0  0  0  0  0  0  0  0  0
    2.0339   -1.9619   42.6217 C   0  0  0  0  0  0  0  0  0  0  0  0
    4.1166   -2.4997   43.8458 C   0  0  0  0  0  0  0  0  0  0  0  0
    1.1731   -3.0051   42.5773 C   0  0  0  0  0  0  0  0  0  0  0  0
    0.4701   -3.2344   41.4901 C   0  0  0  0  0  0  0  0  0  0  0  0
    5.3799   -1.7814   44.2691 C   0  0  0  0  0  0  0  0  0  0  0  0
    5.0159   -0.0180   43.1201 N   0  0  0  0  0  0  0  0  0  0  0  0
    5.7693   -0.6937   43.8418 C   0  0  0  0  0  0  0  0  0  0  0  0
    0.8078   -3.6166   43.6782 C   0  0  0  0  0  0  0  0  0  0  0  0
    0.0663   -4.7011   43.7415 N   0  0  0  0  0  0  0  0  0  0  0  0
    6.2223   -2.6843   45.1565 C   0  0  0  0  0  0  0  0  0  0  0  0
    6.9599   -0.2351   44.2608 N   0  0  0  0  0  0  0  0  0  0  0  0
    5.9065   -3.9037   45.7499 N   0  0  0  0  0  0  0  0  0  0  0  0
   -0.5459   -5.1185   42.5870 C   0  0  0  0  0  0  0  0  0  0  0  0
    5.7480   -4.0340   46.9810 C   0  0  0  0  0  0  0  0  0  0  0  0
    7.4448   -1.8511   45.4198 C   0  0  0  0  0  0  0  0  0  0  0  0
    7.7572   -0.7827   45.0128 C   0  0  0  0  0  0  0  0  0  0  0  0
    8.4076   -2.7217   46.4541 C   0  0  0  0  0  0  0  0  0  0  0  0
    9.3167   -2.0988   47.1049 N   0  0  0  0  0  0  0  0  0  0  0  0
   -0.4719   -4.3893   41.5406 C   0  0  0  0  0  0  0  0  0  0  0  0
    8.3667   -4.0284   46.5743 N   0  0  0  0  0  0  0  0  0  0  0  0
    9.5309   -4.3147   47.3094 C   0  0  0  0  0  0  0  0  0  0  0  0
    5.3113   -3.3789   47.8005 O   0  0  0  0  0  0  0  0  0  0  0  0
    9.9022   -5.6301   47.7684 C   0  0  0  0  0  0  0  0  0  0  0  0
    5.4470   -5.5868   47.2096 C   0  0  0  0  0  0  0  0  0  0  0  0
   11.2254   -5.8679   48.0402 C   0  0  0  0  0  0  0  0  0  0  0  0
    8.9736   -6.6532   47.8548 C   0  0  0  0  0  0  0  0  0  0  0  0
   10.0616   -3.0670   47.6360 C   0  0  0  0  0  0  0  0  0  0  0  0
    7.5566   -6.3564   47.5477 N   0  0  0  0  0  0  0  0  0  0  0  0
    6.6446   -6.7176   48.4005 C   0  0  0  0  0  0  0  0  0  0  0  0
   11.6653   -7.1422   48.3512 C   0  0  0  0  0  0  0  0  0  0  0  0
    9.3831   -7.8679   48.1519 C   0  0  0  0  0  0  0  0  0  0  0  0
   13.0251   -7.4581   48.7102 O   0  0  0  0  0  0  0  0  0  0  0  0
    5.6195   -5.8561   48.6334 C   0  0  0  0  0  0  0  0  0  0  0  0
   10.7244   -8.1394   48.5087 C   0  0  0  0  0  0  0  0  0  0  0  0
  1  2  1  0
  2  3  2  0
  3  4  1  0
  1  5  2  0
  4  5  1  0
  4  6  2  0
  5  7  1  0
  7  8  2  0
  6  9  1  0
  3 10  1  0
  9 11  2  0
 10 11  1  0
  7 12  1  0
 12 13  2  0
  9 14  1  0
 11 15  1  0
 14 16  1  0
 13 17  1  0
 16 18  1  0
 14 19  2  0
 15 20  2  0
 19 20  1  0
 19 21  1  0
 21 22  2  0
  8 23  1  0
 17 23  2  0
 21 24  1  0
 24 25  1  0
 18 26  2  0
 25 27  1  0
 18 28  1  0
 27 29  2  0
 27 30  1  0
 22 31  1  0
 25 31  2  0
 30 32  1  0
 32 33  1  0
 29 34  1  0
 30 35  2  0
 34 36  1  0
 28 37  1  0
 33 37  1  0
 34 38  2  0
 35 38  1  0
M  END
$$$$
O14757_Pocket2Mol_idx-in-all-generaetd-611
     RDKit          3D

 30 34  0  0  0  0  0  0  0  0999 V2000
    3.7044    0.1389   42.5158 N   0  0  0  0  0  0  0  0  0  0  0  0
    3.0206   -1.0018   42.4929 C   0  0  0  0  0  0  0  0  0  0  0  0
    3.4791   -2.0817   43.2077 C   0  0  0  0  0  0  0  0  0  0  0  0
    4.8540    0.3862   43.0582 N   0  0  0  0  0  0  0  0  0  0  0  0
    5.1377   -0.9552   43.7144 C   0  0  0  0  0  0  0  0  0  0  0  0
    1.5846   -1.0753   41.7644 C   0  0  0  0  0  0  0  0  0  0  0  0
    4.6026   -2.0358   43.8129 C   0  0  0  0  0  0  0  0  0  0  0  0
    5.1584   -3.1511   44.6069 C   0  0  0  0  0  0  0  0  0  0  0  0
    6.6094   -0.7911   44.3696 N   0  0  0  0  0  0  0  0  0  0  0  0
    4.4744   -4.3270   44.8472 C   0  0  0  0  0  0  0  0  0  0  0  0
    6.9275   -1.8713   45.2437 C   0  0  0  0  0  0  0  0  0  0  0  0
    8.2702   -1.7750   45.8768 C   0  0  0  0  0  0  0  0  0  0  0  0
    0.9365   -0.0867   41.7346 O   0  0  0  0  0  0  0  0  0  0  0  0
    6.2322   -3.0484   45.3118 C   0  0  0  0  0  0  0  0  0  0  0  0
    6.7747   -4.0433   46.1202 N   0  0  0  0  0  0  0  0  0  0  0  0
    1.2161   -2.2739   41.2518 N   0  0  0  0  0  0  0  0  0  0  0  0
    9.0373   -0.5649   45.9132 O   0  0  0  0  0  0  0  0  0  0  0  0
    3.8907   -5.0906   43.9511 O   0  0  0  0  0  0  0  0  0  0  0  0
    4.3454   -4.8388   46.1621 N   0  0  0  0  0  0  0  0  0  0  0  0
    3.4531   -5.8952   46.4159 C   0  0  0  0  0  0  0  0  0  0  0  0
    8.7091   -2.8031   46.6693 N   0  0  0  0  0  0  0  0  0  0  0  0
    5.4910   -4.7959   46.9467 C   0  0  0  0  0  0  0  0  0  0  0  0
    7.8496   -3.9145   46.8373 C   0  0  0  0  0  0  0  0  0  0  0  0
    8.5639   -5.1140   47.3215 O   0  0  0  0  0  0  0  0  0  0  0  0
    9.9254   -2.6675   47.4187 C   0  0  0  0  0  0  0  0  0  0  0  0
    9.8657   -1.8897   48.5483 C   0  0  0  0  0  0  0  0  0  0  0  0
   11.0142   -2.1407   46.5238 C   0  0  0  0  0  0  0  0  0  0  0  0
   12.3267   -2.5211   46.9519 C   0  0  0  0  0  0  0  0  0  0  0  0
   12.5468   -1.8845   48.3434 C   0  0  0  0  0  0  0  0  0  0  0  0
   11.3146   -2.0915   49.3307 C   0  0  0  0  0  0  0  0  0  0  0  0
  1  2  2  0
  2  3  1  0
  1  4  1  0
  4  5  2  0
  2  6  1  0
  3  7  2  0
  5  7  1  0
  7  8  1  0
  5  9  1  0
  8 10  1  0
  9 11  2  0
 11 12  1  0
  6 13  2  0
  8 14  2  0
 11 14  1  0
 14 15  1  0
  6 16  1  0
 12 17  2  0
 10 18  2  0
 10 19  1  0
 19 20  1  0
 12 21  1  0
 15 22  1  0
 19 22  1  0
 15 23  1  0
 21 23  1  0
 23 24  2  0
 21 25  1  0
 25 26  1  0
 25 27  1  0
 27 28  1  0
 28 29  1  0
 26 30  1  0
 29 30  1  0
M  END
$$$$
O14757_Pocket2Mol_idx-in-all-generaetd-612
     RDKit          3D

 34 40  0  0  0  0  0  0  0  0999 V2000
    5.3420    0.2589   42.8836 O   0  0  0  0  0  0  0  0  0  0  0  0
    5.1627   -0.7554   43.4753 C   0  0  0  0  0  0  0  0  0  0  0  0
    4.0509   -1.4657   43.4177 N   0  0  0  0  0  0  0  0  0  0  0  0
    5.9969   -1.2317   44.6840 C   0  0  0  0  0  0  0  0  0  0  0  0
    2.9618   -1.1021   42.5918 C   0  0  1  0  0  0  0  0  0  0  0  0
    7.3392   -0.8596   44.8412 C   0  0  0  0  0  0  0  0  0  0  0  0
    1.9754   -2.0820   42.2741 C   0  0  0  0  0  0  0  0  0  0  0  0
    5.5910   -2.4282   45.3439 C   0  0  0  0  0  0  0  0  0  0  0  0
    6.5874   -2.9636   46.1581 C   0  0  0  0  0  0  0  0  0  0  0  0
    4.2763   -3.0680   45.0493 N   0  0  0  0  0  0  0  0  0  0  0  0
    3.6188   -2.5886   44.2024 C   0  0  0  0  0  0  0  0  0  0  0  0
    8.1921   -1.4071   45.7505 C   0  0  0  0  0  0  0  0  0  0  0  0
    1.0154   -1.8839   41.2980 C   0  0  0  0  0  0  0  0  0  0  0  0
    2.5720   -3.3564   43.9063 C   0  0  0  0  0  0  0  0  0  0  0  0
    0.2502   -2.8976   41.0751 C   0  0  0  0  0  0  0  0  0  0  0  0
    6.1761   -4.1775   47.0209 C   0  0  0  0  0  0  0  0  0  0  0  0
    1.7266   -3.1047   43.0115 C   0  0  2  0  0  0  0  0  0  0  0  0
    2.3696   -4.5367   44.7536 N   0  0  0  0  0  0  0  0  0  0  0  0
    1.2264   -5.2346   44.4693 C   0  0  0  0  0  0  0  0  0  0  0  0
    0.7187   -3.8955   42.5465 C   0  0  0  0  0  0  0  0  0  0  0  0
    9.4576   -0.8949   46.0327 N   0  0  0  0  0  0  0  0  0  0  0  0
    2.4628    0.2076   42.7867 C   0  0  0  0  0  0  0  0  0  0  0  0
    0.9064   -6.4149   45.2248 C   0  0  0  0  0  0  0  0  0  0  0  0
    0.3107   -5.0600   43.3630 C   0  0  0  0  0  0  0  0  0  0  0  0
    7.8349   -2.4469   46.4709 C   0  0  0  0  0  0  0  0  0  0  0  0
   10.1474   -1.4478   46.9669 C   0  0  0  0  0  0  0  0  0  0  0  0
    9.6325   -2.5356   47.5734 C   0  0  0  0  0  0  0  0  0  0  0  0
    8.6297   -3.0621   47.3869 N   0  0  0  0  0  0  0  0  0  0  0  0
   10.6287   -3.1664   48.5942 C   0  0  0  0  0  0  0  0  0  0  0  0
   11.4696   -1.0741   47.0540 C   0  0  0  0  0  0  0  0  0  0  0  0
   11.9550    0.0451   46.2684 O   0  0  0  0  0  0  0  0  0  0  0  0
   12.4097   -1.6279   48.0317 C   0  0  0  0  0  0  0  0  0  0  0  0
   12.9094    0.7967   46.7871 C   0  0  0  0  0  0  0  0  0  0  0  0
   11.9152   -2.6807   48.7467 C   0  0  0  0  0  0  0  0  0  0  0  0
  1  2  2  0
  2  3  1  0
  2  4  1  0
  3  5  1  0
  4  6  2  0
  5  7  1  0
  4  8  1  0
  8  9  2  0
  8 10  1  0
  3 11  1  0
 10 11  2  0
  6 12  1  0
  7 13  2  0
 11 14  1  0
 13 15  1  0
  9 16  1  0
 17  7  1  6
 14 17  1  0
 14 18  2  0
 18 19  1  0
 15 20  2  0
 17 20  1  0
 12 21  1  0
  5 22  1  1
 19 23  1  0
 19 24  2  0
 20 24  1  0
  9 25  1  0
 12 25  2  0
 21 26  1  0
 26 27  1  0
 25 28  1  0
 27 28  2  0
 27 29  1  0
 26 30  2  0
 30 31  1  0
 30 32  1  0
 31 33  1  0
 29 34  1  0
 32 34  2  0
M  END
$$$$
O14757_Pocket2Mol_idx-in-all-generaetd-613
     RDKit          3D

 48 57  0  0  0  0  0  0  0  0999 V2000
    1.5482   -0.3111   41.9233 C   0  0  0  0  0  0  0  0  0  0  0  0
    2.7284    0.2018   42.1525 N   0  0  0  0  0  0  0  0  0  0  0  0
    3.7893   -0.3016   42.7005 C   0  0  0  0  0  0  0  0  0  0  0  0
    3.3781   -1.7350   43.0000 C   0  0  0  0  0  0  0  0  0  0  0  0
    2.0339   -1.9619   42.6217 C   0  0  0  0  0  0  0  0  0  0  0  0
    5.0090    0.1219   42.9340 N   0  0  0  0  0  0  0  0  0  0  0  0
    4.2895   -2.4979   43.6707 C   0  0  0  0  0  0  0  0  0  0  0  0
    5.8391   -0.6675   43.6343 C   0  0  0  0  0  0  0  0  0  0  0  0
    6.9849   -0.2377   44.0028 N   0  0  0  0  0  0  0  0  0  0  0  0
    4.0426   -3.8794   44.0832 C   0  0  0  0  0  0  0  0  0  0  0  0
    7.6796   -0.8734   44.9326 C   0  0  0  0  0  0  0  0  0  0  0  0
    1.1064   -2.9576   42.4211 C   0  0  0  0  0  0  0  0  0  0  0  0
    5.5298   -1.9496   44.0315 C   0  0  0  0  0  0  0  0  0  0  0  0
    3.8954   -4.1817   45.4718 C   0  0  0  0  0  0  0  0  0  0  0  0
    0.6765   -3.5480   43.4006 C   0  0  1  0  0  0  0  0  0  0  0  0
    0.5804   -3.2191   41.1635 C   0  0  0  0  0  0  0  0  0  0  0  0
    2.8083   -4.8227   45.9203 N   0  0  0  0  0  0  0  0  0  0  0  0
   -0.1574   -4.5754   42.9329 N   0  0  0  0  0  0  0  0  0  0  0  0
    6.5271   -2.5531   44.9677 C   0  0  0  0  0  0  0  0  0  0  0  0
   -0.2272   -4.3703   41.5137 C   0  0  0  0  0  0  0  0  0  0  0  0
    7.5095   -2.0029   45.3993 C   0  0  0  0  0  0  0  0  0  0  0  0
    8.2550   -2.6982   46.3988 C   0  0  1  0  0  0  0  0  0  0  0  0
    8.8975   -0.3029   45.3267 O   0  0  0  0  0  0  0  0  0  0  0  0
    4.8299   -4.4637   46.4212 C   0  0  0  0  0  0  0  0  0  0  0  0
    4.2707   -4.9248   47.6295 N   0  0  0  0  0  0  0  0  0  0  0  0
    3.2045   -5.2092   47.1521 C   0  0  0  0  0  0  0  0  0  0  0  0
    1.4482   -4.6186   45.4134 C   0  0  0  0  0  0  0  0  0  0  0  0
    1.3256   -3.7660   44.6394 N   0  0  0  0  0  0  0  0  0  0  0  0
    9.2816   -2.1418   47.1273 N   0  0  0  0  0  0  0  0  0  0  0  0
   10.0629   -3.1324   47.8508 C   0  0  0  0  0  0  0  0  0  0  0  0
    6.3491   -3.8960   46.0844 C   0  0  2  0  0  0  0  0  0  0  0  0
    7.4349   -3.5889   46.9054 C   0  0  0  0  0  0  0  0  0  0  0  0
   10.3145   -2.7271   49.0818 O   0  0  0  0  0  0  0  0  0  0  0  0
   11.0221   -3.8171   47.1052 C   0  0  0  0  0  0  0  0  0  0  0  0
    0.8710   -5.7412   45.2074 O   0  0  0  0  0  0  0  0  0  0  0  0
   12.1654   -3.3890   46.7468 C   0  0  0  0  0  0  0  0  0  0  0  0
   13.1016   -4.1184   46.0003 C   0  0  0  0  0  0  0  0  0  0  0  0
   14.3410   -3.6031   45.7839 C   0  0  0  0  0  0  0  0  0  0  0  0
   12.7386   -5.2783   45.5019 C   0  0  0  0  0  0  0  0  0  0  0  0
   10.5019   -5.1787   46.6888 C   0  0  0  0  0  0  0  0  0  0  0  0
   11.4219   -5.8282   45.8667 C   0  0  0  0  0  0  0  0  0  0  0  0
   14.5762   -2.3044   45.3325 C   0  0  0  0  0  0  0  0  0  0  0  0
   15.9280   -1.8567   45.1007 C   0  0  0  0  0  0  0  0  0  0  0  0
   16.1507   -0.8334   44.8129 O   0  0  0  0  0  0  0  0  0  0  0  0
   15.4853   -4.4795   45.8613 C   0  0  0  0  0  0  0  0  0  0  0  0
   16.9426   -2.8164   45.2540 N   0  0  0  0  0  0  0  0  0  0  0  0
   16.8088   -3.9422   45.6052 C   0  0  0  0  0  0  0  0  0  0  0  0
   17.8721   -4.6744   45.6848 O   0  0  0  0  0  0  0  0  0  0  0  0
  1  2  1  0
  2  3  2  0
  3  4  1  0
  1  5  2  0
  4  5  1  0
  3  6  1  0
  4  7  2  0
  6  8  1  0
  8  9  1  0
  7 10  1  0
  9 11  1  0
  5 12  1  0
  7 13  1  0
  8 13  2  0
 10 14  1  0
 12 15  1  0
 12 16  2  0
 14 17  1  0
 15 18  1  0
 13 19  1  0
 16 20  1  0
 18 20  2  0
 11 21  1  0
 19 21  2  0
 21 22  1  0
 11 23  2  0
 14 24  2  0
 24 25  1  0
 17 26  1  0
 25 26  2  0
 17 27  1  0
 15 28  1  6
 27 28  1  0
 22 29  1  1
 29 30  1  0
 19 31  1  0
 24 31  1  0
 22 32  1  0
 31 32  1  1
 30 33  2  0
 30 34  1  0
 27 35  2  0
 34 36  2  0
 36 37  1  0
 37 38  1  0
 37 39  2  0
 34 40  1  0
 39 41  1  0
 40 41  2  0
 38 42  2  0
 42 43  1  0
 43 44  2  0
 38 45  1  0
 43 46  1  0
 45 47  1  0
 46 47  1  0
 47 48  2  0
M  END
$$$$
O14757_Pocket2Mol_idx-in-all-generaetd-614
     RDKit          3D

 28 32  0  0  0  0  0  0  0  0999 V2000
    2.2608    0.0351   42.1039 C   0  0  0  0  0  0  0  0  0  0  0  0
    2.7906   -1.0673   42.3987 N   0  0  0  0  0  0  0  0  0  0  0  0
    3.1210    0.9973   42.3040 N   0  0  0  0  0  0  0  0  0  0  0  0
    4.0827   -0.7954   42.9700 C   0  0  0  0  0  0  0  0  0  0  0  0
    4.9955   -1.7234   43.5259 N   0  0  0  0  0  0  0  0  0  0  0  0
    4.5382   -2.7016   44.3398 C   0  0  1  0  0  0  0  0  0  0  0  0
    5.3738   -2.9294   45.5228 C   0  0  2  0  0  0  0  0  0  0  0  0
    6.6133   -2.1566   45.5018 C   0  0  0  0  0  0  0  0  0  0  0  0
    4.2841    0.3926   42.8877 N   0  0  0  0  0  0  0  0  0  0  0  0
    5.4441   -4.2364   45.9837 C   0  0  1  0  0  0  0  0  0  0  0  0
    1.9678   -2.2711   42.4114 C   0  0  0  0  0  0  0  0  0  0  0  0
    7.1399   -1.4316   44.7431 O   0  0  0  0  0  0  0  0  0  0  0  0
    7.4936   -2.5586   46.5441 N   0  0  0  0  0  0  0  0  0  0  0  0
    5.8242   -4.4706   47.3868 C   0  0  0  0  0  0  0  0  0  0  0  0
    1.0261   -2.3754   41.4347 C   0  0  0  0  0  0  0  0  0  0  0  0
    0.1189   -3.5468   41.4614 C   0  0  0  0  0  0  0  0  0  0  0  0
    2.2389   -3.3785   43.2951 C   0  0  0  0  0  0  0  0  0  0  0  0
    3.3150   -3.3216   44.2621 C   0  0  0  0  0  0  0  0  0  0  0  0
    1.3406   -4.4173   43.3204 C   0  0  0  0  0  0  0  0  0  0  0  0
    3.0554   -4.2318   45.3665 C   0  0  0  0  0  0  0  0  0  0  0  0
    0.3712   -4.5285   42.3933 C   0  0  0  0  0  0  0  0  0  0  0  0
    4.0499   -4.7045   46.2291 C   0  0  0  0  0  0  0  0  0  0  0  0
    8.7814   -1.9817   46.7887 C   0  0  0  0  0  0  0  0  0  0  0  0
    9.7174   -2.3843   46.2825 C   0  0  0  0  0  0  0  0  0  0  0  0
   10.9826   -1.8177   46.3203 C   0  0  0  0  0  0  0  0  0  0  0  0
   12.0334   -2.3353   45.6022 C   0  0  0  0  0  0  0  0  0  0  0  0
    7.0553   -3.4377   47.6240 C   0  0  0  0  0  0  0  0  0  0  0  0
   13.1260   -1.5163   45.2229 C   0  0  0  0  0  0  0  0  0  0  0  0
  1  2  1  0
  1  3  2  0
  2  4  1  0
  4  5  1  0
  6  5  1  1
  6  7  1  0
  7  8  1  6
  3  9  1  0
  4  9  2  0
  7 10  1  0
  2 11  1  0
  8 12  2  0
  8 13  1  0
 10 14  1  1
 11 15  2  0
 15 16  1  0
 11 17  1  0
  6 18  1  0
 17 18  1  0
 17 19  2  0
 18 20  2  0
 16 21  2  0
 19 21  1  0
 10 22  1  0
 20 22  1  0
 13 23  1  0
 23 24  1  0
 24 25  1  0
 25 26  2  3
 13 27  1  0
 14 27  1  0
 26 28  1  0
M  END
$$$$
O14757_Pocket2Mol_idx-in-all-generaetd-615
     RDKit          3D

 32 37  0  0  0  0  0  0  0  0999 V2000
    4.5156    0.0550   42.9895 N   0  0  0  0  0  0  0  0  0  0  0  0
    5.0618   -0.8645   43.5295 C   0  0  0  0  0  0  0  0  0  0  0  0
    4.4350   -2.0604   43.7783 C   0  0  0  0  0  0  0  0  0  0  0  0
    4.9987   -3.0994   44.5839 C   0  0  0  0  0  0  0  0  0  0  0  0
    3.2714   -1.8664   43.0632 C   0  0  0  0  0  0  0  0  0  0  0  0
    6.4064   -0.5942   44.3204 N   0  0  0  0  0  0  0  0  0  0  0  0
    4.3422   -4.3256   44.7203 C   0  0  0  0  0  0  0  0  0  0  0  0
    2.1845   -2.6668   42.8270 N   0  0  0  0  0  0  0  0  0  0  0  0
    3.3305   -0.5395   42.5465 N   0  0  0  0  0  0  0  0  0  0  0  0
    1.9502   -3.8972   43.4076 C   0  0  0  0  0  0  0  0  0  0  0  0
    2.7156   -4.1184   44.6954 N   0  0  0  0  0  0  0  0  0  0  0  0
    6.8581   -1.5862   45.1101 C   0  0  0  0  0  0  0  0  0  0  0  0
    6.1801   -2.8430   45.2383 C   0  0  0  0  0  0  0  0  0  0  0  0
    2.1454   -5.1901   45.5771 C   0  0  0  0  0  0  0  0  0  0  0  0
    8.0137   -1.3946   45.8526 C   0  0  0  0  0  0  0  0  0  0  0  0
    0.9733   -4.5725   43.2066 O   0  0  0  0  0  0  0  0  0  0  0  0
    2.2437    0.0035   41.8733 C   0  0  0  0  0  0  0  0  0  0  0  0
    1.3210   -2.2077   41.7009 C   0  0  0  0  0  0  0  0  0  0  0  0
    8.6047   -2.2876   46.6923 C   0  0  0  0  0  0  0  0  0  0  0  0
    7.9141   -3.5157   46.8869 C   0  0  0  0  0  0  0  0  0  0  0  0
    1.0501   -0.8658   41.6612 C   0  0  0  0  0  0  0  0  0  0  0  0
    6.7278   -3.7718   46.2525 C   0  0  0  0  0  0  0  0  0  0  0  0
    9.8280   -2.0492   47.3361 C   0  0  0  0  0  0  0  0  0  0  0  0
    9.8262   -1.5735   48.5432 C   0  0  0  0  0  0  0  0  0  0  0  0
   11.0745   -2.0905   46.6735 C   0  0  0  0  0  0  0  0  0  0  0  0
   11.1189   -2.5101   45.2315 C   0  0  0  0  0  0  0  0  0  0  0  0
   12.2489   -1.7755   47.2629 C   0  0  0  0  0  0  0  0  0  0  0  0
   11.2018   -3.6539   44.9133 O   0  0  0  0  0  0  0  0  0  0  0  0
   12.2606   -1.4549   48.6300 C   0  0  0  0  0  0  0  0  0  0  0  0
   11.9364   -1.7376   44.3701 O   0  0  0  0  0  0  0  0  0  0  0  0
   13.3899   -1.1832   49.3603 O   0  0  0  0  0  0  0  0  0  0  0  0
   11.0179   -1.3108   49.3334 C   0  0  0  0  0  0  0  0  0  0  0  0
  1  2  2  0
  2  3  1  0
  3  4  1  0
  3  5  2  0
  2  6  1  0
  4  7  1  0
  5  8  1  0
  1  9  1  0
  5  9  1  0
  8 10  1  0
  7 11  1  0
 10 11  1  0
  6 12  2  0
  4 13  2  0
 12 13  1  0
 11 14  1  0
 12 15  1  0
 10 16  2  0
  9 17  1  0
  8 18  1  0
 15 19  2  0
 19 20  1  0
 17 21  1  0
 18 21  1  0
 13 22  1  0
 20 22  2  0
 19 23  1  0
 23 24  2  0
 23 25  1  0
 25 26  1  0
 25 27  2  0
 26 28  1  0
 27 29  1  0
 26 30  2  0
 29 31  1  0
 24 32  1  0
 29 32  2  0
M  END
$$$$
O14757_Pocket2Mol_idx-in-all-generaetd-616
     RDKit          3D

 25 28  0  0  0  0  0  0  0  0999 V2000
    0.3497   -2.5592   41.5321 C   0  0  0  0  0  0  0  0  0  0  0  0
    0.7059   -1.3065   41.4152 C   0  0  0  0  0  0  0  0  0  0  0  0
    2.0121   -0.9206   42.0074 C   0  0  0  0  0  0  0  0  0  0  0  0
    2.8273   -1.8583   42.7096 C   0  0  0  0  0  0  0  0  0  0  0  0
   -0.9158   -2.9896   41.0259 O   0  0  0  0  0  0  0  0  0  0  0  0
    2.1785   -3.2182   42.8202 C   0  0  0  0  0  0  0  0  0  0  0  0
    2.9957   -4.0364   43.6549 N   0  0  0  0  0  0  0  0  0  0  0  0
    1.0381   -3.5102   42.3147 C   0  0  0  0  0  0  0  0  0  0  0  0
    4.0501   -1.4436   43.3296 C   0  0  0  0  0  0  0  0  0  0  0  0
    4.2345   -3.7127   44.1966 C   0  0  0  0  0  0  0  0  0  0  0  0
    4.9099   -4.6363   45.0387 N   0  0  0  0  0  0  0  0  0  0  0  0
    4.7563   -2.4299   44.0678 C   0  0  0  0  0  0  0  0  0  0  0  0
    6.0306   -2.0532   44.6670 C   0  0  0  0  0  0  0  0  0  0  0  0
    4.6111   -0.1656   43.0716 N   0  0  0  0  0  0  0  0  0  0  0  0
    6.7834   -2.7598   45.5925 N   0  0  0  0  0  0  0  0  0  0  0  0
    8.0062   -2.3962   46.0654 C   0  0  1  0  0  0  0  0  0  0  0  0
    8.3845   -1.1262   46.4117 C   0  0  0  0  0  0  0  0  0  0  0  0
    6.3026   -0.6817   44.5619 N   0  0  0  0  0  0  0  0  0  0  0  0
    9.7158   -1.1202   46.5501 C   0  0  0  0  0  0  0  0  0  0  0  0
    8.4022   -3.1552   47.2051 C   0  0  0  0  0  0  0  0  0  0  0  0
   -2.1369   -2.6089   41.5214 C   0  0  0  0  0  0  0  0  0  0  0  0
    5.6395    0.1202   43.6932 C   0  0  0  0  0  0  0  0  0  0  0  0
    9.9089   -3.0834   47.3662 C   0  0  2  0  0  0  0  0  0  0  0  0
   10.4176   -4.0201   48.2719 O   0  0  0  0  0  0  0  0  0  0  0  0
   10.2184   -1.7275   47.7419 C   0  0  0  0  0  0  0  0  0  0  0  0
  1  2  2  0
  2  3  1  0
  3  4  2  0
  1  5  1  0
  4  6  1  0
  6  7  1  0
  1  8  1  0
  6  8  2  0
  4  9  1  0
  7 10  2  0
 10 11  1  0
  9 12  2  0
 10 12  1  0
 12 13  1  0
  9 14  1  0
 13 15  1  0
 16 15  1  1
 16 17  1  0
 13 18  2  0
 17 19  1  0
 16 20  1  0
  5 21  1  0
 14 22  2  0
 18 22  1  0
 20 23  1  0
 23 24  1  1
 19 25  1  0
 23 25  1  0
M  END
$$$$
O14757_Pocket2Mol_idx-in-all-generaetd-617
     RDKit          3D

 47 54  0  0  0  0  0  0  0  0999 V2000
    5.3420    0.2589   42.8836 O   0  0  0  0  0  0  0  0  0  0  0  0
    5.1627   -0.7554   43.4753 C   0  0  0  0  0  0  0  0  0  0  0  0
    4.0509   -1.4657   43.4177 N   0  0  0  0  0  0  0  0  0  0  0  0
    5.9969   -1.2317   44.6840 C   0  0  0  0  0  0  0  0  0  0  0  0
    2.9618   -1.1021   42.5918 C   0  0  1  0  0  0  0  0  0  0  0  0
    7.3392   -0.8596   44.8412 C   0  0  0  0  0  0  0  0  0  0  0  0
    1.9754   -2.0820   42.2741 C   0  0  0  0  0  0  0  0  0  0  0  0
    5.5910   -2.4282   45.3439 C   0  0  0  0  0  0  0  0  0  0  0  0
    6.5874   -2.9636   46.1581 C   0  0  0  0  0  0  0  0  0  0  0  0
    4.2763   -3.0680   45.0493 N   0  0  0  0  0  0  0  0  0  0  0  0
    3.6188   -2.5886   44.2024 C   0  0  0  0  0  0  0  0  0  0  0  0
    8.1921   -1.4071   45.7505 C   0  0  0  0  0  0  0  0  0  0  0  0
    1.0154   -1.8839   41.2980 C   0  0  0  0  0  0  0  0  0  0  0  0
    2.5720   -3.3564   43.9063 C   0  0  0  0  0  0  0  0  0  0  0  0
    0.2502   -2.8976   41.0751 C   0  0  0  0  0  0  0  0  0  0  0  0
    6.1761   -4.1775   47.0209 C   0  0  0  0  0  0  0  0  0  0  0  0
    1.7266   -3.1047   43.0115 C   0  0  2  0  0  0  0  0  0  0  0  0
    2.3696   -4.5367   44.7536 N   0  0  0  0  0  0  0  0  0  0  0  0
    1.2264   -5.2346   44.4693 C   0  0  0  0  0  0  0  0  0  0  0  0
    0.7187   -3.8955   42.5465 C   0  0  0  0  0  0  0  0  0  0  0  0
    9.4576   -0.8949   46.0327 N   0  0  0  0  0  0  0  0  0  0  0  0
    0.8625   -6.3901   45.2462 C   0  0  0  0  0  0  0  0  0  0  0  0
    7.6467   -2.5139   46.4892 C   0  0  0  0  0  0  0  0  0  0  0  0
   10.4908   -1.5336   45.8242 C   0  0  0  0  0  0  0  0  0  0  0  0
    0.3057   -4.9299   43.2909 C   0  0  0  0  0  0  0  0  0  0  0  0
   11.5916   -1.4291   46.7436 C   0  0  0  0  0  0  0  0  0  0  0  0
   10.5566   -2.3672   44.8649 O   0  0  0  0  0  0  0  0  0  0  0  0
   12.8421   -1.9355   46.2823 C   0  0  0  0  0  0  0  0  0  0  0  0
   13.4833   -2.8582   46.9841 C   0  0  0  0  0  0  0  0  0  0  0  0
   11.4002   -1.1447   48.0540 C   0  0  0  0  0  0  0  0  0  0  0  0
   10.2867   -0.4569   48.4999 O   0  0  0  0  0  0  0  0  0  0  0  0
   12.3327   -1.4798   48.9564 C   0  0  1  0  0  0  0  0  0  0  0  0
   14.7901   -3.3162   46.6439 C   0  0  0  0  0  0  0  0  0  0  0  0
   12.1651   -1.3050   50.3239 O   0  0  0  0  0  0  0  0  0  0  0  0
   15.6765   -2.5740   46.0979 C   0  0  0  0  0  0  0  0  0  0  0  0
    2.4608    0.2106   42.8512 C   0  0  0  0  0  0  0  0  0  0  0  0
   15.5213   -1.2590   45.7606 C   0  0  0  0  0  0  0  0  0  0  0  0
   14.5349   -0.8899   44.8574 C   0  0  0  0  0  0  0  0  0  0  0  0
   12.9775   -3.3460   48.2127 C   0  0  0  0  0  0  0  0  0  0  0  0
   14.7129   -0.1943   43.8652 C   0  0  0  0  0  0  0  0  0  0  0  0
   13.1163   -1.3789   45.0490 O   0  0  0  0  0  0  0  0  0  0  0  0
   12.7443   -2.7596   49.2688 C   0  0  0  0  0  0  0  0  0  0  0  0
   16.7753   -0.6612   45.4305 C   0  0  0  0  0  0  0  0  0  0  0  0
   15.7546    0.6658   43.7223 C   0  0  0  0  0  0  0  0  0  0  0  0
   15.8922    1.6023   42.5717 O   0  0  0  0  0  0  0  0  0  0  0  0
   16.9060    0.3612   44.4373 C   0  0  0  0  0  0  0  0  0  0  0  0
   14.6923    2.2963   42.3419 C   0  0  0  0  0  0  0  0  0  0  0  0
  1  2  2  0
  2  3  1  0
  2  4  1  0
  3  5  1  0
  4  6  2  0
  5  7  1  0
  4  8  1  0
  8  9  2  0
  8 10  1  0
  3 11  1  0
 10 11  2  0
  6 12  1  0
  7 13  2  0
 11 14  1  0
 13 15  1  0
  9 16  1  0
 17  7  1  6
 14 17  1  0
 14 18  2  0
 18 19  1  0
 15 20  2  0
 17 20  1  0
 12 21  1  0
 19 22  1  0
  9 23  1  0
 12 23  2  0
 21 24  1  0
 19 25  2  0
 20 25  1  0
 24 26  1  0
 24 27  2  0
 26 28  1  0
 28 29  2  0
 26 30  2  0
 30 31  1  0
 30 32  1  0
 29 33  1  0
 32 34  1  1
 33 35  2  0
  5 36  1  1
 35 37  1  0
 37 38  2  0
 29 39  1  0
 38 40  1  0
 28 41  1  0
 38 41  1  0
 32 42  1  0
 39 42  1  0
 37 43  1  0
 40 44  2  0
 44 45  1  0
 43 46  2  0
 44 46  1  0
 45 47  1  0
M  END
$$$$
O14757_Pocket2Mol_idx-in-all-generaetd-618
     RDKit          3D

 41 48  0  0  0  0  0  0  0  0999 V2000
    4.8037   -0.1366   42.7100 N   0  0  0  0  0  0  0  0  0  0  0  0
    3.6577   -0.7759   42.7186 C   0  0  0  0  0  0  0  0  0  0  0  0
    3.6660   -1.8665   43.4760 C   0  0  0  0  0  0  0  0  0  0  0  0
    2.7271   -2.8718   43.6599 C   0  0  0  0  0  0  0  0  0  0  0  0
    2.4846   -0.2994   42.1254 N   0  0  0  0  0  0  0  0  0  0  0  0
    5.0524   -1.7697   43.9367 C   0  0  0  0  0  0  0  0  0  0  0  0
    1.4917   -2.9000   43.0914 C   0  0  0  0  0  0  0  0  0  0  0  0
    3.1274   -3.9503   44.5163 C   0  0  0  0  0  0  0  0  0  0  0  0
    1.0744   -1.9066   42.1491 C   0  0  2  0  0  0  0  0  0  0  0  0
    5.6624   -0.7003   43.4895 C   0  0  0  0  0  0  0  0  0  0  0  0
    5.5753   -2.5784   45.0324 C   0  0  0  0  0  0  0  0  0  0  0  0
    0.4030   -3.6297   43.4883 N   0  0  0  0  0  0  0  0  0  0  0  0
    1.5052   -0.8077   41.7519 C   0  0  0  0  0  0  0  0  0  0  0  0
   -0.5645   -3.4039   42.5585 N   0  0  0  0  0  0  0  0  0  0  0  0
    2.5059   -5.1012   44.7935 C   0  0  0  0  0  0  0  0  0  0  0  0
    4.4581   -3.8218   45.2947 C   0  0  0  0  0  0  0  0  0  0  0  0
   -0.3089   -2.3979   41.8128 C   0  0  0  0  0  0  0  0  0  0  0  0
    6.6435   -2.6577   45.6991 C   0  0  0  0  0  0  0  0  0  0  0  0
    7.0869   -3.7008   46.4717 C   0  0  0  0  0  0  0  0  0  0  0  0
    7.5912   -1.5296   45.5455 C   0  0  0  0  0  0  0  0  0  0  0  0
    8.7765   -1.4352   46.2248 C   0  0  0  0  0  0  0  0  0  0  0  0
    6.3069   -4.7944   46.6836 O   0  0  0  0  0  0  0  0  0  0  0  0
    4.8984   -4.5252   46.1302 C   0  0  0  0  0  0  0  0  0  0  0  0
    4.2122   -5.9932   46.2216 C   0  0  0  0  0  0  0  0  0  0  0  0
    8.3395   -3.6608   47.2172 C   0  0  0  0  0  0  0  0  0  0  0  0
    4.6690   -6.8778   47.1549 O   0  0  0  0  0  0  0  0  0  0  0  0
    9.1822   -2.5745   47.1243 C   0  0  0  0  0  0  0  0  0  0  0  0
   10.4419   -2.3733   47.8332 C   0  0  0  0  0  0  0  0  0  0  0  0
   10.5277   -1.5655   48.7043 O   0  0  0  0  0  0  0  0  0  0  0  0
    2.9373   -6.0805   45.7037 C   0  0  0  0  0  0  0  0  0  0  0  0
   11.4886   -2.8791   47.1590 O   0  0  0  0  0  0  0  0  0  0  0  0
   12.5752   -2.3359   47.1530 C   0  0  1  0  0  0  0  0  0  0  0  0
   13.6119   -3.1431   47.5861 C   0  0  0  0  0  0  0  0  0  0  0  0
   14.6644   -3.4220   46.7962 C   0  0  0  0  0  0  0  0  0  0  0  0
   12.9389   -1.8552   45.7477 C   0  0  0  0  0  0  0  0  0  0  0  0
   14.1411   -1.8765   45.1799 C   0  0  0  0  0  0  0  0  0  0  0  0
   14.3971   -1.2248   44.0264 C   0  0  0  0  0  0  0  0  0  0  0  0
   15.7323   -4.3946   47.3537 C   0  0  0  0  0  0  0  0  0  0  0  0
   15.6185   -0.9695   43.6863 O   0  0  0  0  0  0  0  0  0  0  0  0
   14.9621   -2.8107   45.6259 N   0  0  0  0  0  0  0  0  0  0  0  0
   13.5294   -0.5965   43.4647 O   0  0  0  0  0  0  0  0  0  0  0  0
  1  2  2  0
  2  3  1  0
  3  4  2  0
  2  5  1  0
  3  6  1  0
  4  7  1  0
  4  8  1  0
  7  9  1  0
  1 10  1  0
  6 10  1  0
  6 11  2  0
  7 12  2  0
  5 13  2  0
  9 13  1  1
 12 14  1  0
  8 15  2  0
  8 16  1  0
 11 16  1  0
  9 17  1  0
 14 17  2  0
 11 18  1  0
 18 19  2  0
 18 20  1  0
 20 21  2  0
 19 22  1  0
 16 23  2  0
 22 23  1  0
 23 24  1  0
 19 25  1  0
 24 26  1  0
 21 27  1  0
 25 27  2  0
 27 28  1  0
 28 29  2  0
 15 30  1  0
 24 30  2  0
 28 31  1  0
 32 31  1  6
 32 33  1  0
 33 34  2  0
 32 35  1  0
 35 36  1  0
 36 37  1  0
 34 38  1  0
 37 39  1  0
 34 40  1  0
 36 40  2  0
 37 41  2  0
M  END
$$$$
O14757_Pocket2Mol_idx-in-all-generaetd-619
     RDKit          3D

 39 45  0  0  0  0  0  0  0  0999 V2000
    5.3420    0.2589   42.8836 O   0  0  0  0  0  0  0  0  0  0  0  0
    5.1627   -0.7554   43.4753 C   0  0  0  0  0  0  0  0  0  0  0  0
    4.0509   -1.4657   43.4177 N   0  0  0  0  0  0  0  0  0  0  0  0
    5.9969   -1.2317   44.6840 C   0  0  0  0  0  0  0  0  0  0  0  0
    2.9618   -1.1021   42.5918 C   0  0  0  0  0  0  0  0  0  0  0  0
    7.3392   -0.8596   44.8412 C   0  0  0  0  0  0  0  0  0  0  0  0
    1.9754   -2.0820   42.2741 C   0  0  0  0  0  0  0  0  0  0  0  0
    5.5910   -2.4282   45.3439 C   0  0  0  0  0  0  0  0  0  0  0  0
    6.5874   -2.9636   46.1581 C   0  0  0  0  0  0  0  0  0  0  0  0
    4.2763   -3.0680   45.0493 N   0  0  0  0  0  0  0  0  0  0  0  0
    3.6188   -2.5886   44.2024 C   0  0  0  0  0  0  0  0  0  0  0  0
    8.1921   -1.4071   45.7505 C   0  0  0  0  0  0  0  0  0  0  0  0
    1.0154   -1.8839   41.2980 C   0  0  0  0  0  0  0  0  0  0  0  0
    2.5720   -3.3564   43.9063 C   0  0  0  0  0  0  0  0  0  0  0  0
    0.2502   -2.8976   41.0751 C   0  0  0  0  0  0  0  0  0  0  0  0
    6.1761   -4.1775   47.0209 C   0  0  0  0  0  0  0  0  0  0  0  0
    1.7266   -3.1047   43.0115 C   0  0  2  0  0  0  0  0  0  0  0  0
    2.3696   -4.5367   44.7536 N   0  0  0  0  0  0  0  0  0  0  0  0
    1.2264   -5.2346   44.4693 C   0  0  0  0  0  0  0  0  0  0  0  0
    0.7187   -3.8955   42.5465 C   0  0  0  0  0  0  0  0  0  0  0  0
    9.4576   -0.8949   46.0327 N   0  0  0  0  0  0  0  0  0  0  0  0
    0.8625   -6.3901   45.2462 C   0  0  0  0  0  0  0  0  0  0  0  0
    7.6467   -2.5139   46.4892 C   0  0  0  0  0  0  0  0  0  0  0  0
   10.4908   -1.5336   45.8242 C   0  0  0  0  0  0  0  0  0  0  0  0
    0.3057   -4.9299   43.2909 C   0  0  0  0  0  0  0  0  0  0  0  0
   11.5916   -1.4291   46.7436 C   0  0  0  0  0  0  0  0  0  0  0  0
   10.5566   -2.3672   44.8649 O   0  0  0  0  0  0  0  0  0  0  0  0
   11.6051   -2.2111   47.7709 N   0  0  0  0  0  0  0  0  0  0  0  0
   12.6215   -0.5876   46.5424 C   0  0  0  0  0  0  0  0  0  0  0  0
   12.5420   -2.0938   48.7186 C   0  0  0  0  0  0  0  0  0  0  0  0
    3.0270    0.0702   42.0603 O   0  0  0  0  0  0  0  0  0  0  0  0
   12.6957    0.2513   45.2919 C   0  0  0  0  0  0  0  0  0  0  0  0
   13.6707   -0.5939   47.5160 C   0  0  0  0  0  0  0  0  0  0  0  0
   12.5041   -3.0819   49.9184 C   0  0  0  0  0  0  0  0  0  0  0  0
   14.8478    0.3178   47.2649 C   0  0  0  0  0  0  0  0  0  0  0  0
   13.6623   -1.3750   48.5807 C   0  0  0  0  0  0  0  0  0  0  0  0
   13.7946    1.2197   45.3700 C   0  0  0  0  0  0  0  0  0  0  0  0
   15.8893    0.3763   48.2025 O   0  0  0  0  0  0  0  0  0  0  0  0
   14.8180    1.2050   46.2076 C   0  0  0  0  0  0  0  0  0  0  0  0
  1  2  2  0
  2  3  1  0
  2  4  1  0
  3  5  1  0
  4  6  2  0
  5  7  1  0
  4  8  1  0
  8  9  2  0
  8 10  1  0
  3 11  1  0
 10 11  2  0
  6 12  1  0
  7 13  2  0
 11 14  1  0
 13 15  1  0
  9 16  1  0
 17  7  1  6
 14 17  1  0
 14 18  2  0
 18 19  1  0
 15 20  2  0
 17 20  1  0
 12 21  1  0
 19 22  1  0
  9 23  1  0
 12 23  2  0
 21 24  1  0
 19 25  2  0
 20 25  1  0
 24 26  1  0
 24 27  2  0
 26 28  2  0
 26 29  1  0
 28 30  1  0
  5 31  2  0
 29 32  2  0
 29 33  1  0
 30 34  1  0
 33 35  2  0
 30 36  2  0
 33 36  1  0
 32 37  1  0
 35 38  1  0
 35 39  1  0
 37 39  2  0
M  END
$$$$
O14757_Pocket2Mol_idx-in-all-generaetd-620
     RDKit          3D

 24 27  0  0  0  0  0  0  0  0999 V2000
    3.7044    0.1389   42.5158 N   0  0  0  0  0  0  0  0  0  0  0  0
    3.0206   -1.0018   42.4929 C   0  0  0  0  0  0  0  0  0  0  0  0
    3.4791   -2.0817   43.2077 C   0  0  0  0  0  0  0  0  0  0  0  0
    4.8540    0.3862   43.0582 N   0  0  0  0  0  0  0  0  0  0  0  0
    5.1377   -0.9552   43.7144 C   0  0  0  0  0  0  0  0  0  0  0  0
    1.5846   -1.0753   41.7644 C   0  0  0  0  0  0  0  0  0  0  0  0
    2.6127   -3.2469   43.2056 C   0  0  0  0  0  0  0  0  0  0  0  0
    4.6372   -2.0125   43.8200 C   0  0  0  0  0  0  0  0  0  0  0  0
    2.9973   -4.3132   44.0699 C   0  0  0  0  0  0  0  0  0  0  0  0
    5.2490   -3.1260   44.5377 C   0  0  0  0  0  0  0  0  0  0  0  0
    2.3220   -5.3356   44.3123 O   0  0  0  0  0  0  0  0  0  0  0  0
    1.3893   -3.2604   42.5359 C   0  0  0  0  0  0  0  0  0  0  0  0
    0.9530   -2.1738   41.8390 C   0  0  0  0  0  0  0  0  0  0  0  0
    6.3785   -3.0087   45.3464 C   0  0  0  0  0  0  0  0  0  0  0  0
    4.2965   -4.1585   44.8143 C   0  0  0  0  0  0  0  0  0  0  0  0
    6.7994   -3.9001   46.1713 C   0  0  0  0  0  0  0  0  0  0  0  0
    7.2541   -1.9116   45.0500 C   0  0  0  0  0  0  0  0  0  0  0  0
    8.4347   -1.7504   45.7118 C   0  0  0  0  0  0  0  0  0  0  0  0
    8.8676   -2.6745   46.5985 C   0  0  0  0  0  0  0  0  0  0  0  0
    7.9901   -3.7784   46.8970 C   0  0  0  0  0  0  0  0  0  0  0  0
   10.0573   -2.5432   47.3324 C   0  0  0  0  0  0  0  0  0  0  0  0
   10.2777   -1.7231   48.2287 O   0  0  0  0  0  0  0  0  0  0  0  0
   11.0982   -3.3151   46.9139 O   0  0  0  0  0  0  0  0  0  0  0  0
   11.3398   -1.7174   49.0144 C   0  0  0  0  0  0  0  0  0  0  0  0
  1  2  2  0
  2  3  1  0
  1  4  1  0
  4  5  2  0
  2  6  1  0
  3  7  1  0
  3  8  2  0
  5  8  1  0
  7  9  1  0
  8 10  1  0
  9 11  2  0
  7 12  2  0
  6 13  2  0
 12 13  1  0
 10 14  1  0
  9 15  1  0
 10 15  2  0
 14 16  2  0
 14 17  1  0
 17 18  2  0
 18 19  1  0
 16 20  1  0
 19 20  2  0
 19 21  1  0
 21 22  1  0
 21 23  2  0
 22 24  1  0
M  END
$$$$
O14757_Pocket2Mol_idx-in-all-generaetd-621
     RDKit          3D

 33 38  0  0  0  0  0  0  0  0999 V2000
    5.3420    0.2589   42.8836 O   0  0  0  0  0  0  0  0  0  0  0  0
    5.1627   -0.7554   43.4753 C   0  0  0  0  0  0  0  0  0  0  0  0
    4.0509   -1.4657   43.4177 N   0  0  0  0  0  0  0  0  0  0  0  0
    5.9969   -1.2317   44.6840 C   0  0  0  0  0  0  0  0  0  0  0  0
    2.9618   -1.1021   42.5918 C   0  0  0  0  0  0  0  0  0  0  0  0
    7.3392   -0.8596   44.8412 C   0  0  0  0  0  0  0  0  0  0  0  0
    1.9754   -2.0820   42.2741 C   0  0  0  0  0  0  0  0  0  0  0  0
    5.5910   -2.4282   45.3439 C   0  0  0  0  0  0  0  0  0  0  0  0
    6.5874   -2.9636   46.1581 C   0  0  0  0  0  0  0  0  0  0  0  0
    4.2763   -3.0680   45.0493 N   0  0  0  0  0  0  0  0  0  0  0  0
    3.6188   -2.5886   44.2024 C   0  0  0  0  0  0  0  0  0  0  0  0
    8.1921   -1.4071   45.7505 C   0  0  0  0  0  0  0  0  0  0  0  0
    1.0154   -1.8839   41.2980 C   0  0  0  0  0  0  0  0  0  0  0  0
    2.5720   -3.3564   43.9063 C   0  0  0  0  0  0  0  0  0  0  0  0
    0.2502   -2.8976   41.0751 C   0  0  0  0  0  0  0  0  0  0  0  0
    6.1761   -4.1775   47.0209 C   0  0  0  0  0  0  0  0  0  0  0  0
    1.7266   -3.1047   43.0115 C   0  0  2  0  0  0  0  0  0  0  0  0
    2.3696   -4.5367   44.7536 N   0  0  0  0  0  0  0  0  0  0  0  0
    1.2264   -5.2346   44.4693 C   0  0  0  0  0  0  0  0  0  0  0  0
    0.7187   -3.8955   42.5465 C   0  0  0  0  0  0  0  0  0  0  0  0
    9.4576   -0.8949   46.0327 N   0  0  0  0  0  0  0  0  0  0  0  0
    0.8625   -6.3901   45.2462 C   0  0  0  0  0  0  0  0  0  0  0  0
    7.6467   -2.5139   46.4892 C   0  0  0  0  0  0  0  0  0  0  0  0
   10.4908   -1.5336   45.8242 C   0  0  0  0  0  0  0  0  0  0  0  0
    0.3057   -4.9299   43.2909 C   0  0  0  0  0  0  0  0  0  0  0  0
   11.5916   -1.4291   46.7436 C   0  0  0  0  0  0  0  0  0  0  0  0
   10.5566   -2.3672   44.8649 O   0  0  0  0  0  0  0  0  0  0  0  0
   11.6051   -2.2111   47.7709 N   0  0  0  0  0  0  0  0  0  0  0  0
   11.2436   -1.7478   49.0308 C   0  0  0  0  0  0  0  0  0  0  0  0
   10.8263   -3.4863   47.5698 C   0  0  0  0  0  0  0  0  0  0  0  0
    3.0307    0.0714   42.0603 O   0  0  0  0  0  0  0  0  0  0  0  0
   10.2288   -3.8493   48.9317 C   0  0  0  0  0  0  0  0  0  0  0  0
   10.1804   -2.7981   49.6820 C   0  0  0  0  0  0  0  0  0  0  0  0
  1  2  2  0
  2  3  1  0
  2  4  1  0
  3  5  1  0
  4  6  2  0
  5  7  1  0
  4  8  1  0
  8  9  2  0
  8 10  1  0
  3 11  1  0
 10 11  2  0
  6 12  1  0
  7 13  2  0
 11 14  1  0
 13 15  1  0
  9 16  1  0
 17  7  1  6
 14 17  1  0
 14 18  2  0
 18 19  1  0
 15 20  2  0
 17 20  1  0
 12 21  1  0
 19 22  1  0
  9 23  1  0
 12 23  2  0
 21 24  1  0
 19 25  2  0
 20 25  1  0
 24 26  1  0
 24 27  2  0
 26 28  1  0
 28 29  1  0
 28 30  1  0
  5 31  2  0
 30 32  1  0
 29 33  1  0
 32 33  1  0
M  END
$$$$
O14757_Pocket2Mol_idx-in-all-generaetd-622
     RDKit          3D

 46 52  0  0  0  0  0  0  0  0999 V2000
    5.3420    0.2589   42.8836 O   0  0  0  0  0  0  0  0  0  0  0  0
    5.1627   -0.7554   43.4753 C   0  0  0  0  0  0  0  0  0  0  0  0
    4.0509   -1.4657   43.4177 N   0  0  0  0  0  0  0  0  0  0  0  0
    5.9969   -1.2317   44.6840 C   0  0  0  0  0  0  0  0  0  0  0  0
    2.9618   -1.1021   42.5918 C   0  0  1  0  0  0  0  0  0  0  0  0
    7.3392   -0.8596   44.8412 C   0  0  0  0  0  0  0  0  0  0  0  0
    1.9754   -2.0820   42.2741 C   0  0  0  0  0  0  0  0  0  0  0  0
    5.5910   -2.4282   45.3439 C   0  0  0  0  0  0  0  0  0  0  0  0
    6.5874   -2.9636   46.1581 C   0  0  0  0  0  0  0  0  0  0  0  0
    4.2763   -3.0680   45.0493 N   0  0  0  0  0  0  0  0  0  0  0  0
    3.6188   -2.5886   44.2024 C   0  0  0  0  0  0  0  0  0  0  0  0
    8.1921   -1.4071   45.7505 C   0  0  0  0  0  0  0  0  0  0  0  0
    1.0154   -1.8839   41.2980 C   0  0  0  0  0  0  0  0  0  0  0  0
    2.5720   -3.3564   43.9063 C   0  0  0  0  0  0  0  0  0  0  0  0
    0.2502   -2.8976   41.0751 C   0  0  0  0  0  0  0  0  0  0  0  0
    6.1761   -4.1775   47.0209 C   0  0  0  0  0  0  0  0  0  0  0  0
    1.7266   -3.1047   43.0115 C   0  0  2  0  0  0  0  0  0  0  0  0
    2.3696   -4.5367   44.7536 N   0  0  0  0  0  0  0  0  0  0  0  0
    1.2264   -5.2346   44.4693 C   0  0  0  0  0  0  0  0  0  0  0  0
    0.7187   -3.8955   42.5465 C   0  0  0  0  0  0  0  0  0  0  0  0
    9.4576   -0.8949   46.0327 N   0  0  0  0  0  0  0  0  0  0  0  0
    0.8625   -6.3901   45.2462 C   0  0  0  0  0  0  0  0  0  0  0  0
    7.6467   -2.5139   46.4892 C   0  0  0  0  0  0  0  0  0  0  0  0
   10.4908   -1.5336   45.8242 C   0  0  0  0  0  0  0  0  0  0  0  0
    0.3057   -4.9299   43.2909 C   0  0  0  0  0  0  0  0  0  0  0  0
   11.5916   -1.4291   46.7436 C   0  0  0  0  0  0  0  0  0  0  0  0
   10.5566   -2.3672   44.8649 O   0  0  0  0  0  0  0  0  0  0  0  0
    2.4730    0.2084   42.8389 O   0  0  0  0  0  0  0  0  0  0  0  0
   11.6027   -2.2081   47.7725 N   0  0  0  0  0  0  0  0  0  0  0  0
   12.6189   -0.5862   46.5415 C   0  0  0  0  0  0  0  0  0  0  0  0
   13.6413   -0.4484   47.4129 C   0  0  0  0  0  0  0  0  0  0  0  0
   10.4764   -3.1097   48.1134 C   0  0  0  0  0  0  0  0  0  0  0  0
    9.5762   -2.4717   49.0753 C   0  0  0  0  0  0  0  0  0  0  0  0
    9.7761   -1.2394   49.5167 C   0  0  0  0  0  0  0  0  0  0  0  0
    8.6397   -3.3252   49.7339 C   0  0  0  0  0  0  0  0  0  0  0  0
    8.9861   -0.7034   50.5819 C   0  0  0  0  0  0  0  0  0  0  0  0
   14.7137    0.5128   47.0925 C   0  0  0  0  0  0  0  0  0  0  0  0
    8.1815   -1.5423   51.2387 C   0  0  0  0  0  0  0  0  0  0  0  0
    8.4156   -4.7176   49.2102 O   0  0  0  0  0  0  0  0  0  0  0  0
    7.9436   -2.8856   50.8102 C   0  0  0  0  0  0  0  0  0  0  0  0
   12.6675   -2.1100   48.6466 C   0  0  0  0  0  0  0  0  0  0  0  0
    8.1466   -5.6065   49.9515 C   0  0  0  0  0  0  0  0  0  0  0  0
   14.7153    1.1568   46.1906 O   0  0  0  0  0  0  0  0  0  0  0  0
   15.7667    0.3360   47.7219 O   0  0  0  0  0  0  0  0  0  0  0  0
   12.7047   -3.0084   49.7532 O   0  0  0  0  0  0  0  0  0  0  0  0
   13.7031   -1.1902   48.4059 C   0  0  0  0  0  0  0  0  0  0  0  0
  1  2  2  0
  2  3  1  0
  2  4  1  0
  3  5  1  0
  4  6  2  0
  5  7  1  0
  4  8  1  0
  8  9  2  0
  8 10  1  0
  3 11  1  0
 10 11  2  0
  6 12  1  0
  7 13  2  0
 11 14  1  0
 13 15  1  0
  9 16  1  0
 17  7  1  6
 14 17  1  0
 14 18  2  0
 18 19  1  0
 15 20  2  0
 17 20  1  0
 12 21  1  0
 19 22  1  0
  9 23  1  0
 12 23  2  0
 21 24  1  0
 19 25  2  0
 20 25  1  0
 24 26  1  0
 24 27  2  0
  5 28  1  1
 26 29  1  0
 26 30  2  0
 30 31  1  0
 29 32  1  0
 32 33  1  0
 33 34  2  0
 33 35  1  0
 34 36  1  0
 31 37  1  0
 36 38  2  0
 35 39  1  0
 35 40  2  0
 38 40  1  0
 29 41  1  0
 39 42  1  0
 37 43  2  0
 37 44  1  0
 41 45  2  0
 31 46  2  0
 41 46  1  0
M  END
$$$$
O14757_Pocket2Mol_idx-in-all-generaetd-623
     RDKit          3D

 35 40  0  0  0  0  0  0  0  0999 V2000
    4.5156    0.0550   42.9895 N   0  0  0  0  0  0  0  0  0  0  0  0
    5.0618   -0.8645   43.5295 C   0  0  0  0  0  0  0  0  0  0  0  0
    4.4350   -2.0604   43.7783 C   0  0  0  0  0  0  0  0  0  0  0  0
    4.9987   -3.0994   44.5839 C   0  0  0  0  0  0  0  0  0  0  0  0
    3.2714   -1.8664   43.0632 C   0  0  0  0  0  0  0  0  0  0  0  0
    6.4064   -0.5942   44.3204 N   0  0  0  0  0  0  0  0  0  0  0  0
    4.3422   -4.3256   44.7203 C   0  0  0  0  0  0  0  0  0  0  0  0
    2.1845   -2.6668   42.8270 N   0  0  0  0  0  0  0  0  0  0  0  0
    3.3305   -0.5395   42.5465 N   0  0  0  0  0  0  0  0  0  0  0  0
    1.9502   -3.8972   43.4076 C   0  0  0  0  0  0  0  0  0  0  0  0
    2.7156   -4.1184   44.6954 N   0  0  0  0  0  0  0  0  0  0  0  0
    6.8581   -1.5862   45.1101 C   0  0  0  0  0  0  0  0  0  0  0  0
    6.1801   -2.8430   45.2383 C   0  0  0  0  0  0  0  0  0  0  0  0
    2.1454   -5.1901   45.5771 C   0  0  0  0  0  0  0  0  0  0  0  0
    8.0137   -1.3946   45.8526 C   0  0  0  0  0  0  0  0  0  0  0  0
    0.9733   -4.5725   43.2066 O   0  0  0  0  0  0  0  0  0  0  0  0
    2.2437    0.0035   41.8733 C   0  0  0  0  0  0  0  0  0  0  0  0
    1.3210   -2.2077   41.7009 C   0  0  0  0  0  0  0  0  0  0  0  0
    8.6047   -2.2876   46.6923 C   0  0  0  0  0  0  0  0  0  0  0  0
    7.9141   -3.5157   46.8869 C   0  0  0  0  0  0  0  0  0  0  0  0
    1.0501   -0.8658   41.6612 C   0  0  0  0  0  0  0  0  0  0  0  0
    6.7278   -3.7718   46.2525 C   0  0  0  0  0  0  0  0  0  0  0  0
    9.8280   -2.0492   47.3361 C   0  0  0  0  0  0  0  0  0  0  0  0
    9.8262   -1.5735   48.5432 C   0  0  0  0  0  0  0  0  0  0  0  0
   11.0745   -2.0905   46.6735 C   0  0  0  0  0  0  0  0  0  0  0  0
   11.1189   -2.5101   45.2315 C   0  0  0  0  0  0  0  0  0  0  0  0
    8.6548   -1.3952   49.4178 O   0  0  0  0  0  0  0  0  0  0  0  0
   12.2483   -1.7792   47.2003 C   0  0  0  0  0  0  0  0  0  0  0  0
   11.0576   -1.2774   49.2428 C   0  0  0  0  0  0  0  0  0  0  0  0
   11.5052   -1.6078   44.3227 O   0  0  0  0  0  0  0  0  0  0  0  0
   10.9493   -3.6982   44.9005 O   0  0  0  0  0  0  0  0  0  0  0  0
   13.5057   -1.8952   46.5329 C   0  0  0  0  0  0  0  0  0  0  0  0
   14.3410   -2.8441   46.8624 O   0  0  0  0  0  0  0  0  0  0  0  0
   12.2465   -1.3887   48.5782 C   0  0  0  0  0  0  0  0  0  0  0  0
   13.9870   -0.8809   45.8863 O   0  0  0  0  0  0  0  0  0  0  0  0
  1  2  2  0
  2  3  1  0
  3  4  1  0
  3  5  2  0
  2  6  1  0
  4  7  1  0
  5  8  1  0
  1  9  1  0
  5  9  1  0
  8 10  1  0
  7 11  1  0
 10 11  1  0
  6 12  2  0
  4 13  2  0
 12 13  1  0
 11 14  1  0
 12 15  1  0
 10 16  2  0
  9 17  1  0
  8 18  1  0
 15 19  2  0
 19 20  1  0
 17 21  1  0
 18 21  1  0
 13 22  1  0
 20 22  2  0
 19 23  1  0
 23 24  2  0
 23 25  1  0
 25 26  1  0
 24 27  1  0
 25 28  2  0
 24 29  1  0
 26 30  2  0
 26 31  1  0
 28 32  1  0
 32 33  2  0
 28 34  1  0
 29 34  2  0
 32 35  1  0
M  END
$$$$
O14757_Pocket2Mol_idx-in-all-generaetd-624
     RDKit          3D

 41 48  0  0  0  0  0  0  0  0999 V2000
    4.8173    0.2791   42.6993 N   0  0  0  0  0  0  0  0  0  0  0  0
    5.3297   -0.7477   43.3688 C   0  0  0  0  0  0  0  0  0  0  0  0
    3.4732   -0.2235   42.4530 C   0  0  0  0  0  0  0  0  0  0  0  0
    4.4984   -1.7876   43.6214 C   0  0  0  0  0  0  0  0  0  0  0  0
    3.3438   -1.5190   42.9379 C   0  0  0  0  0  0  0  0  0  0  0  0
    2.1381   -2.3401   42.8254 C   0  0  0  0  0  0  0  0  0  0  0  0
    2.3894    0.3572   41.9843 N   0  0  0  0  0  0  0  0  0  0  0  0
    4.9180   -3.0430   44.3829 C   0  0  0  0  0  0  0  0  0  0  0  0
    5.9444   -2.9314   45.3934 C   0  0  0  0  0  0  0  0  0  0  0  0
    4.2808   -4.1329   44.3252 C   0  0  0  0  0  0  0  0  0  0  0  0
    3.1588   -4.4221   43.4852 O   0  0  0  0  0  0  0  0  0  0  0  0
    4.5704   -5.2518   45.1995 C   0  0  0  0  0  0  0  0  0  0  0  0
    1.9853   -3.6792   43.3495 C   0  0  0  0  0  0  0  0  0  0  0  0
    0.9181   -4.3294   43.4638 C   0  0  0  0  0  0  0  0  0  0  0  0
    6.7403   -1.6226   45.5272 C   0  0  2  0  0  0  0  0  0  0  0  0
    0.9752   -1.7845   42.3366 C   0  0  0  0  0  0  0  0  0  0  0  0
    6.2516   -3.7287   46.2722 C   0  0  0  0  0  0  0  0  0  0  0  0
   -0.2404   -2.4179   42.2529 C   0  0  0  0  0  0  0  0  0  0  0  0
   -1.3835   -1.8904   41.6559 N   0  0  0  0  0  0  0  0  0  0  0  0
    3.8706   -6.4216   45.1394 O   0  0  0  0  0  0  0  0  0  0  0  0
    0.9456   -0.2789   41.7649 C   0  0  0  0  0  0  0  0  0  0  0  0
   -0.2678   -3.6969   42.7575 C   0  0  0  0  0  0  0  0  0  0  0  0
    6.3913   -0.7000   44.3807 N   0  0  0  0  0  0  0  0  0  0  0  0
    7.9391   -1.5867   46.0069 C   0  0  0  0  0  0  0  0  0  0  0  0
    8.7787   -0.4879   45.9761 O   0  0  0  0  0  0  0  0  0  0  0  0
    5.3853   -5.1216   46.3780 C   0  0  0  0  0  0  0  0  0  0  0  0
    8.4504   -2.7517   46.6262 N   0  0  0  0  0  0  0  0  0  0  0  0
    7.4807   -3.7374   47.0380 C   0  0  0  0  0  0  0  0  0  0  0  0
    9.7261   -2.6138   47.3732 C   0  0  0  0  0  0  0  0  0  0  0  0
    9.9606   -3.7577   48.0581 C   0  0  0  0  0  0  0  0  0  0  0  0
   11.0999   -4.4648   47.7368 O   0  0  0  0  0  0  0  0  0  0  0  0
   10.9199   -5.0316   46.4526 C   0  0  0  0  0  0  0  0  0  0  0  0
   10.2272   -6.0822   46.3751 C   0  0  0  0  0  0  0  0  0  0  0  0
   11.3454   -4.3181   45.2884 C   0  0  0  0  0  0  0  0  0  0  0  0
    9.6833   -6.6841   47.5703 O   0  0  0  0  0  0  0  0  0  0  0  0
   10.2626   -7.0665   45.3234 C   0  0  0  0  0  0  0  0  0  0  0  0
   12.0269   -3.1119   45.2900 C   0  0  0  0  0  0  0  0  0  0  0  0
   11.3824   -5.1383   44.1743 C   0  0  0  0  0  0  0  0  0  0  0  0
   11.9398   -4.6704   43.0256 F   0  0  0  0  0  0  0  0  0  0  0  0
   10.8801   -6.3936   44.2034 C   0  0  0  0  0  0  0  0  0  0  0  0
    9.0935   -7.9417   47.6602 C   0  0  0  0  0  0  0  0  0  0  0  0
  1  2  2  0
  1  3  1  0
  2  4  1  0
  3  5  1  0
  4  5  2  0
  5  6  1  0
  3  7  2  0
  4  8  1  0
  8  9  1  0
  8 10  2  0
 10 11  1  0
 10 12  1  0
  6 13  1  0
 11 13  1  0
 13 14  2  0
  9 15  1  0
  6 16  2  0
  9 17  2  0
 16 18  1  0
 18 19  1  0
 12 20  1  0
  7 21  1  0
 16 21  1  0
 14 22  1  0
 18 22  2  0
  2 23  1  0
 15 23  1  6
 15 24  1  0
 24 25  2  0
 12 26  2  0
 17 26  1  0
 24 27  1  0
 17 28  1  0
 27 28  1  0
 27 29  1  0
 29 30  1  0
 30 31  1  0
 31 32  1  0
 32 33  2  0
 32 34  1  0
 33 35  1  0
 33 36  1  0
 34 37  1  0
 34 38  2  0
 38 39  1  0
 36 40  2  0
 38 40  1  0
 35 41  1  0
M  END
$$$$
O14757_Pocket2Mol_idx-in-all-generaetd-625
     RDKit          3D

 41 47  0  0  0  0  0  0  0  0999 V2000
    1.5482   -0.3111   41.9233 C   0  0  0  0  0  0  0  0  0  0  0  0
    2.7284    0.2018   42.1525 N   0  0  0  0  0  0  0  0  0  0  0  0
    3.7893   -0.3016   42.7005 C   0  0  0  0  0  0  0  0  0  0  0  0
    3.3781   -1.7350   43.0000 C   0  0  0  0  0  0  0  0  0  0  0  0
    2.0339   -1.9619   42.6217 C   0  0  0  0  0  0  0  0  0  0  0  0
    4.1166   -2.4997   43.8458 C   0  0  0  0  0  0  0  0  0  0  0  0
    1.1731   -3.0051   42.5773 C   0  0  0  0  0  0  0  0  0  0  0  0
    0.4701   -3.2344   41.4901 C   0  0  0  0  0  0  0  0  0  0  0  0
    5.3799   -1.7814   44.2691 C   0  0  0  0  0  0  0  0  0  0  0  0
    5.0159   -0.0180   43.1201 N   0  0  0  0  0  0  0  0  0  0  0  0
    5.7693   -0.6937   43.8418 C   0  0  0  0  0  0  0  0  0  0  0  0
    0.8078   -3.6166   43.6782 C   0  0  0  0  0  0  0  0  0  0  0  0
    0.0663   -4.7011   43.7415 N   0  0  0  0  0  0  0  0  0  0  0  0
    6.2223   -2.6843   45.1565 C   0  0  0  0  0  0  0  0  0  0  0  0
    6.9599   -0.2351   44.2608 N   0  0  0  0  0  0  0  0  0  0  0  0
    5.9065   -3.9037   45.7499 N   0  0  0  0  0  0  0  0  0  0  0  0
   -0.5459   -5.1185   42.5870 C   0  0  0  0  0  0  0  0  0  0  0  0
    5.7480   -4.0340   46.9810 C   0  0  0  0  0  0  0  0  0  0  0  0
    7.4448   -1.8511   45.4198 C   0  0  0  0  0  0  0  0  0  0  0  0
    7.7572   -0.7827   45.0128 C   0  0  0  0  0  0  0  0  0  0  0  0
    8.4076   -2.7217   46.4541 C   0  0  0  0  0  0  0  0  0  0  0  0
    9.3167   -2.0988   47.1049 N   0  0  0  0  0  0  0  0  0  0  0  0
   -0.4719   -4.3893   41.5406 C   0  0  0  0  0  0  0  0  0  0  0  0
    8.3667   -4.0284   46.5743 N   0  0  0  0  0  0  0  0  0  0  0  0
   10.1532   -2.5726   47.9567 C   0  0  0  0  0  0  0  0  0  0  0  0
   11.0726   -1.7892   48.6998 C   0  0  0  0  0  0  0  0  0  0  0  0
   10.4886   -0.9372   49.4584 C   0  0  0  0  0  0  0  0  0  0  0  0
    8.9772   -4.5617   47.6013 C   0  0  0  0  0  0  0  0  0  0  0  0
    9.9765   -3.9922   48.2636 C   0  0  0  0  0  0  0  0  0  0  0  0
   11.3393   -0.1462   50.3539 C   0  0  0  0  0  0  0  0  0  0  0  0
   12.4892   -1.8956   48.4941 C   0  0  0  0  0  0  0  0  0  0  0  0
   12.8930   -0.3809   50.0834 C   0  0  0  0  0  0  0  0  0  0  0  0
   12.9994   -2.9244   47.4139 C   0  0  0  0  0  0  0  0  0  0  0  0
   13.2804   -1.1960   49.2234 C   0  0  0  0  0  0  0  0  0  0  0  0
   13.2158   -2.3419   46.2078 C   0  0  0  0  0  0  0  0  0  0  0  0
   12.1688   -2.0557   45.4064 C   0  0  0  0  0  0  0  0  0  0  0  0
   12.3247   -1.4555   44.0967 C   0  0  0  0  0  0  0  0  0  0  0  0
   14.5018   -2.1953   45.5059 C   0  0  0  0  0  0  0  0  0  0  0  0
   14.6975   -1.6869   44.3429 C   0  0  0  0  0  0  0  0  0  0  0  0
   15.9901   -1.5097   43.7717 O   0  0  0  0  0  0  0  0  0  0  0  0
   13.5987   -1.3406   43.5849 C   0  0  0  0  0  0  0  0  0  0  0  0
  1  2  1  0
  2  3  2  0
  3  4  1  0
  1  5  2  0
  4  5  1  0
  4  6  2  0
  5  7  1  0
  7  8  2  0
  6  9  1  0
  3 10  1  0
  9 11  2  0
 10 11  1  0
  7 12  1  0
 12 13  2  0
  9 14  1  0
 11 15  1  0
 14 16  1  0
 13 17  1  0
 16 18  1  0
 14 19  2  0
 15 20  2  0
 19 20  1  0
 19 21  1  0
 21 22  2  0
  8 23  1  0
 17 23  2  0
 21 24  1  0
 22 25  1  0
 25 26  1  0
 26 27  2  0
 24 28  2  0
 25 29  2  0
 28 29  1  0
 27 30  1  0
 26 31  1  0
 30 32  2  0
 31 33  1  0
 31 34  2  0
 32 34  1  0
 33 35  1  0
 35 36  2  0
 36 37  1  0
 35 38  1  0
 38 39  2  0
 39 40  1  0
 37 41  2  0
 39 41  1  0
M  END
$$$$
O14757_Pocket2Mol_idx-in-all-generaetd-626
     RDKit          3D

 36 40  0  0  0  0  0  0  0  0999 V2000
    1.5482   -0.3111   41.9233 C   0  0  0  0  0  0  0  0  0  0  0  0
    2.7284    0.2018   42.1525 N   0  0  0  0  0  0  0  0  0  0  0  0
    3.7893   -0.3016   42.7005 C   0  0  0  0  0  0  0  0  0  0  0  0
    3.3781   -1.7350   43.0000 C   0  0  0  0  0  0  0  0  0  0  0  0
    2.0339   -1.9619   42.6217 C   0  0  0  0  0  0  0  0  0  0  0  0
    4.1166   -2.4997   43.8458 C   0  0  0  0  0  0  0  0  0  0  0  0
    1.1731   -3.0051   42.5773 C   0  0  0  0  0  0  0  0  0  0  0  0
    0.4701   -3.2344   41.4901 C   0  0  0  0  0  0  0  0  0  0  0  0
    5.3799   -1.7814   44.2691 C   0  0  0  0  0  0  0  0  0  0  0  0
    5.0159   -0.0180   43.1201 N   0  0  0  0  0  0  0  0  0  0  0  0
    5.7693   -0.6937   43.8418 C   0  0  0  0  0  0  0  0  0  0  0  0
    0.8078   -3.6166   43.6782 C   0  0  0  0  0  0  0  0  0  0  0  0
    0.0663   -4.7011   43.7415 N   0  0  0  0  0  0  0  0  0  0  0  0
    6.2223   -2.6843   45.1565 C   0  0  0  0  0  0  0  0  0  0  0  0
    1.4459   -3.3095   45.0236 O   0  0  0  0  0  0  0  0  0  0  0  0
   -0.5278   -5.1074   42.5506 C   0  0  0  0  0  0  0  0  0  0  0  0
   -1.3099   -6.2193   42.5332 N   0  0  0  0  0  0  0  0  0  0  0  0
   -0.3906   -4.3573   41.3904 C   0  0  0  0  0  0  0  0  0  0  0  0
    7.0535   -0.4845   44.4478 N   0  0  0  0  0  0  0  0  0  0  0  0
    0.6210   -3.8397   46.1835 C   0  0  0  0  0  0  0  0  0  0  0  0
    6.2906   -3.7888   45.8815 C   0  0  0  0  0  0  0  0  0  0  0  0
    7.3965   -1.5466   45.3147 C   0  0  0  0  0  0  0  0  0  0  0  0
    5.1449   -4.4973   46.0473 O   0  0  0  0  0  0  0  0  0  0  0  0
    7.4148   -4.1081   46.6372 C   0  0  0  0  0  0  0  0  0  0  0  0
    8.5011   -3.1747   46.6693 C   0  0  0  0  0  0  0  0  0  0  0  0
    8.4580   -1.9168   46.0438 C   0  0  0  0  0  0  0  0  0  0  0  0
    9.8193   -3.4927   47.5654 C   0  0  0  0  0  0  0  0  0  0  0  0
    4.3482   -4.5667   47.1383 C   0  0  0  0  0  0  0  0  0  0  0  0
   10.8925   -3.4519   46.9633 C   0  0  0  0  0  0  0  0  0  0  0  0
   11.7691   -2.4393   47.2298 N   0  0  0  0  0  0  0  0  0  0  0  0
   11.4121   -4.5067   46.3896 O   0  0  0  0  0  0  0  0  0  0  0  0
   11.3382   -1.2293   47.8824 C   0  0  0  0  0  0  0  0  0  0  0  0
   13.2167   -2.5066   46.9729 C   0  0  0  0  0  0  0  0  0  0  0  0
   13.5841   -1.8571   45.7291 C   0  0  0  0  0  0  0  0  0  0  0  0
   12.7379   -1.2924   45.0739 O   0  0  0  0  0  0  0  0  0  0  0  0
   14.7685   -1.8114   45.3101 O   0  0  0  0  0  0  0  0  0  0  0  0
  1  2  1  0
  2  3  2  0
  3  4  1  0
  1  5  2  0
  4  5  1  0
  4  6  2  0
  5  7  1  0
  7  8  2  0
  6  9  1  0
  3 10  1  0
  9 11  1  0
 10 11  1  0
  7 12  1  0
 12 13  2  0
  9 14  2  0
 12 15  1  0
 13 16  1  0
 16 17  1  0
  8 18  1  0
 16 18  2  0
 11 19  2  0
 15 20  1  0
 14 21  1  0
 14 22  1  0
 19 22  1  0
 21 23  1  0
 21 24  2  0
 24 25  1  0
 22 26  2  0
 25 26  2  0
 25 27  1  0
 23 28  1  0
 27 29  1  0
 29 30  1  0
 29 31  2  0
 30 32  1  0
 30 33  1  0
 33 34  1  0
 34 35  1  0
 34 36  2  0
M  END
$$$$
O14757_Pocket2Mol_idx-in-all-generaetd-627
     RDKit          3D

 45 53  0  0  0  0  0  0  0  0999 V2000
    1.5482   -0.3111   41.9233 C   0  0  0  0  0  0  0  0  0  0  0  0
    2.7284    0.2018   42.1525 N   0  0  0  0  0  0  0  0  0  0  0  0
    3.7893   -0.3016   42.7005 C   0  0  0  0  0  0  0  0  0  0  0  0
    3.3781   -1.7350   43.0000 C   0  0  0  0  0  0  0  0  0  0  0  0
    2.0339   -1.9619   42.6217 C   0  0  0  0  0  0  0  0  0  0  0  0
    5.0090    0.1219   42.9340 N   0  0  0  0  0  0  0  0  0  0  0  0
    4.2895   -2.4979   43.6707 C   0  0  0  0  0  0  0  0  0  0  0  0
    5.8391   -0.6675   43.6343 C   0  0  0  0  0  0  0  0  0  0  0  0
    6.9849   -0.2377   44.0028 N   0  0  0  0  0  0  0  0  0  0  0  0
    4.0426   -3.8794   44.0832 C   0  0  0  0  0  0  0  0  0  0  0  0
    7.6796   -0.8734   44.9326 C   0  0  0  0  0  0  0  0  0  0  0  0
    1.1064   -2.9576   42.4211 C   0  0  0  0  0  0  0  0  0  0  0  0
    5.5298   -1.9496   44.0315 C   0  0  0  0  0  0  0  0  0  0  0  0
    3.8954   -4.1817   45.4718 C   0  0  0  0  0  0  0  0  0  0  0  0
    0.6765   -3.5480   43.4006 C   0  0  1  0  0  0  0  0  0  0  0  0
    0.5804   -3.2191   41.1635 C   0  0  0  0  0  0  0  0  0  0  0  0
    2.8083   -4.8227   45.9203 N   0  0  0  0  0  0  0  0  0  0  0  0
   -0.1574   -4.5754   42.9329 N   0  0  0  0  0  0  0  0  0  0  0  0
    6.5271   -2.5531   44.9677 C   0  0  0  0  0  0  0  0  0  0  0  0
   -0.2272   -4.3703   41.5137 C   0  0  0  0  0  0  0  0  0  0  0  0
    7.5095   -2.0029   45.3993 C   0  0  0  0  0  0  0  0  0  0  0  0
    8.2550   -2.6982   46.3988 C   0  0  0  0  0  0  0  0  0  0  0  0
    8.8975   -0.3029   45.3267 O   0  0  0  0  0  0  0  0  0  0  0  0
    4.8299   -4.4637   46.4212 C   0  0  0  0  0  0  0  0  0  0  0  0
    4.2707   -4.9248   47.6295 N   0  0  0  0  0  0  0  0  0  0  0  0
    3.2045   -5.2092   47.1521 C   0  0  0  0  0  0  0  0  0  0  0  0
    1.4482   -4.6186   45.4134 C   0  0  1  0  0  0  0  0  0  0  0  0
    1.2398   -3.5043   44.6236 O   0  0  0  0  0  0  0  0  0  0  0  0
    7.8521   -3.9584   46.8773 C   0  0  0  0  0  0  0  0  0  0  0  0
    8.4079   -4.7553   47.7407 C   0  0  0  0  0  0  0  0  0  0  0  0
    5.9516   -3.8110   45.9146 C   0  0  0  0  0  0  0  0  0  0  0  0
    6.6436   -4.3892   46.6649 C   0  0  0  0  0  0  0  0  0  0  0  0
    9.5111   -5.5246   47.2994 O   0  0  0  0  0  0  0  0  0  0  0  0
   10.6238   -5.0197   46.8534 C   0  0  0  0  0  0  0  0  0  0  0  0
   11.5866   -4.7361   47.6189 C   0  0  0  0  0  0  0  0  0  0  0  0
    1.2153   -5.7944   44.5753 C   0  0  0  0  0  0  0  0  0  0  0  0
   10.7023   -4.6532   45.4361 C   0  0  0  0  0  0  0  0  0  0  0  0
   11.7209   -4.2457   45.0565 C   0  0  0  0  0  0  0  0  0  0  0  0
   11.5467   -4.9832   49.1186 O   0  0  0  0  0  0  0  0  0  0  0  0
   12.3505   -5.8268   49.5929 C   0  0  0  0  0  0  0  0  0  0  0  0
   12.8150   -3.9071   45.8420 C   0  0  0  0  0  0  0  0  0  0  0  0
   12.7609   -4.0921   47.1778 C   0  0  0  0  0  0  0  0  0  0  0  0
   14.1653   -3.1593   45.3623 C   0  0  0  0  0  0  0  0  0  0  0  0
   15.3006   -3.6132   45.6495 O   0  0  0  0  0  0  0  0  0  0  0  0
   13.9843   -2.0164   44.7168 O   0  0  0  0  0  0  0  0  0  0  0  0
  1  2  1  0
  2  3  2  0
  3  4  1  0
  1  5  2  0
  4  5  1  0
  3  6  1  0
  4  7  2  0
  6  8  1  0
  8  9  1  0
  7 10  1  0
  9 11  1  0
  5 12  1  0
  7 13  1  0
  8 13  2  0
 10 14  1  0
 12 15  1  0
 12 16  2  0
 14 17  1  0
 15 18  1  0
 13 19  1  0
 16 20  1  0
 18 20  2  0
 11 21  1  0
 19 21  2  0
 21 22  1  0
 11 23  2  0
 14 24  2  0
 24 25  1  0
 17 26  1  0
 25 26  2  0
 17 27  1  0
 15 28  1  6
 27 28  1  0
 22 29  2  0
 29 30  1  0
 19 31  1  0
 24 31  1  0
 29 32  1  0
 31 32  2  0
 30 33  1  0
 33 34  1  0
 34 35  2  0
 27 36  1  6
 34 37  1  0
 37 38  2  0
 35 39  1  0
 39 40  1  0
 38 41  1  0
 35 42  1  0
 41 42  2  0
 41 43  1  0
 43 44  2  0
 43 45  1  0
M  END
$$$$
O14757_Pocket2Mol_idx-in-all-generaetd-628
     RDKit          3D

 40 48  0  0  0  0  0  0  0  0999 V2000
    1.5482   -0.3111   41.9233 C   0  0  0  0  0  0  0  0  0  0  0  0
    2.7284    0.2018   42.1525 N   0  0  0  0  0  0  0  0  0  0  0  0
    3.7893   -0.3016   42.7005 C   0  0  0  0  0  0  0  0  0  0  0  0
    3.3781   -1.7350   43.0000 C   0  0  0  0  0  0  0  0  0  0  0  0
    2.0339   -1.9619   42.6217 C   0  0  0  0  0  0  0  0  0  0  0  0
    5.0090    0.1219   42.9340 N   0  0  0  0  0  0  0  0  0  0  0  0
    4.2895   -2.4979   43.6707 C   0  0  0  0  0  0  0  0  0  0  0  0
    5.8391   -0.6675   43.6343 C   0  0  0  0  0  0  0  0  0  0  0  0
    6.9849   -0.2377   44.0028 N   0  0  0  0  0  0  0  0  0  0  0  0
    4.0426   -3.8794   44.0832 C   0  0  0  0  0  0  0  0  0  0  0  0
    7.6796   -0.8734   44.9326 C   0  0  0  0  0  0  0  0  0  0  0  0
    1.1064   -2.9576   42.4211 C   0  0  0  0  0  0  0  0  0  0  0  0
    5.5298   -1.9496   44.0315 C   0  0  0  0  0  0  0  0  0  0  0  0
    3.8954   -4.1817   45.4718 C   0  0  0  0  0  0  0  0  0  0  0  0
    0.6765   -3.5480   43.4006 C   0  0  1  0  0  0  0  0  0  0  0  0
    0.5804   -3.2191   41.1635 C   0  0  0  0  0  0  0  0  0  0  0  0
    2.8083   -4.8227   45.9203 N   0  0  0  0  0  0  0  0  0  0  0  0
   -0.1574   -4.5754   42.9329 N   0  0  0  0  0  0  0  0  0  0  0  0
    6.5271   -2.5531   44.9677 C   0  0  0  0  0  0  0  0  0  0  0  0
   -0.2272   -4.3703   41.5137 C   0  0  0  0  0  0  0  0  0  0  0  0
    7.5095   -2.0029   45.3993 C   0  0  0  0  0  0  0  0  0  0  0  0
    8.2550   -2.6982   46.3988 C   0  0  0  0  0  0  0  0  0  0  0  0
    8.8975   -0.3029   45.3267 O   0  0  0  0  0  0  0  0  0  0  0  0
    4.8299   -4.4637   46.4212 C   0  0  0  0  0  0  0  0  0  0  0  0
    4.2707   -4.9248   47.6295 N   0  0  0  0  0  0  0  0  0  0  0  0
    3.2045   -5.2092   47.1521 C   0  0  0  0  0  0  0  0  0  0  0  0
    1.4482   -4.6186   45.4134 C   0  0  1  0  0  0  0  0  0  0  0  0
    1.2398   -3.5043   44.6236 O   0  0  0  0  0  0  0  0  0  0  0  0
    6.3317   -3.9297   46.0870 C   0  0  2  0  0  0  0  0  0  0  0  0
    9.5296   -2.5449   46.9776 C   0  0  0  0  0  0  0  0  0  0  0  0
    9.7921   -1.7530   47.9018 O   0  0  0  0  0  0  0  0  0  0  0  0
    7.3972   -3.8130   46.7939 C   0  0  0  0  0  0  0  0  0  0  0  0
    1.2392   -5.7793   44.5610 C   0  0  0  0  0  0  0  0  0  0  0  0
   10.4934   -3.0755   46.3117 N   0  0  0  0  0  0  0  0  0  0  0  0
   11.8909   -2.7870   46.6074 C   0  0  0  0  0  0  0  0  0  0  0  0
   12.5823   -3.7629   46.9107 C   0  0  0  0  0  0  0  0  0  0  0  0
   12.4878   -1.9958   45.3803 C   0  0  0  0  0  0  0  0  0  0  0  0
   13.7785   -1.5666   45.5438 C   0  0  0  0  0  0  0  0  0  0  0  0
   14.6732   -2.6801   45.9334 C   0  0  0  0  0  0  0  0  0  0  0  0
   14.1722   -3.4580   47.1302 C   0  0  0  0  0  0  0  0  0  0  0  0
  1  2  1  0
  2  3  2  0
  3  4  1  0
  1  5  2  0
  4  5  1  0
  3  6  1  0
  4  7  2  0
  6  8  1  0
  8  9  1  0
  7 10  1  0
  9 11  1  0
  5 12  1  0
  7 13  1  0
  8 13  2  0
 10 14  1  0
 12 15  1  0
 12 16  2  0
 14 17  1  0
 15 18  1  0
 13 19  1  0
 16 20  1  0
 18 20  2  0
 11 21  1  0
 19 21  2  0
 21 22  1  0
 11 23  2  0
 14 24  2  0
 24 25  1  0
 17 26  1  0
 25 26  2  0
 17 27  1  0
 15 28  1  6
 27 28  1  0
 19 29  1  0
 24 29  1  0
 22 30  1  0
 30 31  2  0
 22 32  2  0
 29 32  1  1
 27 33  1  6
 30 34  1  0
 34 35  1  0
 35 36  1  0
 35 37  1  0
 37 38  1  0
 38 39  1  0
 36 40  1  0
 39 40  1  0
M  END
$$$$
O14757_Pocket2Mol_idx-in-all-generaetd-629
     RDKit          3D

 30 34  0  0  0  0  0  0  0  0999 V2000
    5.3420    0.2589   42.8836 N   0  0  0  0  0  0  0  0  0  0  0  0
    5.6740   -0.8311   43.5645 C   0  0  0  0  0  0  0  0  0  0  0  0
    4.8288   -1.8236   43.8416 C   0  0  0  0  0  0  0  0  0  0  0  0
    3.6296   -1.5812   43.1756 C   0  0  0  0  0  0  0  0  0  0  0  0
    5.0882   -3.0359   44.6381 C   0  0  0  0  0  0  0  0  0  0  0  0
    6.1485   -2.9700   45.5258 C   0  0  0  0  0  0  0  0  0  0  0  0
    4.2991   -4.0949   44.5899 C   0  0  0  0  0  0  0  0  0  0  0  0
    2.3915   -2.2145   43.0037 C   0  0  0  0  0  0  0  0  0  0  0  0
    3.1185   -4.3300   43.8771 C   0  0  0  0  0  0  0  0  0  0  0  0
    2.6120   -5.5925   44.1861 O   0  0  0  0  0  0  0  0  0  0  0  0
    3.9103   -0.2359   42.6290 C   0  0  0  0  0  0  0  0  0  0  0  0
    2.2344   -3.4540   43.3650 N   0  0  0  0  0  0  0  0  0  0  0  0
    0.8119   -3.8495   43.1300 C   0  0  0  0  0  0  0  0  0  0  0  0
    3.0472    0.4463   41.9449 N   0  0  0  0  0  0  0  0  0  0  0  0
    1.5343   -1.5152   42.1136 C   0  0  0  0  0  0  0  0  0  0  0  0
    7.2580   -2.1553   45.5496 C   0  0  0  0  0  0  0  0  0  0  0  0
    8.2843   -2.2373   46.5265 C   0  0  0  0  0  0  0  0  0  0  0  0
    9.4356   -1.2990   46.5400 C   0  0  0  0  0  0  0  0  0  0  0  0
   10.4651   -1.7166   45.9135 O   0  0  0  0  0  0  0  0  0  0  0  0
    1.9573   -0.0992   41.7221 C   0  0  0  0  0  0  0  0  0  0  0  0
    0.3498   -3.1327   42.0399 C   0  0  0  0  0  0  0  0  0  0  0  0
   11.6169   -1.9467   46.5690 C   0  0  0  0  0  0  0  0  0  0  0  0
    0.3221   -1.9135   41.8326 C   0  0  0  0  0  0  0  0  0  0  0  0
    8.1214   -3.2407   47.4708 C   0  0  0  0  0  0  0  0  0  0  0  0
    7.0470   -4.1579   47.3819 C   0  0  0  0  0  0  0  0  0  0  0  0
    6.1070   -4.0093   46.5158 C   0  0  0  0  0  0  0  0  0  0  0  0
   11.6265   -2.6398   47.5108 O   0  0  0  0  0  0  0  0  0  0  0  0
   12.8102   -1.2179   46.0480 C   0  0  0  0  0  0  0  0  0  0  0  0
   13.3896   -1.8742   44.9801 N   0  0  0  0  0  0  0  0  0  0  0  0
   12.8891   -1.5585   43.7771 O   0  0  0  0  0  0  0  0  0  0  0  0
  1  2  2  0
  2  3  1  0
  3  4  2  0
  3  5  1  0
  5  6  1  0
  5  7  2  0
  4  8  1  0
  7  9  1  0
  9 10  2  0
  1 11  1  0
  4 11  1  0
  8 12  1  0
  9 12  1  0
 12 13  1  0
 11 14  2  0
  8 15  2  0
  6 16  2  0
 16 17  1  0
 17 18  1  0
 18 19  1  0
 14 20  1  0
 15 20  1  0
 13 21  1  0
 19 22  1  0
 15 23  1  0
 21 23  1  0
 17 24  2  0
 24 25  1  0
  6 26  1  0
 25 26  2  0
 22 27  2  0
 22 28  1  0
 28 29  1  0
 29 30  1  0
M  END
$$$$
O14757_Pocket2Mol_idx-in-all-generaetd-630
     RDKit          3D

 37 44  0  0  0  0  0  0  0  0999 V2000
    1.5482   -0.3111   41.9233 C   0  0  0  0  0  0  0  0  0  0  0  0
    2.7284    0.2018   42.1525 N   0  0  0  0  0  0  0  0  0  0  0  0
    3.7893   -0.3016   42.7005 C   0  0  0  0  0  0  0  0  0  0  0  0
    3.3781   -1.7350   43.0000 C   0  0  0  0  0  0  0  0  0  0  0  0
    2.0339   -1.9619   42.6217 C   0  0  0  0  0  0  0  0  0  0  0  0
    5.0090    0.1219   42.9340 N   0  0  0  0  0  0  0  0  0  0  0  0
    4.2895   -2.4979   43.6707 C   0  0  0  0  0  0  0  0  0  0  0  0
    5.8391   -0.6675   43.6343 C   0  0  0  0  0  0  0  0  0  0  0  0
    6.9849   -0.2377   44.0028 N   0  0  0  0  0  0  0  0  0  0  0  0
    4.0426   -3.8794   44.0832 C   0  0  0  0  0  0  0  0  0  0  0  0
    7.6796   -0.8734   44.9326 C   0  0  0  0  0  0  0  0  0  0  0  0
    1.1064   -2.9576   42.4211 C   0  0  0  0  0  0  0  0  0  0  0  0
    5.5298   -1.9496   44.0315 C   0  0  0  0  0  0  0  0  0  0  0  0
    3.8954   -4.1817   45.4718 C   0  0  0  0  0  0  0  0  0  0  0  0
    0.6765   -3.5480   43.4006 C   0  0  1  0  0  0  0  0  0  0  0  0
    0.5804   -3.2191   41.1635 C   0  0  0  0  0  0  0  0  0  0  0  0
    2.8083   -4.8227   45.9203 N   0  0  0  0  0  0  0  0  0  0  0  0
   -0.1574   -4.5754   42.9329 N   0  0  0  0  0  0  0  0  0  0  0  0
    6.5271   -2.5531   44.9677 C   0  0  0  0  0  0  0  0  0  0  0  0
   -0.2272   -4.3703   41.5137 C   0  0  0  0  0  0  0  0  0  0  0  0
    7.5095   -2.0029   45.3993 C   0  0  0  0  0  0  0  0  0  0  0  0
    8.2550   -2.6982   46.3988 C   0  0  2  0  0  0  0  0  0  0  0  0
    8.8975   -0.3029   45.3267 O   0  0  0  0  0  0  0  0  0  0  0  0
    4.8299   -4.4637   46.4212 C   0  0  0  0  0  0  0  0  0  0  0  0
    4.2707   -4.9248   47.6295 N   0  0  0  0  0  0  0  0  0  0  0  0
    3.2045   -5.2092   47.1521 C   0  0  0  0  0  0  0  0  0  0  0  0
    1.4482   -4.6186   45.4134 C   0  0  2  0  0  0  0  0  0  0  0  0
    1.2398   -3.5043   44.6236 O   0  0  0  0  0  0  0  0  0  0  0  0
    6.3317   -3.9297   46.0870 C   0  0  2  0  0  0  0  0  0  0  0  0
    9.5296   -2.5449   46.9776 C   0  0  0  0  0  0  0  0  0  0  0  0
    9.7921   -1.7530   47.9018 O   0  0  0  0  0  0  0  0  0  0  0  0
    7.4454   -3.8344   46.8035 C   0  0  0  0  0  0  0  0  0  0  0  0
   10.5010   -3.0847   46.3190 O   0  0  0  0  0  0  0  0  0  0  0  0
    0.5569   -4.7693   46.5649 C   0  0  0  0  0  0  0  0  0  0  0  0
   11.7452   -2.8462   46.6234 C   0  0  0  0  0  0  0  0  0  0  0  0
   12.4186   -3.8680   47.1468 C   0  0  0  0  0  0  0  0  0  0  0  0
   12.4874   -2.3406   45.3168 C   0  0  0  0  0  0  0  0  0  0  0  0
  1  2  1  0
  2  3  2  0
  3  4  1  0
  1  5  2  0
  4  5  1  0
  3  6  1  0
  4  7  2  0
  6  8  1  0
  8  9  1  0
  7 10  1  0
  9 11  1  0
  5 12  1  0
  7 13  1  0
  8 13  2  0
 10 14  1  0
 12 15  1  0
 12 16  2  0
 14 17  1  0
 15 18  1  0
 13 19  1  0
 16 20  1  0
 18 20  2  0
 11 21  1  0
 19 21  2  0
 21 22  1  0
 11 23  2  0
 14 24  2  0
 24 25  1  0
 17 26  1  0
 25 26  2  0
 17 27  1  0
 15 28  1  6
 27 28  1  0
 19 29  1  0
 24 29  1  0
 22 30  1  6
 30 31  2  0
 22 32  1  0
 29 32  1  1
 30 33  1  0
 27 34  1  1
 33 35  1  0
 35 36  1  0
 35 37  1  0
M  END
$$$$
O14757_Pocket2Mol_idx-in-all-generaetd-631
     RDKit          3D

 35 40  0  0  0  0  0  0  0  0999 V2000
    5.3420    0.2589   42.8836 O   0  0  0  0  0  0  0  0  0  0  0  0
    5.1627   -0.7554   43.4753 C   0  0  0  0  0  0  0  0  0  0  0  0
    4.0509   -1.4657   43.4177 N   0  0  0  0  0  0  0  0  0  0  0  0
    5.9969   -1.2317   44.6840 C   0  0  0  0  0  0  0  0  0  0  0  0
    2.9618   -1.1021   42.5918 C   0  0  1  0  0  0  0  0  0  0  0  0
    7.3392   -0.8596   44.8412 C   0  0  0  0  0  0  0  0  0  0  0  0
    1.9754   -2.0820   42.2741 C   0  0  0  0  0  0  0  0  0  0  0  0
    5.5910   -2.4282   45.3439 C   0  0  0  0  0  0  0  0  0  0  0  0
    6.5874   -2.9636   46.1581 C   0  0  0  0  0  0  0  0  0  0  0  0
    4.2763   -3.0680   45.0493 N   0  0  0  0  0  0  0  0  0  0  0  0
    3.6188   -2.5886   44.2024 C   0  0  0  0  0  0  0  0  0  0  0  0
    8.1921   -1.4071   45.7505 C   0  0  0  0  0  0  0  0  0  0  0  0
    1.0154   -1.8839   41.2980 C   0  0  0  0  0  0  0  0  0  0  0  0
    2.5720   -3.3564   43.9063 C   0  0  0  0  0  0  0  0  0  0  0  0
    0.2502   -2.8976   41.0751 C   0  0  0  0  0  0  0  0  0  0  0  0
    6.1761   -4.1775   47.0209 C   0  0  0  0  0  0  0  0  0  0  0  0
    1.7266   -3.1047   43.0115 C   0  0  2  0  0  0  0  0  0  0  0  0
    2.3696   -4.5367   44.7536 N   0  0  0  0  0  0  0  0  0  0  0  0
    1.2264   -5.2346   44.4693 C   0  0  0  0  0  0  0  0  0  0  0  0
    0.7187   -3.8955   42.5465 C   0  0  0  0  0  0  0  0  0  0  0  0
    9.4576   -0.8949   46.0327 N   0  0  0  0  0  0  0  0  0  0  0  0
    0.8625   -6.3901   45.2462 C   0  0  0  0  0  0  0  0  0  0  0  0
    7.6467   -2.5139   46.4892 C   0  0  0  0  0  0  0  0  0  0  0  0
   10.4908   -1.5336   45.8242 C   0  0  0  0  0  0  0  0  0  0  0  0
    0.3057   -4.9299   43.2909 C   0  0  0  0  0  0  0  0  0  0  0  0
   11.5916   -1.4291   46.7436 C   0  0  0  0  0  0  0  0  0  0  0  0
   10.5566   -2.3672   44.8649 O   0  0  0  0  0  0  0  0  0  0  0  0
   11.6051   -2.2111   47.7709 N   0  0  0  0  0  0  0  0  0  0  0  0
    2.4805    0.2099   42.8350 O   0  0  0  0  0  0  0  0  0  0  0  0
   12.6177   -0.5842   46.5430 C   0  0  0  0  0  0  0  0  0  0  0  0
   10.6022   -3.0999   48.2311 C   0  0  0  0  0  0  0  0  0  0  0  0
   12.8201   -1.8545   48.4231 C   0  0  0  0  0  0  0  0  0  0  0  0
    9.8708   -2.5664   49.3206 C   0  0  0  0  0  0  0  0  0  0  0  0
   12.9921    0.2645   45.4369 C   0  0  0  0  0  0  0  0  0  0  0  0
   13.5877   -0.8720   47.6599 C   0  0  0  0  0  0  0  0  0  0  0  0
  1  2  2  0
  2  3  1  0
  2  4  1  0
  3  5  1  0
  4  6  2  0
  5  7  1  0
  4  8  1  0
  8  9  2  0
  8 10  1  0
  3 11  1  0
 10 11  2  0
  6 12  1  0
  7 13  2  0
 11 14  1  0
 13 15  1  0
  9 16  1  0
 17  7  1  6
 14 17  1  0
 14 18  2  0
 18 19  1  0
 15 20  2  0
 17 20  1  0
 12 21  1  0
 19 22  1  0
  9 23  1  0
 12 23  2  0
 21 24  1  0
 19 25  2  0
 20 25  1  0
 24 26  1  0
 24 27  2  0
 26 28  1  0
  5 29  1  1
 26 30  2  0
 28 31  1  0
 28 32  1  0
 31 33  1  0
 30 34  1  0
 30 35  1  0
 32 35  2  0
M  END
$$$$
O14757_Pocket2Mol_idx-in-all-generaetd-632
     RDKit          3D

 28 32  0  0  0  0  0  0  0  0999 V2000
    5.3420    0.2589   42.8836 N   0  0  0  0  0  0  0  0  0  0  0  0
    5.6740   -0.8311   43.5645 C   0  0  0  0  0  0  0  0  0  0  0  0
    4.8288   -1.8236   43.8416 C   0  0  0  0  0  0  0  0  0  0  0  0
    3.6296   -1.5812   43.1756 C   0  0  0  0  0  0  0  0  0  0  0  0
    5.0882   -3.0359   44.6381 C   0  0  0  0  0  0  0  0  0  0  0  0
    6.1485   -2.9700   45.5258 C   0  0  0  0  0  0  0  0  0  0  0  0
    4.2991   -4.0949   44.5899 C   0  0  0  0  0  0  0  0  0  0  0  0
    2.3915   -2.2145   43.0037 C   0  0  0  0  0  0  0  0  0  0  0  0
    3.1185   -4.3300   43.8771 C   0  0  0  0  0  0  0  0  0  0  0  0
    2.6120   -5.5925   44.1861 O   0  0  0  0  0  0  0  0  0  0  0  0
    3.9103   -0.2359   42.6290 C   0  0  0  0  0  0  0  0  0  0  0  0
    2.2344   -3.4540   43.3650 N   0  0  0  0  0  0  0  0  0  0  0  0
    0.8119   -3.8495   43.1300 C   0  0  0  0  0  0  0  0  0  0  0  0
    3.0472    0.4463   41.9449 N   0  0  0  0  0  0  0  0  0  0  0  0
    1.5343   -1.5152   42.1136 C   0  0  0  0  0  0  0  0  0  0  0  0
    7.2580   -2.1553   45.5496 C   0  0  0  0  0  0  0  0  0  0  0  0
    8.2843   -2.2373   46.5265 C   0  0  0  0  0  0  0  0  0  0  0  0
    9.4356   -1.2990   46.5400 C   0  0  0  0  0  0  0  0  0  0  0  0
   10.4651   -1.7166   45.9135 O   0  0  0  0  0  0  0  0  0  0  0  0
    1.9573   -0.0992   41.7221 C   0  0  0  0  0  0  0  0  0  0  0  0
    0.3498   -3.1327   42.0399 C   0  0  0  0  0  0  0  0  0  0  0  0
   11.6169   -1.9467   46.5690 C   0  0  0  0  0  0  0  0  0  0  0  0
    0.2891   -2.0396   41.9196 N   0  0  0  0  0  0  0  0  0  0  0  0
    5.9605   -3.9315   46.6115 C   0  0  0  0  0  0  0  0  0  0  0  0
    7.9792   -3.2325   47.6245 C   0  0  0  0  0  0  0  0  0  0  0  0
    6.8377   -3.9174   47.6386 C   0  0  0  0  0  0  0  0  0  0  0  0
   11.6103   -2.6206   47.5355 O   0  0  0  0  0  0  0  0  0  0  0  0
   12.8404   -1.7834   45.6853 C   0  0  0  0  0  0  0  0  0  0  0  0
  1  2  2  0
  2  3  1  0
  3  4  2  0
  3  5  1  0
  5  6  1  0
  5  7  2  0
  4  8  1  0
  7  9  1  0
  9 10  2  0
  1 11  1  0
  4 11  1  0
  8 12  1  0
  9 12  1  0
 12 13  1  0
 11 14  2  0
  8 15  2  0
  6 16  2  0
 16 17  1  0
 17 18  1  0
 18 19  1  0
 14 20  1  0
 15 20  1  0
 13 21  1  0
 19 22  1  0
 15 23  1  0
 21 23  1  0
  6 24  1  0
 17 25  2  0
 24 26  2  0
 25 26  1  0
 22 27  2  0
 22 28  1  0
M  END
$$$$
O14757_Pocket2Mol_idx-in-all-generaetd-633
     RDKit          3D

 20 23  0  0  0  0  0  0  0  0999 V2000
    4.5156    0.0550   42.9895 N   0  0  0  0  0  0  0  0  0  0  0  0
    3.2960    0.1633   42.4470 C   0  0  0  0  0  0  0  0  0  0  0  0
    2.7621   -1.2305   42.4476 C   0  0  0  0  0  0  0  0  0  0  0  0
    5.2005   -0.8099   43.5858 C   0  0  0  0  0  0  0  0  0  0  0  0
    4.4157   -2.0357   43.6745 C   0  0  0  0  0  0  0  0  0  0  0  0
    3.3964   -2.2069   43.1195 C   0  0  0  0  0  0  0  0  0  0  0  0
    2.6107   -3.4636   43.1542 N   0  0  0  0  0  0  0  0  0  0  0  0
    1.4467   -1.2849   41.8335 C   0  0  0  0  0  0  0  0  0  0  0  0
    5.1851   -3.1348   44.4538 N   0  0  0  0  0  0  0  0  0  0  0  0
    6.4172   -0.8203   44.3346 N   0  0  0  0  0  0  0  0  0  0  0  0
    0.8321   -2.5451   41.8394 C   0  0  0  0  0  0  0  0  0  0  0  0
    6.3079   -2.8731   45.1171 C   0  0  0  0  0  0  0  0  0  0  0  0
    6.8863   -3.8787   45.9525 C   0  0  0  0  0  0  0  0  0  0  0  0
    1.4408   -3.5475   42.6011 C   0  0  0  0  0  0  0  0  0  0  0  0
    8.1675   -3.5278   46.4764 C   0  0  0  0  0  0  0  0  0  0  0  0
    6.7933   -1.6362   44.9962 C   0  0  0  0  0  0  0  0  0  0  0  0
    8.1040   -1.3458   45.6270 C   0  0  0  0  0  0  0  0  0  0  0  0
    8.7070   -4.5715   47.3931 O   0  0  0  0  0  0  0  0  0  0  0  0
    8.6647   -2.3076   46.4793 C   0  0  0  0  0  0  0  0  0  0  0  0
    8.9577   -4.3618   48.6540 C   0  0  0  0  0  0  0  0  0  0  0  0
  1  2  2  0
  2  3  1  0
  1  4  1  0
  4  5  2  0
  3  6  2  0
  5  6  1  0
  6  7  1  0
  3  8  1  0
  5  9  1  0
  4 10  1  0
  8 11  2  0
  9 12  2  0
 12 13  1  0
  7 14  2  0
 11 14  1  0
 13 15  2  0
 10 16  2  0
 12 16  1  0
 16 17  1  0
 15 18  1  0
 15 19  1  0
 17 19  2  0
 18 20  1  0
M  END
$$$$
O14757_Pocket2Mol_idx-in-all-generaetd-634
     RDKit          3D

 23 26  0  0  0  0  0  0  0  0999 V2000
    5.3420    0.2589   42.8836 O   0  0  0  0  0  0  0  0  0  0  0  0
    5.1627   -0.7554   43.4753 C   0  0  0  0  0  0  0  0  0  0  0  0
    4.0509   -1.4657   43.4177 N   0  0  0  0  0  0  0  0  0  0  0  0
    5.9969   -1.2317   44.6840 C   0  0  0  0  0  0  0  0  0  0  0  0
    2.9618   -1.1021   42.5918 C   0  0  0  0  0  0  0  0  0  0  0  0
    7.3392   -0.8596   44.8412 C   0  0  0  0  0  0  0  0  0  0  0  0
    1.9754   -2.0820   42.2741 C   0  0  0  0  0  0  0  0  0  0  0  0
    5.5910   -2.4282   45.3439 C   0  0  0  0  0  0  0  0  0  0  0  0
    6.5874   -2.9636   46.1581 C   0  0  0  0  0  0  0  0  0  0  0  0
    4.2763   -3.0680   45.0493 N   0  0  0  0  0  0  0  0  0  0  0  0
    3.6188   -2.5886   44.2024 C   0  0  0  0  0  0  0  0  0  0  0  0
    8.1921   -1.4071   45.7505 C   0  0  0  0  0  0  0  0  0  0  0  0
    1.0154   -1.8839   41.2980 C   0  0  0  0  0  0  0  0  0  0  0  0
    2.5720   -3.3564   43.9063 C   0  0  0  0  0  0  0  0  0  0  0  0
    0.2502   -2.8976   41.0751 C   0  0  0  0  0  0  0  0  0  0  0  0
    0.2230   -3.9124   42.0516 C   0  0  0  0  0  0  0  0  0  0  0  0
    7.8421   -2.5100   46.4973 C   0  0  0  0  0  0  0  0  0  0  0  0
    2.9880    0.0061   42.0124 O   0  0  0  0  0  0  0  0  0  0  0  0
    1.6964   -3.2441   42.9748 C   0  0  0  0  0  0  0  0  0  0  0  0
    8.6383   -3.0554   47.3633 O   0  0  0  0  0  0  0  0  0  0  0  0
    9.5930   -2.3344   47.9414 C   0  0  0  0  0  0  0  0  0  0  0  0
   10.7554   -3.0429   48.0520 C   0  0  0  0  0  0  0  0  0  0  0  0
    9.2337   -1.6951   49.1809 C   0  0  0  0  0  0  0  0  0  0  0  0
  1  2  2  0
  2  3  1  0
  2  4  1  0
  3  5  1  0
  4  6  2  0
  5  7  1  0
  4  8  1  0
  8  9  2  0
  8 10  1  0
  3 11  1  0
 10 11  2  0
  6 12  1  0
  7 13  2  0
 11 14  1  0
 13 15  1  0
 15 16  2  0
  9 17  1  0
 12 17  2  0
  5 18  2  0
  7 19  1  0
 14 19  2  0
 16 19  1  0
 17 20  1  0
 20 21  1  0
 21 22  1  0
 21 23  1  0
M  END
$$$$
O14757_Pocket2Mol_idx-in-all-generaetd-635
     RDKit          3D

 39 46  0  0  0  0  0  0  0  0999 V2000
    1.5482   -0.3111   41.9233 C   0  0  0  0  0  0  0  0  0  0  0  0
    2.7284    0.2018   42.1525 N   0  0  0  0  0  0  0  0  0  0  0  0
    3.7893   -0.3016   42.7005 C   0  0  0  0  0  0  0  0  0  0  0  0
    3.3781   -1.7350   43.0000 C   0  0  0  0  0  0  0  0  0  0  0  0
    2.0339   -1.9619   42.6217 C   0  0  0  0  0  0  0  0  0  0  0  0
    4.1166   -2.4997   43.8458 C   0  0  0  0  0  0  0  0  0  0  0  0
    1.1731   -3.0051   42.5773 C   0  0  0  0  0  0  0  0  0  0  0  0
    0.4701   -3.2344   41.4901 C   0  0  0  0  0  0  0  0  0  0  0  0
    5.3799   -1.7814   44.2691 C   0  0  0  0  0  0  0  0  0  0  0  0
    5.0159   -0.0180   43.1201 N   0  0  0  0  0  0  0  0  0  0  0  0
    5.7693   -0.6937   43.8418 C   0  0  0  0  0  0  0  0  0  0  0  0
    0.8078   -3.6166   43.6782 C   0  0  0  0  0  0  0  0  0  0  0  0
    0.0663   -4.7011   43.7415 N   0  0  0  0  0  0  0  0  0  0  0  0
    6.2223   -2.6843   45.1565 C   0  0  0  0  0  0  0  0  0  0  0  0
    6.9599   -0.2351   44.2608 N   0  0  0  0  0  0  0  0  0  0  0  0
    5.9065   -3.9037   45.7499 N   0  0  0  0  0  0  0  0  0  0  0  0
   -0.5459   -5.1185   42.5870 C   0  0  0  0  0  0  0  0  0  0  0  0
    5.7480   -4.0340   46.9810 C   0  0  0  0  0  0  0  0  0  0  0  0
    7.4448   -1.8511   45.4198 C   0  0  0  0  0  0  0  0  0  0  0  0
    7.7572   -0.7827   45.0128 C   0  0  0  0  0  0  0  0  0  0  0  0
    8.4076   -2.7217   46.4541 C   0  0  0  0  0  0  0  0  0  0  0  0
    9.3167   -2.0988   47.1049 N   0  0  0  0  0  0  0  0  0  0  0  0
   -0.4719   -4.3893   41.5406 C   0  0  0  0  0  0  0  0  0  0  0  0
    8.3667   -4.0284   46.5743 N   0  0  0  0  0  0  0  0  0  0  0  0
    9.5309   -4.3147   47.3094 C   0  0  0  0  0  0  0  0  0  0  0  0
    5.3113   -3.3789   47.8005 O   0  0  0  0  0  0  0  0  0  0  0  0
    9.9022   -5.6301   47.7684 C   0  0  0  0  0  0  0  0  0  0  0  0
    5.4470   -5.5868   47.2096 C   0  0  0  0  0  0  0  0  0  0  0  0
   11.2254   -5.8679   48.0402 C   0  0  0  0  0  0  0  0  0  0  0  0
    8.9736   -6.6532   47.8548 C   0  0  0  0  0  0  0  0  0  0  0  0
   10.0616   -3.0670   47.6360 C   0  0  0  0  0  0  0  0  0  0  0  0
    7.5566   -6.3564   47.5477 N   0  0  0  0  0  0  0  0  0  0  0  0
   12.3328   -4.8893   47.9268 C   0  0  0  0  0  0  0  0  0  0  0  0
   12.2085   -3.9673   46.9997 C   0  0  0  0  0  0  0  0  0  0  0  0
    9.2156   -7.8300   48.4499 C   0  0  0  0  0  0  0  0  0  0  0  0
   11.4851   -2.8378   47.7540 C   0  0  0  0  0  0  0  0  0  0  0  0
    6.4870   -6.3247   47.8520 C   0  0  0  0  0  0  0  0  0  0  0  0
   11.5822   -7.1165   48.5982 C   0  0  0  0  0  0  0  0  0  0  0  0
   10.5182   -8.0798   48.7223 C   0  0  0  0  0  0  0  0  0  0  0  0
  1  2  1  0
  2  3  2  0
  3  4  1  0
  1  5  2  0
  4  5  1  0
  4  6  2  0
  5  7  1  0
  7  8  2  0
  6  9  1  0
  3 10  1  0
  9 11  2  0
 10 11  1  0
  7 12  1  0
 12 13  2  0
  9 14  1  0
 11 15  1  0
 14 16  1  0
 13 17  1  0
 16 18  1  0
 14 19  2  0
 15 20  2  0
 19 20  1  0
 19 21  1  0
 21 22  2  0
  8 23  1  0
 17 23  2  0
 21 24  1  0
 24 25  1  0
 18 26  2  0
 25 27  1  0
 18 28  1  0
 27 29  2  0
 27 30  1  0
 22 31  1  0
 25 31  2  0
 30 32  1  0
 29 33  1  0
 33 34  1  0
 30 35  2  0
 31 36  1  0
 34 36  1  0
 28 37  1  0
 32 37  1  0
 29 38  1  0
 35 39  1  0
 38 39  2  0
M  END
$$$$
O14757_Pocket2Mol_idx-in-all-generaetd-636
     RDKit          3D

 47 55  0  0  0  0  0  0  0  0999 V2000
    5.3420    0.2589   42.8836 O   0  0  0  0  0  0  0  0  0  0  0  0
    5.1627   -0.7554   43.4753 C   0  0  0  0  0  0  0  0  0  0  0  0
    4.0509   -1.4657   43.4177 N   0  0  0  0  0  0  0  0  0  0  0  0
    5.9969   -1.2317   44.6840 C   0  0  0  0  0  0  0  0  0  0  0  0
    2.9618   -1.1021   42.5918 C   0  0  1  0  0  0  0  0  0  0  0  0
    7.3392   -0.8596   44.8412 C   0  0  0  0  0  0  0  0  0  0  0  0
    1.9754   -2.0820   42.2741 C   0  0  0  0  0  0  0  0  0  0  0  0
    5.5910   -2.4282   45.3439 C   0  0  0  0  0  0  0  0  0  0  0  0
    6.5874   -2.9636   46.1581 C   0  0  0  0  0  0  0  0  0  0  0  0
    4.2763   -3.0680   45.0493 N   0  0  0  0  0  0  0  0  0  0  0  0
    3.6188   -2.5886   44.2024 C   0  0  0  0  0  0  0  0  0  0  0  0
    8.1921   -1.4071   45.7505 C   0  0  0  0  0  0  0  0  0  0  0  0
    1.0154   -1.8839   41.2980 C   0  0  0  0  0  0  0  0  0  0  0  0
    2.5720   -3.3564   43.9063 C   0  0  0  0  0  0  0  0  0  0  0  0
    0.2502   -2.8976   41.0751 C   0  0  0  0  0  0  0  0  0  0  0  0
    6.1761   -4.1775   47.0209 C   0  0  0  0  0  0  0  0  0  0  0  0
    1.7266   -3.1047   43.0115 C   0  0  2  0  0  0  0  0  0  0  0  0
    2.3696   -4.5367   44.7536 N   0  0  0  0  0  0  0  0  0  0  0  0
    1.2264   -5.2346   44.4693 C   0  0  0  0  0  0  0  0  0  0  0  0
    0.7187   -3.8955   42.5465 C   0  0  0  0  0  0  0  0  0  0  0  0
    9.4576   -0.8949   46.0327 N   0  0  0  0  0  0  0  0  0  0  0  0
    0.8625   -6.3901   45.2462 C   0  0  0  0  0  0  0  0  0  0  0  0
    7.6467   -2.5139   46.4892 C   0  0  0  0  0  0  0  0  0  0  0  0
   10.4908   -1.5336   45.8242 C   0  0  0  0  0  0  0  0  0  0  0  0
    0.3057   -4.9299   43.2909 C   0  0  0  0  0  0  0  0  0  0  0  0
   11.5916   -1.4291   46.7436 C   0  0  0  0  0  0  0  0  0  0  0  0
   10.5566   -2.3672   44.8649 O   0  0  0  0  0  0  0  0  0  0  0  0
    2.4730    0.2084   42.8389 O   0  0  0  0  0  0  0  0  0  0  0  0
   11.6027   -2.2081   47.7725 N   0  0  0  0  0  0  0  0  0  0  0  0
   12.6189   -0.5862   46.5415 C   0  0  0  0  0  0  0  0  0  0  0  0
   13.6413   -0.4484   47.4129 C   0  0  0  0  0  0  0  0  0  0  0  0
   10.4764   -3.1097   48.1134 C   0  0  0  0  0  0  0  0  0  0  0  0
    9.5762   -2.4717   49.0753 C   0  0  0  0  0  0  0  0  0  0  0  0
    9.7761   -1.2394   49.5167 C   0  0  0  0  0  0  0  0  0  0  0  0
    8.6397   -3.3252   49.7339 C   0  0  0  0  0  0  0  0  0  0  0  0
    8.9861   -0.7034   50.5819 C   0  0  0  0  0  0  0  0  0  0  0  0
   14.7137    0.5128   47.0925 C   0  0  0  0  0  0  0  0  0  0  0  0
    8.1815   -1.5423   51.2387 C   0  0  0  0  0  0  0  0  0  0  0  0
    8.4156   -4.7176   49.2102 O   0  0  0  0  0  0  0  0  0  0  0  0
   13.6915   -1.2597   48.4795 C   0  0  0  0  0  0  0  0  0  0  0  0
   14.7842   -1.1839   49.3622 C   0  0  0  0  0  0  0  0  0  0  0  0
   15.7412    0.6156   47.9897 C   0  0  0  0  0  0  0  0  0  0  0  0
    7.9330   -2.9111   50.8466 C   0  0  0  0  0  0  0  0  0  0  0  0
   12.6520   -2.2102   48.6868 C   0  0  0  0  0  0  0  0  0  0  0  0
    7.1893   -5.2296   49.3720 C   0  0  0  0  0  0  0  0  0  0  0  0
   15.6918   -0.2582   49.0865 C   0  0  0  0  0  0  0  0  0  0  0  0
    6.3250   -4.3932   48.2386 C   0  0  0  0  0  0  0  0  0  0  0  0
  1  2  2  0
  2  3  1  0
  2  4  1  0
  3  5  1  0
  4  6  2  0
  5  7  1  0
  4  8  1  0
  8  9  2  0
  8 10  1  0
  3 11  1  0
 10 11  2  0
  6 12  1  0
  7 13  2  0
 11 14  1  0
 13 15  1  0
  9 16  1  0
 17  7  1  6
 14 17  1  0
 14 18  2  0
 18 19  1  0
 15 20  2  0
 17 20  1  0
 12 21  1  0
 19 22  1  0
  9 23  1  0
 12 23  2  0
 21 24  1  0
 19 25  2  0
 20 25  1  0
 24 26  1  0
 24 27  2  0
  5 28  1  1
 26 29  1  0
 26 30  2  0
 30 31  1  0
 29 32  1  0
 32 33  1  0
 33 34  1  0
 33 35  2  0
 34 36  2  0
 31 37  2  0
 36 38  1  0
 35 39  1  0
 31 40  1  0
 40 41  2  0
 37 42  1  0
 35 43  1  0
 38 43  2  0
 29 44  1  0
 40 44  1  0
 39 45  1  0
 41 46  1  0
 42 46  2  0
 16 47  2  3
 45 47  1  0
M  END
$$$$
O14757_Pocket2Mol_idx-in-all-generaetd-637
     RDKit          3D

 35 42  0  0  0  0  0  0  0  0999 V2000
    1.5482   -0.3111   41.9233 C   0  0  0  0  0  0  0  0  0  0  0  0
    2.7284    0.2018   42.1525 N   0  0  0  0  0  0  0  0  0  0  0  0
    3.7893   -0.3016   42.7005 C   0  0  0  0  0  0  0  0  0  0  0  0
    3.3781   -1.7350   43.0000 C   0  0  0  0  0  0  0  0  0  0  0  0
    2.0339   -1.9619   42.6217 C   0  0  0  0  0  0  0  0  0  0  0  0
    5.0090    0.1219   42.9340 N   0  0  0  0  0  0  0  0  0  0  0  0
    4.2895   -2.4979   43.6707 C   0  0  0  0  0  0  0  0  0  0  0  0
    5.8391   -0.6675   43.6343 C   0  0  0  0  0  0  0  0  0  0  0  0
    6.9849   -0.2377   44.0028 N   0  0  0  0  0  0  0  0  0  0  0  0
    4.0426   -3.8794   44.0832 C   0  0  0  0  0  0  0  0  0  0  0  0
    7.6796   -0.8734   44.9326 C   0  0  0  0  0  0  0  0  0  0  0  0
    1.1064   -2.9576   42.4211 C   0  0  0  0  0  0  0  0  0  0  0  0
    5.5298   -1.9496   44.0315 C   0  0  0  0  0  0  0  0  0  0  0  0
    3.8954   -4.1817   45.4718 C   0  0  0  0  0  0  0  0  0  0  0  0
    0.6765   -3.5480   43.4006 C   0  0  1  0  0  0  0  0  0  0  0  0
    0.5804   -3.2191   41.1635 C   0  0  0  0  0  0  0  0  0  0  0  0
    2.8083   -4.8227   45.9203 N   0  0  0  0  0  0  0  0  0  0  0  0
   -0.1574   -4.5754   42.9329 N   0  0  0  0  0  0  0  0  0  0  0  0
    6.5271   -2.5531   44.9677 C   0  0  0  0  0  0  0  0  0  0  0  0
   -0.2272   -4.3703   41.5137 C   0  0  0  0  0  0  0  0  0  0  0  0
    7.5095   -2.0029   45.3993 C   0  0  0  0  0  0  0  0  0  0  0  0
    8.2550   -2.6982   46.3988 C   0  0  2  0  0  0  0  0  0  0  0  0
    8.8975   -0.3029   45.3267 O   0  0  0  0  0  0  0  0  0  0  0  0
    4.8299   -4.4637   46.4212 C   0  0  0  0  0  0  0  0  0  0  0  0
    4.2707   -4.9248   47.6295 N   0  0  0  0  0  0  0  0  0  0  0  0
    3.2045   -5.2092   47.1521 C   0  0  0  0  0  0  0  0  0  0  0  0
    1.4482   -4.6186   45.4134 C   0  0  0  0  0  0  0  0  0  0  0  0
    1.2398   -3.5043   44.6236 O   0  0  0  0  0  0  0  0  0  0  0  0
    6.3317   -3.9297   46.0870 C   0  0  2  0  0  0  0  0  0  0  0  0
    9.5296   -2.5449   46.9776 C   0  0  0  0  0  0  0  0  0  0  0  0
    9.7921   -1.7530   47.9018 O   0  0  0  0  0  0  0  0  0  0  0  0
    7.4454   -3.8344   46.8035 C   0  0  0  0  0  0  0  0  0  0  0  0
    0.5592   -5.2871   45.8664 O   0  0  0  0  0  0  0  0  0  0  0  0
   10.5014   -3.0841   46.3148 O   0  0  0  0  0  0  0  0  0  0  0  0
   11.6695   -2.3631   46.1227 C   0  0  0  0  0  0  0  0  0  0  0  0
  1  2  1  0
  2  3  2  0
  3  4  1  0
  1  5  2  0
  4  5  1  0
  3  6  1  0
  4  7  2  0
  6  8  1  0
  8  9  1  0
  7 10  1  0
  9 11  1  0
  5 12  1  0
  7 13  1  0
  8 13  2  0
 10 14  1  0
 12 15  1  0
 12 16  2  0
 14 17  1  0
 15 18  1  0
 13 19  1  0
 16 20  1  0
 18 20  2  0
 11 21  1  0
 19 21  2  0
 21 22  1  0
 11 23  2  0
 14 24  2  0
 24 25  1  0
 17 26  1  0
 25 26  2  0
 17 27  1  0
 15 28  1  6
 27 28  1  0
 19 29  1  0
 24 29  1  0
 22 30  1  6
 30 31  2  0
 22 32  1  0
 29 32  1  1
 27 33  2  0
 30 34  1  0
 34 35  1  0
M  END
$$$$
O14757_Pocket2Mol_idx-in-all-generaetd-638
     RDKit          3D

 25 28  0  0  0  0  0  0  0  0999 V2000
    5.3514   -0.5125   43.1709 C   0  0  0  0  0  0  0  0  0  0  0  0
    5.1845   -1.6713   43.7896 C   0  0  0  0  0  0  0  0  0  0  0  0
    4.3975    0.1846   42.6789 N   0  0  0  0  0  0  0  0  0  0  0  0
    6.1110   -2.4794   44.5026 C   0  0  0  0  0  0  0  0  0  0  0  0
    3.1882   -0.2361   42.4346 C   0  0  0  0  0  0  0  0  0  0  0  0
    5.6737   -3.4701   45.3157 C   0  0  0  0  0  0  0  0  0  0  0  0
    2.8873   -1.5370   42.8148 N   0  0  0  0  0  0  0  0  0  0  0  0
    2.2882    0.4424   41.8227 N   0  0  0  0  0  0  0  0  0  0  0  0
    4.4679   -4.1651   44.9989 C   0  0  0  0  0  0  0  0  0  0  0  0
    7.3419   -1.8381   44.7891 C   0  0  0  0  0  0  0  0  0  0  0  0
    3.8600   -2.3782   43.6575 C   0  0  0  0  0  0  0  0  0  0  0  0
    3.5111   -3.5244   44.2317 N   0  0  0  0  0  0  0  0  0  0  0  0
    1.1058   -0.5347   41.7583 C   0  0  0  0  0  0  0  0  0  0  0  0
    1.5663   -1.8116   42.4239 C   0  0  0  0  0  0  0  0  0  0  0  0
    6.5651   -4.2288   46.1610 C   0  0  0  0  0  0  0  0  0  0  0  0
    0.8596   -3.0134   42.4732 C   0  0  0  0  0  0  0  0  0  0  0  0
    0.5770   -3.5524   43.4434 O   0  0  0  0  0  0  0  0  0  0  0  0
    6.0810   -5.2832   46.8655 O   0  0  0  0  0  0  0  0  0  0  0  0
    8.1301   -2.4432   45.9296 C   0  0  1  0  0  0  0  0  0  0  0  0
    7.7503   -3.6050   46.6450 C   0  0  0  0  0  0  0  0  0  0  0  0
    0.2067   -3.4470   41.2445 C   0  0  0  0  0  0  0  0  0  0  0  0
    8.5257   -4.1939   47.5534 C   0  0  0  0  0  0  0  0  0  0  0  0
    9.7343   -4.4631   47.3392 O   0  0  0  0  0  0  0  0  0  0  0  0
    9.3858   -1.8352   46.1420 C   0  0  0  0  0  0  0  0  0  0  0  0
    8.1884   -4.0993   48.8772 O   0  0  0  0  0  0  0  0  0  0  0  0
  1  2  1  0
  1  3  2  0
  2  4  1  0
  3  5  1  0
  4  6  1  0
  5  7  1  0
  5  8  2  0
  6  9  2  0
  4 10  2  0
  2 11  2  0
  7 11  1  0
  9 12  1  0
 11 12  1  0
  8 13  1  0
  7 14  1  0
 13 14  2  0
  6 15  1  0
 14 16  1  0
 16 17  2  0
 15 18  1  0
 10 19  1  0
 15 20  2  0
 19 20  1  0
 16 21  1  0
 20 22  1  0
 22 23  2  0
 19 24  1  6
 22 25  1  0
M  END
$$$$
O14757_Pocket2Mol_idx-in-all-generaetd-639
     RDKit          3D

 34 41  0  0  0  0  0  0  0  0999 V2000
    4.8173    0.2791   42.6993 N   0  0  0  0  0  0  0  0  0  0  0  0
    5.3297   -0.7477   43.3688 C   0  0  0  0  0  0  0  0  0  0  0  0
    3.4732   -0.2235   42.4530 C   0  0  0  0  0  0  0  0  0  0  0  0
    4.4984   -1.7876   43.6214 C   0  0  0  0  0  0  0  0  0  0  0  0
    3.3438   -1.5190   42.9379 C   0  0  0  0  0  0  0  0  0  0  0  0
    2.1381   -2.3401   42.8254 C   0  0  0  0  0  0  0  0  0  0  0  0
    2.3894    0.3572   41.9843 N   0  0  0  0  0  0  0  0  0  0  0  0
    4.9180   -3.0430   44.3829 C   0  0  0  0  0  0  0  0  0  0  0  0
    5.9444   -2.9314   45.3934 C   0  0  0  0  0  0  0  0  0  0  0  0
    4.2808   -4.1329   44.3252 C   0  0  0  0  0  0  0  0  0  0  0  0
    3.1588   -4.4221   43.4852 O   0  0  0  0  0  0  0  0  0  0  0  0
    4.5704   -5.2518   45.1995 C   0  0  0  0  0  0  0  0  0  0  0  0
    1.9853   -3.6792   43.3495 C   0  0  0  0  0  0  0  0  0  0  0  0
    0.9181   -4.3294   43.4638 C   0  0  0  0  0  0  0  0  0  0  0  0
    6.7403   -1.6226   45.5272 C   0  0  2  0  0  0  0  0  0  0  0  0
    0.9752   -1.7845   42.3366 C   0  0  0  0  0  0  0  0  0  0  0  0
    6.2516   -3.7287   46.2722 C   0  0  0  0  0  0  0  0  0  0  0  0
   -0.2404   -2.4179   42.2529 C   0  0  0  0  0  0  0  0  0  0  0  0
   -1.3835   -1.8904   41.6559 N   0  0  0  0  0  0  0  0  0  0  0  0
    3.8706   -6.4216   45.1394 O   0  0  0  0  0  0  0  0  0  0  0  0
    0.9456   -0.2789   41.7649 C   0  0  0  0  0  0  0  0  0  0  0  0
   -0.2678   -3.6969   42.7575 C   0  0  0  0  0  0  0  0  0  0  0  0
    6.3913   -0.7000   44.3807 N   0  0  0  0  0  0  0  0  0  0  0  0
    7.9391   -1.5867   46.0069 C   0  0  0  0  0  0  0  0  0  0  0  0
    8.7787   -0.4879   45.9761 O   0  0  0  0  0  0  0  0  0  0  0  0
    5.3853   -5.1216   46.3780 C   0  0  0  0  0  0  0  0  0  0  0  0
    8.4504   -2.7517   46.6262 N   0  0  0  0  0  0  0  0  0  0  0  0
    7.4807   -3.7374   47.0380 C   0  0  0  0  0  0  0  0  0  0  0  0
    9.7261   -2.6138   47.3732 C   0  0  0  0  0  0  0  0  0  0  0  0
    9.9606   -3.7577   48.0581 C   0  0  0  0  0  0  0  0  0  0  0  0
   10.7578   -2.0043   46.5264 C   0  0  0  0  0  0  0  0  0  0  0  0
   11.4226   -3.1082   45.7384 C   0  0  0  0  0  0  0  0  0  0  0  0
   10.4183   -4.7800   47.1098 C   0  0  0  0  0  0  0  0  0  0  0  0
   11.6388   -4.3048   46.4582 N   0  0  0  0  0  0  0  0  0  0  0  0
  1  2  2  0
  1  3  1  0
  2  4  1  0
  3  5  1  0
  4  5  2  0
  5  6  1  0
  3  7  2  0
  4  8  1  0
  8  9  1  0
  8 10  2  0
 10 11  1  0
 10 12  1  0
  6 13  1  0
 11 13  1  0
 13 14  2  0
  9 15  1  0
  6 16  2  0
  9 17  2  0
 16 18  1  0
 18 19  1  0
 12 20  1  0
  7 21  1  0
 16 21  1  0
 14 22  1  0
 18 22  2  0
  2 23  1  0
 15 23  1  6
 15 24  1  0
 24 25  2  0
 12 26  2  0
 17 26  1  0
 24 27  1  0
 17 28  1  0
 27 28  1  0
 27 29  1  0
 29 30  1  0
 29 31  1  0
 31 32  1  0
 30 33  1  0
 32 34  1  0
 33 34  1  0
M  END
$$$$
O14757_Pocket2Mol_idx-in-all-generaetd-640
     RDKit          3D

 36 43  0  0  0  0  0  0  0  0999 V2000
    4.8173    0.2791   42.6993 N   0  0  0  0  0  0  0  0  0  0  0  0
    5.3297   -0.7477   43.3688 C   0  0  0  0  0  0  0  0  0  0  0  0
    3.4732   -0.2235   42.4530 C   0  0  0  0  0  0  0  0  0  0  0  0
    4.4984   -1.7876   43.6214 C   0  0  0  0  0  0  0  0  0  0  0  0
    3.3438   -1.5190   42.9379 C   0  0  0  0  0  0  0  0  0  0  0  0
    2.1381   -2.3401   42.8254 C   0  0  0  0  0  0  0  0  0  0  0  0
    2.3894    0.3572   41.9843 N   0  0  0  0  0  0  0  0  0  0  0  0
    4.9180   -3.0430   44.3829 C   0  0  0  0  0  0  0  0  0  0  0  0
    5.9444   -2.9314   45.3934 C   0  0  0  0  0  0  0  0  0  0  0  0
    4.2808   -4.1329   44.3252 C   0  0  0  0  0  0  0  0  0  0  0  0
    3.1588   -4.4221   43.4852 O   0  0  0  0  0  0  0  0  0  0  0  0
    4.5704   -5.2518   45.1995 C   0  0  0  0  0  0  0  0  0  0  0  0
    1.9853   -3.6792   43.3495 C   0  0  0  0  0  0  0  0  0  0  0  0
    0.9181   -4.3294   43.4638 C   0  0  0  0  0  0  0  0  0  0  0  0
    6.7403   -1.6226   45.5272 C   0  0  0  0  0  0  0  0  0  0  0  0
    0.9752   -1.7845   42.3366 C   0  0  0  0  0  0  0  0  0  0  0  0
    5.5543   -5.1294   46.1078 C   0  0  0  0  0  0  0  0  0  0  0  0
    7.9772   -1.5901   46.1526 C   0  0  0  0  0  0  0  0  0  0  0  0
    8.6171   -2.7180   46.2255 N   0  0  0  0  0  0  0  0  0  0  0  0
    6.5160   -0.7262   44.3482 C   0  0  0  0  0  0  0  0  0  0  0  0
    5.8670   -6.1665   47.0241 O   0  0  0  0  0  0  0  0  0  0  0  0
   -0.2437   -2.4672   42.2827 C   0  0  0  0  0  0  0  0  0  0  0  0
   -0.2692   -3.7414   42.8178 C   0  0  0  0  0  0  0  0  0  0  0  0
    6.3047   -3.9815   46.2287 C   0  0  0  0  0  0  0  0  0  0  0  0
    8.0291   -3.5777   47.1715 C   0  0  0  0  0  0  0  0  0  0  0  0
    7.2074   -4.2766   47.0234 C   0  0  0  0  0  0  0  0  0  0  0  0
    1.1879   -0.4281   41.8692 C   0  0  0  0  0  0  0  0  0  0  0  0
   10.1009   -2.3306   46.5895 C   0  0  0  0  0  0  0  0  0  0  0  0
   10.5049   -1.2887   46.4663 O   0  0  0  0  0  0  0  0  0  0  0  0
   10.9104   -3.4150   47.1173 C   0  0  0  0  0  0  0  0  0  0  0  0
   11.1982   -4.4016   46.2515 C   0  0  0  0  0  0  0  0  0  0  0  0
   11.7101   -3.1924   48.2324 C   0  0  0  0  0  0  0  0  0  0  0  0
   12.5589   -4.2029   48.6532 C   0  0  0  0  0  0  0  0  0  0  0  0
   12.8021   -5.2808   47.8337 C   0  0  0  0  0  0  0  0  0  0  0  0
   10.5236   -4.5844   45.0508 O   0  0  0  0  0  0  0  0  0  0  0  0
   12.1216   -5.3881   46.6361 C   0  0  0  0  0  0  0  0  0  0  0  0
  1  2  2  0
  1  3  1  0
  2  4  1  0
  3  5  1  0
  4  5  2  0
  5  6  1  0
  3  7  2  0
  4  8  1  0
  8  9  2  0
  8 10  1  0
 10 11  1  0
 10 12  2  0
  6 13  2  0
 11 13  1  0
 13 14  1  0
  9 15  1  0
  6 16  1  0
 12 17  1  0
 15 18  1  0
 18 19  1  0
  2 20  1  0
 15 20  2  0
 17 21  1  0
 16 22  2  0
 14 23  2  0
 22 23  1  0
  9 24  1  0
 17 24  2  0
 19 25  1  0
 24 26  1  0
 25 26  2  0
  7 27  1  0
 16 27  1  0
 19 28  1  0
 28 29  2  0
 28 30  1  0
 30 31  2  0
 30 32  1  0
 32 33  2  0
 33 34  1  0
 31 35  1  0
 31 36  1  0
 34 36  2  0
M  END
$$$$
O14757_Pocket2Mol_idx-in-all-generaetd-641
     RDKit          3D

 23 27  0  0  0  0  0  0  0  0999 V2000
    4.7385    0.1059   43.0081 N   0  0  0  0  0  0  0  0  0  0  0  0
    3.5576   -0.4394   42.7701 C   0  0  0  0  0  0  0  0  0  0  0  0
    5.6199   -0.6385   43.6919 C   0  0  0  0  0  0  0  0  0  0  0  0
    3.1108   -1.7166   43.0004 C   0  0  2  0  0  0  0  0  0  0  0  0
    2.5816    0.3318   42.0429 N   0  0  0  0  0  0  0  0  0  0  0  0
    5.0516   -2.0396   44.0558 N   0  0  0  0  0  0  0  0  0  0  0  0
    1.4914   -0.5290   41.9455 C   0  0  0  0  0  0  0  0  0  0  0  0
    1.6895   -1.7888   42.4358 C   0  0  0  0  0  0  0  0  0  0  0  0
    3.8615   -2.4624   43.6991 C   0  0  0  0  0  0  0  0  0  0  0  0
    3.6218   -3.7143   44.1260 N   0  0  0  0  0  0  0  0  0  0  0  0
    0.8571   -2.9184   42.3034 C   0  0  0  0  0  0  0  0  0  0  0  0
    4.3767   -4.4752   44.8869 C   0  0  0  0  0  0  0  0  0  0  0  0
    6.0127   -2.6657   45.0345 C   0  0  0  0  0  0  0  0  0  0  0  0
    0.4904   -3.5548   43.2970 C   0  0  0  0  0  0  0  0  0  0  0  0
    5.5789   -3.8802   45.4314 C   0  0  0  0  0  0  0  0  0  0  0  0
    3.9149   -5.6820   45.3078 O   0  0  0  0  0  0  0  0  0  0  0  0
    6.6207   -4.4106   46.2638 C   0  0  0  0  0  0  0  0  0  0  0  0
    7.1962   -2.3328   45.5763 C   0  0  0  0  0  0  0  0  0  0  0  0
    7.8145   -3.2909   46.5029 S   0  0  0  0  0  0  0  0  0  0  0  0
    0.2078   -3.1123   41.1799 C   0  0  0  0  0  0  0  0  0  0  0  0
   -0.5635   -4.2436   41.0308 C   0  0  0  0  0  0  0  0  0  0  0  0
   -0.2045   -4.8128   42.9303 C   0  0  0  0  0  0  0  0  0  0  0  0
   -0.6273   -4.9857   41.8390 C   0  0  0  0  0  0  0  0  0  0  0  0
  1  2  1  0
  1  3  2  0
  2  4  1  0
  2  5  2  0
  3  6  1  0
  5  7  1  0
  4  8  1  1
  7  8  2  0
  4  9  1  0
  6  9  1  0
  9 10  2  0
  8 11  1  0
 10 12  1  0
  6 13  1  0
 11 14  2  0
 12 15  1  0
 13 15  1  0
 12 16  2  0
 15 17  2  0
 13 18  2  0
 17 19  1  0
 18 19  1  0
 11 20  1  0
 20 21  2  0
 14 22  1  0
 21 23  1  0
 22 23  2  0
M  END
$$$$
O14757_Pocket2Mol_idx-in-all-generaetd-642
     RDKit          3D

 32 36  0  0  0  0  0  0  0  0999 V2000
    5.3420    0.2589   42.8836 O   0  0  0  0  0  0  0  0  0  0  0  0
    5.1627   -0.7554   43.4753 C   0  0  0  0  0  0  0  0  0  0  0  0
    4.0509   -1.4657   43.4177 N   0  0  0  0  0  0  0  0  0  0  0  0
    5.9969   -1.2317   44.6840 C   0  0  0  0  0  0  0  0  0  0  0  0
    2.9618   -1.1021   42.5918 C   0  0  1  0  0  0  0  0  0  0  0  0
    7.3392   -0.8596   44.8412 C   0  0  0  0  0  0  0  0  0  0  0  0
    1.9754   -2.0820   42.2741 C   0  0  0  0  0  0  0  0  0  0  0  0
    5.5910   -2.4282   45.3439 C   0  0  0  0  0  0  0  0  0  0  0  0
    6.5874   -2.9636   46.1581 C   0  0  0  0  0  0  0  0  0  0  0  0
    4.2763   -3.0680   45.0493 N   0  0  0  0  0  0  0  0  0  0  0  0
    3.6188   -2.5886   44.2024 C   0  0  0  0  0  0  0  0  0  0  0  0
    8.1921   -1.4071   45.7505 C   0  0  0  0  0  0  0  0  0  0  0  0
    1.0154   -1.8839   41.2980 C   0  0  0  0  0  0  0  0  0  0  0  0
    2.5720   -3.3564   43.9063 C   0  0  0  0  0  0  0  0  0  0  0  0
    0.2502   -2.8976   41.0751 C   0  0  0  0  0  0  0  0  0  0  0  0
    6.1761   -4.1775   47.0209 C   0  0  0  0  0  0  0  0  0  0  0  0
    1.7266   -3.1047   43.0115 C   0  0  2  0  0  0  0  0  0  0  0  0
    2.3696   -4.5367   44.7536 N   0  0  0  0  0  0  0  0  0  0  0  0
    1.2264   -5.2346   44.4693 C   0  0  0  0  0  0  0  0  0  0  0  0
    0.7187   -3.8955   42.5465 C   0  0  0  0  0  0  0  0  0  0  0  0
    9.4576   -0.8949   46.0327 N   0  0  0  0  0  0  0  0  0  0  0  0
    0.8625   -6.3901   45.2462 C   0  0  0  0  0  0  0  0  0  0  0  0
    7.6467   -2.5139   46.4892 C   0  0  0  0  0  0  0  0  0  0  0  0
   10.4908   -1.5336   45.8242 C   0  0  0  0  0  0  0  0  0  0  0  0
    0.3057   -4.9299   43.2909 C   0  0  0  0  0  0  0  0  0  0  0  0
   11.5916   -1.4291   46.7436 C   0  0  0  0  0  0  0  0  0  0  0  0
    2.4731    0.2072   42.8319 O   0  0  0  0  0  0  0  0  0  0  0  0
   10.5554   -2.3681   44.8669 O   0  0  0  0  0  0  0  0  0  0  0  0
   12.8398   -1.9264   46.2817 C   0  0  0  0  0  0  0  0  0  0  0  0
   13.6767   -1.0025   45.6088 C   0  0  0  0  0  0  0  0  0  0  0  0
   14.4343   -1.3947   44.6612 O   0  0  0  0  0  0  0  0  0  0  0  0
   13.7041    0.2016   45.8789 O   0  0  0  0  0  0  0  0  0  0  0  0
  1  2  2  0
  2  3  1  0
  2  4  1  0
  3  5  1  0
  4  6  2  0
  5  7  1  0
  4  8  1  0
  8  9  2  0
  8 10  1  0
  3 11  1  0
 10 11  2  0
  6 12  1  0
  7 13  2  0
 11 14  1  0
 13 15  1  0
  9 16  1  0
 17  7  1  6
 14 17  1  0
 14 18  2  0
 18 19  1  0
 15 20  2  0
 17 20  1  0
 12 21  1  0
 19 22  1  0
  9 23  1  0
 12 23  2  0
 21 24  1  0
 19 25  2  0
 20 25  1  0
 24 26  1  0
  5 27  1  1
 24 28  2  0
 26 29  1  0
 29 30  1  0
 30 31  2  0
 30 32  1  0
M  END
$$$$
O14757_Pocket2Mol_idx-in-all-generaetd-643
     RDKit          3D

 40 47  0  0  0  0  0  0  0  0999 V2000
    1.5482   -0.3111   41.9233 C   0  0  0  0  0  0  0  0  0  0  0  0
    2.7284    0.2018   42.1525 N   0  0  0  0  0  0  0  0  0  0  0  0
    3.7893   -0.3016   42.7005 C   0  0  0  0  0  0  0  0  0  0  0  0
    3.3781   -1.7350   43.0000 C   0  0  0  0  0  0  0  0  0  0  0  0
    2.0339   -1.9619   42.6217 C   0  0  0  0  0  0  0  0  0  0  0  0
    4.1166   -2.4997   43.8458 C   0  0  0  0  0  0  0  0  0  0  0  0
    1.1731   -3.0051   42.5773 C   0  0  0  0  0  0  0  0  0  0  0  0
    0.4701   -3.2344   41.4901 C   0  0  0  0  0  0  0  0  0  0  0  0
    5.3799   -1.7814   44.2691 C   0  0  0  0  0  0  0  0  0  0  0  0
    5.0159   -0.0180   43.1201 N   0  0  0  0  0  0  0  0  0  0  0  0
    5.7693   -0.6937   43.8418 C   0  0  0  0  0  0  0  0  0  0  0  0
    0.8078   -3.6166   43.6782 C   0  0  0  0  0  0  0  0  0  0  0  0
    0.0663   -4.7011   43.7415 N   0  0  0  0  0  0  0  0  0  0  0  0
    6.2223   -2.6843   45.1565 C   0  0  0  0  0  0  0  0  0  0  0  0
    6.9599   -0.2351   44.2608 N   0  0  0  0  0  0  0  0  0  0  0  0
    5.9065   -3.9037   45.7499 N   0  0  0  0  0  0  0  0  0  0  0  0
   -0.5459   -5.1185   42.5870 C   0  0  0  0  0  0  0  0  0  0  0  0
    5.7480   -4.0340   46.9810 C   0  0  0  0  0  0  0  0  0  0  0  0
    7.4448   -1.8511   45.4198 C   0  0  0  0  0  0  0  0  0  0  0  0
    7.7572   -0.7827   45.0128 C   0  0  0  0  0  0  0  0  0  0  0  0
    8.4076   -2.7217   46.4541 C   0  0  0  0  0  0  0  0  0  0  0  0
    9.3167   -2.0988   47.1049 N   0  0  0  0  0  0  0  0  0  0  0  0
   -0.4719   -4.3893   41.5406 C   0  0  0  0  0  0  0  0  0  0  0  0
    8.3667   -4.0284   46.5743 N   0  0  0  0  0  0  0  0  0  0  0  0
    9.5309   -4.3147   47.3094 C   0  0  0  0  0  0  0  0  0  0  0  0
    5.3113   -3.3789   47.8005 O   0  0  0  0  0  0  0  0  0  0  0  0
    9.9022   -5.6301   47.7684 C   0  0  0  0  0  0  0  0  0  0  0  0
    5.4470   -5.5868   47.2096 C   0  0  0  0  0  0  0  0  0  0  0  0
   11.2254   -5.8679   48.0402 C   0  0  0  0  0  0  0  0  0  0  0  0
    8.9736   -6.6532   47.8548 C   0  0  0  0  0  0  0  0  0  0  0  0
   10.0616   -3.0670   47.6360 C   0  0  0  0  0  0  0  0  0  0  0  0
    7.5566   -6.3564   47.5477 N   0  0  0  0  0  0  0  0  0  0  0  0
   12.3328   -4.8893   47.9268 C   0  0  0  0  0  0  0  0  0  0  0  0
   12.2085   -3.9673   46.9997 C   0  0  0  0  0  0  0  0  0  0  0  0
    9.4145   -7.9798   47.8728 C   0  0  0  0  0  0  0  0  0  0  0  0
   11.4854   -2.8412   47.7563 C   0  0  0  0  0  0  0  0  0  0  0  0
    8.3834   -9.0329   47.8983 C   0  0  0  0  0  0  0  0  0  0  0  0
   11.6165   -7.2099   48.2480 C   0  0  0  0  0  0  0  0  0  0  0  0
    6.3997   -6.1934   48.0944 C   0  0  0  0  0  0  0  0  0  0  0  0
   10.5749   -8.2043   48.2393 C   0  0  0  0  0  0  0  0  0  0  0  0
  1  2  1  0
  2  3  2  0
  3  4  1  0
  1  5  2  0
  4  5  1  0
  4  6  2  0
  5  7  1  0
  7  8  2  0
  6  9  1  0
  3 10  1  0
  9 11  2  0
 10 11  1  0
  7 12  1  0
 12 13  2  0
  9 14  1  0
 11 15  1  0
 14 16  1  0
 13 17  1  0
 16 18  1  0
 14 19  2  0
 15 20  2  0
 19 20  1  0
 19 21  1  0
 21 22  2  0
  8 23  1  0
 17 23  2  0
 21 24  1  0
 24 25  1  0
 18 26  2  0
 25 27  1  0
 18 28  1  0
 27 29  2  0
 27 30  1  0
 22 31  1  0
 25 31  2  0
 30 32  1  0
 29 33  1  0
 33 34  1  0
 30 35  2  0
 31 36  1  0
 34 36  1  0
 35 37  1  0
 29 38  1  0
 28 39  1  0
 32 39  1  0
 35 40  1  0
 38 40  2  0
M  END
$$$$
O14757_Pocket2Mol_idx-in-all-generaetd-644
     RDKit          3D

 41 46  0  0  0  0  0  0  0  0999 V2000
    1.5482   -0.3111   41.9233 C   0  0  0  0  0  0  0  0  0  0  0  0
    2.7284    0.2018   42.1525 N   0  0  0  0  0  0  0  0  0  0  0  0
    3.7893   -0.3016   42.7005 C   0  0  0  0  0  0  0  0  0  0  0  0
    3.3781   -1.7350   43.0000 C   0  0  0  0  0  0  0  0  0  0  0  0
    2.0339   -1.9619   42.6217 C   0  0  0  0  0  0  0  0  0  0  0  0
    4.1166   -2.4997   43.8458 C   0  0  0  0  0  0  0  0  0  0  0  0
    1.1731   -3.0051   42.5773 C   0  0  0  0  0  0  0  0  0  0  0  0
    0.4701   -3.2344   41.4901 C   0  0  0  0  0  0  0  0  0  0  0  0
    5.3799   -1.7814   44.2691 C   0  0  0  0  0  0  0  0  0  0  0  0
    5.0159   -0.0180   43.1201 N   0  0  0  0  0  0  0  0  0  0  0  0
    5.7693   -0.6937   43.8418 C   0  0  0  0  0  0  0  0  0  0  0  0
    0.8078   -3.6166   43.6782 C   0  0  0  0  0  0  0  0  0  0  0  0
    0.0663   -4.7011   43.7415 N   0  0  0  0  0  0  0  0  0  0  0  0
    6.2223   -2.6843   45.1565 C   0  0  0  0  0  0  0  0  0  0  0  0
    6.9599   -0.2351   44.2608 N   0  0  0  0  0  0  0  0  0  0  0  0
    5.9065   -3.9037   45.7499 N   0  0  0  0  0  0  0  0  0  0  0  0
   -0.5459   -5.1185   42.5870 C   0  0  0  0  0  0  0  0  0  0  0  0
    5.7480   -4.0340   46.9810 C   0  0  0  0  0  0  0  0  0  0  0  0
    7.4448   -1.8511   45.4198 C   0  0  0  0  0  0  0  0  0  0  0  0
    7.7572   -0.7827   45.0128 C   0  0  0  0  0  0  0  0  0  0  0  0
    8.4076   -2.7217   46.4541 C   0  0  0  0  0  0  0  0  0  0  0  0
    9.3167   -2.0988   47.1049 N   0  0  0  0  0  0  0  0  0  0  0  0
   -0.4719   -4.3893   41.5406 C   0  0  0  0  0  0  0  0  0  0  0  0
    8.3667   -4.0284   46.5743 N   0  0  0  0  0  0  0  0  0  0  0  0
   10.1532   -2.5726   47.9567 C   0  0  0  0  0  0  0  0  0  0  0  0
   11.0726   -1.7892   48.6998 C   0  0  0  0  0  0  0  0  0  0  0  0
   10.4886   -0.9372   49.4584 C   0  0  0  0  0  0  0  0  0  0  0  0
   10.2139   -3.8947   48.0407 C   0  0  0  0  0  0  0  0  0  0  0  0
    6.6188   -4.9855   47.3969 N   0  0  0  0  0  0  0  0  0  0  0  0
    5.1401   -3.1961   47.7242 O   0  0  0  0  0  0  0  0  0  0  0  0
    9.2230   -4.6492   47.2923 C   0  0  0  0  0  0  0  0  0  0  0  0
   12.4306   -1.6942   48.6002 C   0  0  0  0  0  0  0  0  0  0  0  0
   13.1277   -2.5738   47.4657 C   0  0  0  0  0  0  0  0  0  0  0  0
   12.9867   -0.9385   49.4619 C   0  0  0  0  0  0  0  0  0  0  0  0
   11.2810   -0.4278   50.4234 C   0  0  0  0  0  0  0  0  0  0  0  0
   12.6216   -0.3488   50.3563 C   0  0  0  0  0  0  0  0  0  0  0  0
   13.6100   -3.6562   47.7087 O   0  0  0  0  0  0  0  0  0  0  0  0
   12.9644   -2.1312   46.2667 N   0  0  0  0  0  0  0  0  0  0  0  0
   13.7649   -2.7084   45.2445 C   0  0  0  0  0  0  0  0  0  0  0  0
   13.5578   -1.6939   44.0930 C   0  0  0  0  0  0  0  0  0  0  0  0
   14.6234   -0.8052   44.0246 C   0  0  0  0  0  0  0  0  0  0  0  0
  1  2  1  0
  2  3  2  0
  3  4  1  0
  1  5  2  0
  4  5  1  0
  4  6  2  0
  5  7  1  0
  7  8  2  0
  6  9  1  0
  3 10  1  0
  9 11  2  0
 10 11  1  0
  7 12  1  0
 12 13  2  0
  9 14  1  0
 11 15  1  0
 14 16  1  0
 13 17  1  0
 16 18  1  0
 14 19  2  0
 15 20  2  0
 19 20  1  0
 19 21  1  0
 21 22  2  0
  8 23  1  0
 17 23  2  0
 21 24  1  0
 22 25  1  0
 25 26  1  0
 26 27  2  0
 25 28  2  0
 18 29  1  0
 18 30  2  0
 24 31  2  0
 28 31  1  0
 26 32  1  0
 32 33  1  0
 32 34  2  0
 27 35  1  0
 34 36  1  0
 35 36  2  0
 33 37  2  0
 33 38  1  0
 38 39  1  0
 39 40  1  0
 40 41  1  0
M  END
$$$$
O14757_Pocket2Mol_idx-in-all-generaetd-645
     RDKit          3D

 30 35  0  0  0  0  0  0  0  0999 V2000
    5.3420    0.2589   42.8836 N   0  0  0  0  0  0  0  0  0  0  0  0
    5.6740   -0.8311   43.5645 C   0  0  0  0  0  0  0  0  0  0  0  0
    4.6589   -1.7043   43.6799 C   0  0  0  0  0  0  0  0  0  0  0  0
    3.6286   -1.0900   42.8577 C   0  0  0  0  0  0  0  0  0  0  0  0
    4.0610    0.1743   42.5227 N   0  0  0  0  0  0  0  0  0  0  0  0
    2.2711   -1.4200   42.4728 C   0  0  0  0  0  0  0  0  0  0  0  0
    4.3843   -2.8218   44.3745 C   0  0  0  0  0  0  0  0  0  0  0  0
    1.4505   -0.5265   41.9137 C   0  0  0  0  0  0  0  0  0  0  0  0
    1.9236   -2.8327   42.4366 C   0  0  0  0  0  0  0  0  0  0  0  0
    0.5317   -2.7729   41.9287 C   0  0  0  0  0  0  0  0  0  0  0  0
    6.8587   -1.2119   44.3293 C   0  0  0  0  0  0  0  0  0  0  0  0
    0.2175   -1.3031   41.4860 C   0  0  0  0  0  0  0  0  0  0  0  0
   -0.3459   -3.9057   41.6978 C   0  0  0  0  0  0  0  0  0  0  0  0
    7.8877   -0.5486   44.6088 N   0  0  0  0  0  0  0  0  0  0  0  0
    6.7301   -2.3898   45.2144 C   0  0  0  0  0  0  0  0  0  0  0  0
    5.5335   -3.2051   45.1511 C   0  0  0  0  0  0  0  0  0  0  0  0
    7.9111   -2.4568   45.9191 C   0  0  0  0  0  0  0  0  0  0  0  0
    8.6956   -1.2139   45.6145 C   0  0  0  0  0  0  0  0  0  0  0  0
    8.4387   -3.4065   46.9399 C   0  0  0  0  0  0  0  0  0  0  0  0
    9.6434   -3.2081   47.4488 C   0  0  0  0  0  0  0  0  0  0  0  0
   10.1454   -4.1698   48.4457 C   0  0  0  0  0  0  0  0  0  0  0  0
    9.9571   -1.0853   46.2999 C   0  0  0  0  0  0  0  0  0  0  0  0
   10.3696   -2.0115   47.1904 C   0  0  0  0  0  0  0  0  0  0  0  0
   10.5141   -5.3875   47.9390 N   0  0  0  0  0  0  0  0  0  0  0  0
   11.5759   -5.4913   47.1327 C   0  0  0  0  0  0  0  0  0  0  0  0
    9.7709   -6.5250   48.2414 C   0  0  0  0  0  0  0  0  0  0  0  0
   11.3326   -5.8221   45.7860 C   0  0  0  0  0  0  0  0  0  0  0  0
    8.9138   -6.6554   49.0519 O   0  0  0  0  0  0  0  0  0  0  0  0
   10.0134   -7.7662   47.4149 C   0  0  0  0  0  0  0  0  0  0  0  0
   10.7946   -7.4064   45.9534 C   0  0  0  0  0  0  0  0  0  0  0  0
  1  2  2  0
  2  3  1  0
  3  4  2  0
  1  5  1  0
  4  5  1  0
  4  6  1  0
  3  7  1  0
  6  8  2  0
  6  9  1  0
  9 10  2  0
  2 11  1  0
  8 12  1  0
 10 12  1  0
 10 13  1  0
 11 14  1  0
 11 15  2  0
  7 16  2  0
 15 16  1  0
 15 17  1  0
 14 18  1  0
 17 18  2  0
 17 19  1  0
 19 20  2  0
 20 21  1  0
 18 22  1  0
 20 23  1  0
 22 23  2  0
 21 24  1  0
 24 25  1  0
 24 26  1  0
 25 27  1  0
 26 28  2  0
 26 29  1  0
 27 30  1  0
 29 30  1  0
M  END
$$$$
O14757_Pocket2Mol_idx-in-all-generaetd-646
     RDKit          3D

 48 56  0  0  0  0  0  0  0  0999 V2000
    5.3420    0.2589   42.8836 O   0  0  0  0  0  0  0  0  0  0  0  0
    5.1627   -0.7554   43.4753 C   0  0  0  0  0  0  0  0  0  0  0  0
    4.0509   -1.4657   43.4177 N   0  0  0  0  0  0  0  0  0  0  0  0
    5.9969   -1.2317   44.6840 C   0  0  0  0  0  0  0  0  0  0  0  0
    2.9618   -1.1021   42.5918 C   0  0  1  0  0  0  0  0  0  0  0  0
    7.3392   -0.8596   44.8412 C   0  0  0  0  0  0  0  0  0  0  0  0
    1.9754   -2.0820   42.2741 C   0  0  0  0  0  0  0  0  0  0  0  0
    5.5910   -2.4282   45.3439 C   0  0  0  0  0  0  0  0  0  0  0  0
    6.5874   -2.9636   46.1581 C   0  0  0  0  0  0  0  0  0  0  0  0
    4.2763   -3.0680   45.0493 N   0  0  0  0  0  0  0  0  0  0  0  0
    3.6188   -2.5886   44.2024 C   0  0  0  0  0  0  0  0  0  0  0  0
    8.1921   -1.4071   45.7505 C   0  0  0  0  0  0  0  0  0  0  0  0
    1.0154   -1.8839   41.2980 C   0  0  0  0  0  0  0  0  0  0  0  0
    2.5720   -3.3564   43.9063 C   0  0  0  0  0  0  0  0  0  0  0  0
    0.2502   -2.8976   41.0751 C   0  0  0  0  0  0  0  0  0  0  0  0
    6.1761   -4.1775   47.0209 C   0  0  0  0  0  0  0  0  0  0  0  0
    1.7266   -3.1047   43.0115 C   0  0  2  0  0  0  0  0  0  0  0  0
    2.3696   -4.5367   44.7536 N   0  0  0  0  0  0  0  0  0  0  0  0
    1.2264   -5.2346   44.4693 C   0  0  0  0  0  0  0  0  0  0  0  0
    0.7187   -3.8955   42.5465 C   0  0  0  0  0  0  0  0  0  0  0  0
    9.4576   -0.8949   46.0327 N   0  0  0  0  0  0  0  0  0  0  0  0
    0.8625   -6.3901   45.2462 C   0  0  0  0  0  0  0  0  0  0  0  0
    7.6467   -2.5139   46.4892 C   0  0  0  0  0  0  0  0  0  0  0  0
   10.4908   -1.5336   45.8242 C   0  0  0  0  0  0  0  0  0  0  0  0
    0.3057   -4.9299   43.2909 C   0  0  0  0  0  0  0  0  0  0  0  0
   11.5916   -1.4291   46.7436 C   0  0  0  0  0  0  0  0  0  0  0  0
   10.5566   -2.3672   44.8649 O   0  0  0  0  0  0  0  0  0  0  0  0
    2.4730    0.2084   42.8389 O   0  0  0  0  0  0  0  0  0  0  0  0
   11.6027   -2.2081   47.7725 N   0  0  0  0  0  0  0  0  0  0  0  0
   12.6189   -0.5862   46.5415 C   0  0  0  0  0  0  0  0  0  0  0  0
   13.6413   -0.4484   47.4129 C   0  0  0  0  0  0  0  0  0  0  0  0
   10.4764   -3.1097   48.1134 C   0  0  0  0  0  0  0  0  0  0  0  0
    9.5762   -2.4717   49.0753 C   0  0  0  0  0  0  0  0  0  0  0  0
    9.7761   -1.2394   49.5167 C   0  0  0  0  0  0  0  0  0  0  0  0
    8.6397   -3.3252   49.7339 C   0  0  0  0  0  0  0  0  0  0  0  0
    8.9861   -0.7034   50.5819 C   0  0  0  0  0  0  0  0  0  0  0  0
   14.7137    0.5128   47.0925 C   0  0  0  0  0  0  0  0  0  0  0  0
    8.1815   -1.5423   51.2387 C   0  0  0  0  0  0  0  0  0  0  0  0
    8.4156   -4.7176   49.2102 O   0  0  0  0  0  0  0  0  0  0  0  0
   13.6915   -1.2597   48.4795 C   0  0  0  0  0  0  0  0  0  0  0  0
   14.7842   -1.1839   49.3622 C   0  0  0  0  0  0  0  0  0  0  0  0
   12.5774   -2.1710   48.6835 C   0  0  0  0  0  0  0  0  0  0  0  0
   14.8423   -1.9939   50.5370 O   0  0  0  0  0  0  0  0  0  0  0  0
    7.9254   -2.8787   50.8112 C   0  0  0  0  0  0  0  0  0  0  0  0
   15.7318    0.5908   48.0299 C   0  0  0  0  0  0  0  0  0  0  0  0
   15.7762   -0.2763   49.1926 C   0  0  0  0  0  0  0  0  0  0  0  0
    7.1901   -5.2342   49.3919 C   0  0  0  0  0  0  0  0  0  0  0  0
    6.6809   -5.0869   47.9370 C   0  0  0  0  0  0  0  0  0  0  0  0
  1  2  2  0
  2  3  1  0
  2  4  1  0
  3  5  1  0
  4  6  2  0
  5  7  1  0
  4  8  1  0
  8  9  2  0
  8 10  1  0
  3 11  1  0
 10 11  2  0
  6 12  1  0
  7 13  2  0
 11 14  1  0
 13 15  1  0
  9 16  1  0
 17  7  1  6
 14 17  1  0
 14 18  2  0
 18 19  1  0
 15 20  2  0
 17 20  1  0
 12 21  1  0
 19 22  1  0
  9 23  1  0
 12 23  2  0
 21 24  1  0
 19 25  2  0
 20 25  1  0
 24 26  1  0
 24 27  2  0
  5 28  1  1
 26 29  1  0
 26 30  2  0
 30 31  1  0
 29 32  1  0
 32 33  1  0
 33 34  1  0
 33 35  2  0
 34 36  2  0
 31 37  2  0
 36 38  1  0
 35 39  1  0
 31 40  1  0
 40 41  2  0
 29 42  1  0
 40 42  1  0
 41 43  1  0
 35 44  1  0
 38 44  2  0
 37 45  1  0
 41 46  1  0
 45 46  2  0
 39 47  1  0
 16 48  2  3
 47 48  1  0
M  END
$$$$
O14757_Pocket2Mol_idx-in-all-generaetd-647
     RDKit          3D

 45 51  0  0  0  0  0  0  0  0999 V2000
    5.3420    0.2589   42.8836 O   0  0  0  0  0  0  0  0  0  0  0  0
    5.1627   -0.7554   43.4753 C   0  0  0  0  0  0  0  0  0  0  0  0
    4.0509   -1.4657   43.4177 N   0  0  0  0  0  0  0  0  0  0  0  0
    5.9969   -1.2317   44.6840 C   0  0  0  0  0  0  0  0  0  0  0  0
    2.9618   -1.1021   42.5918 C   0  0  1  0  0  0  0  0  0  0  0  0
    7.3392   -0.8596   44.8412 C   0  0  0  0  0  0  0  0  0  0  0  0
    1.9754   -2.0820   42.2741 C   0  0  0  0  0  0  0  0  0  0  0  0
    5.5910   -2.4282   45.3439 C   0  0  0  0  0  0  0  0  0  0  0  0
    6.5874   -2.9636   46.1581 C   0  0  0  0  0  0  0  0  0  0  0  0
    4.2763   -3.0680   45.0493 N   0  0  0  0  0  0  0  0  0  0  0  0
    3.6188   -2.5886   44.2024 C   0  0  0  0  0  0  0  0  0  0  0  0
    8.1921   -1.4071   45.7505 C   0  0  0  0  0  0  0  0  0  0  0  0
    1.0154   -1.8839   41.2980 C   0  0  0  0  0  0  0  0  0  0  0  0
    2.5720   -3.3564   43.9063 C   0  0  0  0  0  0  0  0  0  0  0  0
    0.2502   -2.8976   41.0751 C   0  0  0  0  0  0  0  0  0  0  0  0
    6.1761   -4.1775   47.0209 C   0  0  0  0  0  0  0  0  0  0  0  0
    1.7266   -3.1047   43.0115 C   0  0  2  0  0  0  0  0  0  0  0  0
    2.3696   -4.5367   44.7536 N   0  0  0  0  0  0  0  0  0  0  0  0
    1.2264   -5.2346   44.4693 C   0  0  0  0  0  0  0  0  0  0  0  0
    0.7187   -3.8955   42.5465 C   0  0  0  0  0  0  0  0  0  0  0  0
    9.4576   -0.8949   46.0327 N   0  0  0  0  0  0  0  0  0  0  0  0
    0.8625   -6.3901   45.2462 C   0  0  0  0  0  0  0  0  0  0  0  0
    7.6467   -2.5139   46.4892 C   0  0  0  0  0  0  0  0  0  0  0  0
   10.4908   -1.5336   45.8242 C   0  0  0  0  0  0  0  0  0  0  0  0
    0.3057   -4.9299   43.2909 C   0  0  0  0  0  0  0  0  0  0  0  0
   11.5916   -1.4291   46.7436 C   0  0  0  0  0  0  0  0  0  0  0  0
   10.5566   -2.3672   44.8649 O   0  0  0  0  0  0  0  0  0  0  0  0
   12.8421   -1.9355   46.2823 C   0  0  0  0  0  0  0  0  0  0  0  0
   13.4833   -2.8582   46.9841 C   0  0  0  0  0  0  0  0  0  0  0  0
   11.4002   -1.1447   48.0540 C   0  0  0  0  0  0  0  0  0  0  0  0
   10.2867   -0.4569   48.4999 O   0  0  0  0  0  0  0  0  0  0  0  0
   12.3327   -1.4798   48.9564 C   0  0  0  0  0  0  0  0  0  0  0  0
   14.7901   -3.3162   46.6439 C   0  0  0  0  0  0  0  0  0  0  0  0
   12.1651   -1.3050   50.3239 O   0  0  0  0  0  0  0  0  0  0  0  0
   15.6765   -2.5740   46.0979 C   0  0  0  0  0  0  0  0  0  0  0  0
   13.4417   -2.4710   48.5369 C   0  0  0  0  0  0  0  0  0  0  0  0
   15.5553   -1.2853   45.8338 C   0  0  0  0  0  0  0  0  0  0  0  0
   15.4119   -0.8806   44.5116 C   0  0  0  0  0  0  0  0  0  0  0  0
    2.4631    0.2112   42.8539 C   0  0  0  0  0  0  0  0  0  0  0  0
   14.8794    0.3049   44.1896 C   0  0  0  0  0  0  0  0  0  0  0  0
   14.4631    0.5434   42.6927 C   0  0  0  0  0  0  0  0  0  0  0  0
   14.3201    1.2140   45.0775 C   0  0  0  0  0  0  0  0  0  0  0  0
   13.5513    2.4060   44.8091 C   0  0  0  0  0  0  0  0  0  0  0  0
   14.7080    0.9855   46.4616 C   0  0  0  0  0  0  0  0  0  0  0  0
   15.2691   -0.2179   46.7884 C   0  0  0  0  0  0  0  0  0  0  0  0
  1  2  2  0
  2  3  1  0
  2  4  1  0
  3  5  1  0
  4  6  2  0
  5  7  1  0
  4  8  1  0
  8  9  2  0
  8 10  1  0
  3 11  1  0
 10 11  2  0
  6 12  1  0
  7 13  2  0
 11 14  1  0
 13 15  1  0
  9 16  1  0
 17  7  1  6
 14 17  1  0
 14 18  2  0
 18 19  1  0
 15 20  2  0
 17 20  1  0
 12 21  1  0
 19 22  1  0
  9 23  1  0
 12 23  2  0
 21 24  1  0
 19 25  2  0
 20 25  1  0
 24 26  1  0
 24 27  2  0
 26 28  2  0
 28 29  1  0
 26 30  1  0
 30 31  1  0
 30 32  2  0
 29 33  1  0
 32 34  1  0
 33 35  2  3
 29 36  2  0
 32 36  1  0
 35 37  1  0
 37 38  2  0
  5 39  1  1
 38 40  1  0
 40 41  1  0
 40 42  2  0
 42 43  1  0
 42 44  1  0
 37 45  1  0
 44 45  2  0
M  END
$$$$
O14757_Pocket2Mol_idx-in-all-generaetd-648
     RDKit          3D

 25 28  0  0  0  0  0  0  0  0999 V2000
    5.5575   -0.4055   43.2321 N   0  0  0  0  0  0  0  0  0  0  0  0
    4.3352   -0.4199   42.8749 C   0  0  0  0  0  0  0  0  0  0  0  0
    5.9990   -1.3122   44.1764 C   0  0  0  0  0  0  0  0  0  0  0  0
    3.4120   -1.4389   43.1188 C   0  0  0  0  0  0  0  0  0  0  0  0
    3.8361   -2.4046   43.9422 C   0  0  0  0  0  0  0  0  0  0  0  0
    5.1679   -2.3747   44.5447 C   0  0  0  0  0  0  0  0  0  0  0  0
    3.0502   -3.5480   44.2767 N   0  0  0  0  0  0  0  0  0  0  0  0
    2.0554   -1.5626   42.6416 C   0  0  0  0  0  0  0  0  0  0  0  0
    5.7066   -3.3299   45.4765 C   0  0  0  0  0  0  0  0  0  0  0  0
    3.7427    0.5760   42.0003 N   0  0  0  0  0  0  0  0  0  0  0  0
    4.9790   -3.9414   46.1775 O   0  0  0  0  0  0  0  0  0  0  0  0
    7.0173   -3.0376   45.8484 N   0  0  0  0  0  0  0  0  0  0  0  0
    1.3468   -2.6561   42.5594 C   0  0  0  0  0  0  0  0  0  0  0  0
    1.8548   -3.6188   43.5814 C   0  0  0  0  0  0  0  0  0  0  0  0
    0.1121   -2.8705   41.8647 C   0  0  0  0  0  0  0  0  0  0  0  0
   -0.0333   -4.0085   41.3088 O   0  0  0  0  0  0  0  0  0  0  0  0
   -0.7265   -1.9501   41.6394 O   0  0  0  0  0  0  0  0  0  0  0  0
    7.6791   -3.9358   46.8241 C   0  0  0  0  0  0  0  0  0  0  0  0
    9.0644   -4.1059   46.5447 C   0  0  0  0  0  0  0  0  0  0  0  0
    9.9395   -2.9938   46.7513 C   0  0  1  0  0  0  0  0  0  0  0  0
   10.8438   -2.6722   45.7668 C   0  0  0  0  0  0  0  0  0  0  0  0
    9.2459   -1.6709   46.9933 C   0  0  0  0  0  0  0  0  0  0  0  0
    8.6370   -1.2328   45.8986 C   0  0  0  0  0  0  0  0  0  0  0  0
    7.4241   -1.8140   45.2011 C   0  0  2  0  0  0  0  0  0  0  0  0
   10.6072   -3.1360   48.1044 O   0  0  0  0  0  0  0  0  0  0  0  0
  1  2  2  0
  1  3  1  0
  2  4  1  0
  4  5  2  0
  3  6  2  0
  5  6  1  0
  5  7  1  0
  4  8  1  0
  6  9  1  0
  2 10  1  0
  9 11  2  0
  9 12  1  0
  8 13  2  0
  7 14  2  0
 13 14  1  0
 13 15  1  0
 15 16  2  0
 15 17  1  0
 12 18  1  0
 18 19  1  0
 19 20  1  0
 20 21  1  6
 20 22  1  0
 22 23  1  0
  3 24  1  0
 12 24  1  0
 24 23  1  1
 20 25  1  0
M  END
$$$$
O14757_Pocket2Mol_idx-in-all-generaetd-649
     RDKit          3D

 34 39  0  0  0  0  0  0  0  0999 V2000
    4.5156    0.0550   42.9895 N   0  0  0  0  0  0  0  0  0  0  0  0
    5.0618   -0.8645   43.5295 C   0  0  0  0  0  0  0  0  0  0  0  0
    4.4350   -2.0604   43.7783 C   0  0  0  0  0  0  0  0  0  0  0  0
    4.9987   -3.0994   44.5839 C   0  0  0  0  0  0  0  0  0  0  0  0
    3.2714   -1.8664   43.0632 C   0  0  0  0  0  0  0  0  0  0  0  0
    6.4064   -0.5942   44.3204 N   0  0  0  0  0  0  0  0  0  0  0  0
    4.3422   -4.3256   44.7203 C   0  0  0  0  0  0  0  0  0  0  0  0
    2.1845   -2.6668   42.8270 N   0  0  0  0  0  0  0  0  0  0  0  0
    3.3305   -0.5395   42.5465 N   0  0  0  0  0  0  0  0  0  0  0  0
    1.9502   -3.8972   43.4076 C   0  0  0  0  0  0  0  0  0  0  0  0
    2.7156   -4.1184   44.6954 N   0  0  0  0  0  0  0  0  0  0  0  0
    6.8581   -1.5862   45.1101 C   0  0  0  0  0  0  0  0  0  0  0  0
    6.1801   -2.8430   45.2383 C   0  0  0  0  0  0  0  0  0  0  0  0
    2.1454   -5.1901   45.5771 C   0  0  0  0  0  0  0  0  0  0  0  0
    8.0137   -1.3946   45.8526 C   0  0  0  0  0  0  0  0  0  0  0  0
    0.9733   -4.5725   43.2066 O   0  0  0  0  0  0  0  0  0  0  0  0
    2.2437    0.0035   41.8733 C   0  0  0  0  0  0  0  0  0  0  0  0
    1.3210   -2.2077   41.7009 C   0  0  0  0  0  0  0  0  0  0  0  0
    8.6047   -2.2876   46.6923 C   0  0  0  0  0  0  0  0  0  0  0  0
    7.9141   -3.5157   46.8869 C   0  0  0  0  0  0  0  0  0  0  0  0
    1.0501   -0.8658   41.6612 C   0  0  0  0  0  0  0  0  0  0  0  0
    6.7278   -3.7718   46.2525 C   0  0  0  0  0  0  0  0  0  0  0  0
    9.8280   -2.0492   47.3361 C   0  0  0  0  0  0  0  0  0  0  0  0
    9.8262   -1.5735   48.5432 C   0  0  0  0  0  0  0  0  0  0  0  0
   11.0745   -2.0905   46.6735 C   0  0  0  0  0  0  0  0  0  0  0  0
   11.1189   -2.5101   45.2315 C   0  0  0  0  0  0  0  0  0  0  0  0
    8.6548   -1.3952   49.4178 O   0  0  0  0  0  0  0  0  0  0  0  0
   12.2483   -1.7792   47.2003 C   0  0  0  0  0  0  0  0  0  0  0  0
   11.0576   -1.2774   49.2428 C   0  0  0  0  0  0  0  0  0  0  0  0
   11.5052   -1.6078   44.3227 O   0  0  0  0  0  0  0  0  0  0  0  0
   11.0262   -0.9191   50.6535 O   0  0  0  0  0  0  0  0  0  0  0  0
   11.9395   -1.3728   51.4068 C   0  0  0  0  0  0  0  0  0  0  0  0
   12.3523   -1.3932   48.6001 C   0  0  0  0  0  0  0  0  0  0  0  0
   10.8383   -3.7183   45.0560 O   0  0  0  0  0  0  0  0  0  0  0  0
  1  2  2  0
  2  3  1  0
  3  4  1  0
  3  5  2  0
  2  6  1  0
  4  7  1  0
  5  8  1  0
  1  9  1  0
  5  9  1  0
  8 10  1  0
  7 11  1  0
 10 11  1  0
  6 12  2  0
  4 13  2  0
 12 13  1  0
 11 14  1  0
 12 15  1  0
 10 16  2  0
  9 17  1  0
  8 18  1  0
 15 19  2  0
 19 20  1  0
 17 21  1  0
 18 21  1  0
 13 22  1  0
 20 22  2  0
 19 23  1  0
 23 24  2  0
 23 25  1  0
 25 26  1  0
 24 27  1  0
 25 28  2  0
 24 29  1  0
 26 30  2  0
 29 31  1  0
 31 32  1  0
 28 33  1  0
 29 33  2  0
 26 34  1  0
M  END
$$$$
O14757_Pocket2Mol_idx-in-all-generaetd-650
     RDKit          3D

 29 32  0  0  0  0  0  0  0  0999 V2000
    0.3497   -2.5592   41.5321 C   0  0  0  0  0  0  0  0  0  0  0  0
    0.7059   -1.3065   41.4152 C   0  0  0  0  0  0  0  0  0  0  0  0
    2.0121   -0.9206   42.0074 C   0  0  0  0  0  0  0  0  0  0  0  0
    2.8273   -1.8583   42.7096 C   0  0  0  0  0  0  0  0  0  0  0  0
   -0.9158   -2.9896   41.0259 O   0  0  0  0  0  0  0  0  0  0  0  0
    2.1785   -3.2182   42.8202 C   0  0  0  0  0  0  0  0  0  0  0  0
    2.9957   -4.0364   43.6549 N   0  0  0  0  0  0  0  0  0  0  0  0
    1.0381   -3.5102   42.3147 C   0  0  0  0  0  0  0  0  0  0  0  0
    4.0501   -1.4436   43.3296 C   0  0  0  0  0  0  0  0  0  0  0  0
    4.2345   -3.7127   44.1966 C   0  0  0  0  0  0  0  0  0  0  0  0
    4.9099   -4.6363   45.0387 N   0  0  0  0  0  0  0  0  0  0  0  0
    4.7563   -2.4299   44.0678 C   0  0  0  0  0  0  0  0  0  0  0  0
    6.0306   -2.0532   44.6670 C   0  0  0  0  0  0  0  0  0  0  0  0
    4.6111   -0.1656   43.0716 N   0  0  0  0  0  0  0  0  0  0  0  0
    6.7834   -2.7598   45.5925 N   0  0  0  0  0  0  0  0  0  0  0  0
    8.0062   -2.3962   46.0654 C   0  0  0  0  0  0  0  0  0  0  0  0
    8.3845   -1.1262   46.4117 C   0  0  0  0  0  0  0  0  0  0  0  0
    6.3026   -0.6817   44.5619 N   0  0  0  0  0  0  0  0  0  0  0  0
   -2.1386   -2.6057   41.5146 C   0  0  0  0  0  0  0  0  0  0  0  0
    5.6712    0.0977   43.6769 N   0  0  0  0  0  0  0  0  0  0  0  0
    8.9063   -3.4595   46.3186 C   0  0  0  0  0  0  0  0  0  0  0  0
    9.6728   -0.9555   46.7630 C   0  0  0  0  0  0  0  0  0  0  0  0
    8.4079   -4.8571   46.1334 O   0  0  0  0  0  0  0  0  0  0  0  0
   10.5484   -1.9382   47.0570 C   0  0  0  0  0  0  0  0  0  0  0  0
   11.9178   -1.6052   47.5373 O   0  0  0  0  0  0  0  0  0  0  0  0
   10.1751   -3.2483   46.8191 C   0  0  0  0  0  0  0  0  0  0  0  0
   11.0740   -4.2875   47.0761 O   0  0  0  0  0  0  0  0  0  0  0  0
   11.6560   -4.9096   46.0680 C   0  0  0  0  0  0  0  0  0  0  0  0
   12.5125   -0.6644   47.0107 C   0  0  0  0  0  0  0  0  0  0  0  0
  1  2  2  0
  2  3  1  0
  3  4  2  0
  1  5  1  0
  4  6  1  0
  6  7  1  0
  1  8  1  0
  6  8  2  0
  4  9  1  0
  7 10  2  0
 10 11  1  0
  9 12  2  0
 10 12  1  0
 12 13  1  0
  9 14  1  0
 13 15  1  0
 15 16  1  0
 16 17  2  0
 13 18  2  0
  5 19  1  0
 14 20  2  0
 18 20  1  0
 16 21  1  0
 17 22  1  0
 21 23  1  0
 22 24  2  0
 24 25  1  0
 21 26  2  0
 24 26  1  0
 26 27  1  0
 27 28  1  0
 25 29  1  0
M  END
$$$$
O14757_Pocket2Mol_idx-in-all-generaetd-651
     RDKit          3D

 32 36  0  0  0  0  0  0  0  0999 V2000
    1.5482   -0.3111   41.9233 C   0  0  0  0  0  0  0  0  0  0  0  0
    2.7284    0.2018   42.1525 N   0  0  0  0  0  0  0  0  0  0  0  0
    3.7893   -0.3016   42.7005 C   0  0  0  0  0  0  0  0  0  0  0  0
    3.3781   -1.7350   43.0000 C   0  0  0  0  0  0  0  0  0  0  0  0
    2.0339   -1.9619   42.6217 C   0  0  0  0  0  0  0  0  0  0  0  0
    5.0090    0.1219   42.9340 N   0  0  0  0  0  0  0  0  0  0  0  0
    4.2895   -2.4979   43.6707 C   0  0  0  0  0  0  0  0  0  0  0  0
    5.8391   -0.6675   43.6343 C   0  0  0  0  0  0  0  0  0  0  0  0
    6.9849   -0.2377   44.0028 N   0  0  0  0  0  0  0  0  0  0  0  0
    4.0426   -3.8794   44.0832 C   0  0  0  0  0  0  0  0  0  0  0  0
    7.6796   -0.8734   44.9326 C   0  0  0  0  0  0  0  0  0  0  0  0
    1.1064   -2.9576   42.4211 C   0  0  0  0  0  0  0  0  0  0  0  0
    5.5298   -1.9496   44.0315 C   0  0  0  0  0  0  0  0  0  0  0  0
    3.8954   -4.1817   45.4718 C   0  0  0  0  0  0  0  0  0  0  0  0
    0.6765   -3.5480   43.4006 C   0  0  0  0  0  0  0  0  0  0  0  0
    0.5804   -3.2191   41.1635 C   0  0  0  0  0  0  0  0  0  0  0  0
    2.8083   -4.8227   45.9203 N   0  0  0  0  0  0  0  0  0  0  0  0
   -0.1574   -4.5754   42.9329 N   0  0  0  0  0  0  0  0  0  0  0  0
    6.5271   -2.5531   44.9677 C   0  0  0  0  0  0  0  0  0  0  0  0
   -0.2272   -4.3703   41.5137 C   0  0  0  0  0  0  0  0  0  0  0  0
    7.5095   -2.0029   45.3993 C   0  0  0  0  0  0  0  0  0  0  0  0
    8.2550   -2.6982   46.3988 C   0  0  0  0  0  0  0  0  0  0  0  0
    4.4030   -3.3432   46.3770 O   0  0  0  0  0  0  0  0  0  0  0  0
    8.9249   -0.3105   45.3298 O   0  0  0  0  0  0  0  0  0  0  0  0
    2.2642   -5.9868   45.3170 C   0  0  0  0  0  0  0  0  0  0  0  0
    8.2622   -4.0752   46.4883 C   0  0  0  0  0  0  0  0  0  0  0  0
    9.4528   -4.4665   47.0839 C   0  0  0  0  0  0  0  0  0  0  0  0
    8.9830   -2.0054   47.2899 C   0  0  0  0  0  0  0  0  0  0  0  0
   10.1028   -3.9627   48.0985 C   0  0  0  0  0  0  0  0  0  0  0  0
    9.8199   -2.4636   48.2021 C   0  0  0  0  0  0  0  0  0  0  0  0
   10.5235   -1.6471   48.9970 C   0  0  0  0  0  0  0  0  0  0  0  0
   10.1800   -0.3447   49.1601 C   0  0  0  0  0  0  0  0  0  0  0  0
  1  2  1  0
  2  3  2  0
  3  4  1  0
  1  5  2  0
  4  5  1  0
  3  6  1  0
  4  7  2  0
  6  8  1  0
  8  9  1  0
  7 10  1  0
  9 11  1  0
  5 12  1  0
  7 13  1  0
  8 13  2  0
 10 14  1  0
 12 15  1  0
 12 16  2  0
 14 17  1  0
 15 18  1  0
 13 19  1  0
 16 20  1  0
 18 20  2  0
 11 21  1  0
 19 21  2  0
 21 22  1  0
 14 23  2  0
 11 24  2  0
 17 25  1  0
 22 26  1  0
 26 27  1  0
 22 28  2  0
 27 29  2  0
 28 30  1  0
 29 30  1  0
 30 31  2  3
 31 32  1  0
M  END
$$$$
O14757_Pocket2Mol_idx-in-all-generaetd-652
     RDKit          3D

 41 48  0  0  0  0  0  0  0  0999 V2000
    1.5482   -0.3111   41.9233 C   0  0  0  0  0  0  0  0  0  0  0  0
    2.7284    0.2018   42.1525 N   0  0  0  0  0  0  0  0  0  0  0  0
    3.7893   -0.3016   42.7005 C   0  0  0  0  0  0  0  0  0  0  0  0
    3.3781   -1.7350   43.0000 C   0  0  0  0  0  0  0  0  0  0  0  0
    2.0339   -1.9619   42.6217 C   0  0  0  0  0  0  0  0  0  0  0  0
    4.1166   -2.4997   43.8458 C   0  0  0  0  0  0  0  0  0  0  0  0
    1.1731   -3.0051   42.5773 C   0  0  0  0  0  0  0  0  0  0  0  0
    0.4701   -3.2344   41.4901 C   0  0  0  0  0  0  0  0  0  0  0  0
    5.3799   -1.7814   44.2691 C   0  0  0  0  0  0  0  0  0  0  0  0
    5.0159   -0.0180   43.1201 N   0  0  0  0  0  0  0  0  0  0  0  0
    5.7693   -0.6937   43.8418 C   0  0  0  0  0  0  0  0  0  0  0  0
    0.8078   -3.6166   43.6782 C   0  0  0  0  0  0  0  0  0  0  0  0
    0.0663   -4.7011   43.7415 N   0  0  0  0  0  0  0  0  0  0  0  0
    6.2223   -2.6843   45.1565 C   0  0  0  0  0  0  0  0  0  0  0  0
    6.9599   -0.2351   44.2608 N   0  0  0  0  0  0  0  0  0  0  0  0
    5.9065   -3.9037   45.7499 N   0  0  0  0  0  0  0  0  0  0  0  0
   -0.5459   -5.1185   42.5870 C   0  0  0  0  0  0  0  0  0  0  0  0
    5.7480   -4.0340   46.9810 C   0  0  0  0  0  0  0  0  0  0  0  0
    7.4448   -1.8511   45.4198 C   0  0  0  0  0  0  0  0  0  0  0  0
    7.7572   -0.7827   45.0128 C   0  0  0  0  0  0  0  0  0  0  0  0
    8.4076   -2.7217   46.4541 C   0  0  0  0  0  0  0  0  0  0  0  0
    9.3167   -2.0988   47.1049 N   0  0  0  0  0  0  0  0  0  0  0  0
   -0.4719   -4.3893   41.5406 C   0  0  0  0  0  0  0  0  0  0  0  0
    8.3667   -4.0284   46.5743 N   0  0  0  0  0  0  0  0  0  0  0  0
    9.5309   -4.3147   47.3094 C   0  0  0  0  0  0  0  0  0  0  0  0
    5.3113   -3.3789   47.8005 O   0  0  0  0  0  0  0  0  0  0  0  0
    9.9022   -5.6301   47.7684 C   0  0  0  0  0  0  0  0  0  0  0  0
    5.4470   -5.5868   47.2096 C   0  0  0  0  0  0  0  0  0  0  0  0
   11.2254   -5.8679   48.0402 C   0  0  0  0  0  0  0  0  0  0  0  0
    8.9736   -6.6532   47.8548 C   0  0  0  0  0  0  0  0  0  0  0  0
   10.0616   -3.0670   47.6360 C   0  0  0  0  0  0  0  0  0  0  0  0
    7.5566   -6.3564   47.5477 N   0  0  0  0  0  0  0  0  0  0  0  0
    6.4157   -6.1721   48.0913 C   0  0  0  0  0  0  0  0  0  0  0  0
   12.3275   -4.8510   47.9324 C   0  0  0  0  0  0  0  0  0  0  0  0
    9.4585   -7.9662   48.0726 C   0  0  0  0  0  0  0  0  0  0  0  0
   11.5288   -2.7910   48.1740 C   0  0  0  0  0  0  0  0  0  0  0  0
   13.6010   -5.5179   48.0202 O   0  0  0  0  0  0  0  0  0  0  0  0
   11.6306   -7.1387   48.1870 C   0  0  0  0  0  0  0  0  0  0  0  0
   11.5862   -1.4060   48.3147 O   0  0  0  0  0  0  0  0  0  0  0  0
   10.6741   -8.1675   48.2727 C   0  0  0  0  0  0  0  0  0  0  0  0
   12.3754   -3.5725   48.2383 N   0  0  0  0  0  0  0  0  0  0  0  0
  1  2  1  0
  2  3  2  0
  3  4  1  0
  1  5  2  0
  4  5  1  0
  4  6  2  0
  5  7  1  0
  7  8  2  0
  6  9  1  0
  3 10  1  0
  9 11  2  0
 10 11  1  0
  7 12  1  0
 12 13  2  0
  9 14  1  0
 11 15  1  0
 14 16  1  0
 13 17  1  0
 16 18  1  0
 14 19  2  0
 15 20  2  0
 19 20  1  0
 19 21  1  0
 21 22  2  0
  8 23  1  0
 17 23  2  0
 21 24  1  0
 24 25  1  0
 18 26  2  0
 25 27  1  0
 18 28  1  0
 27 29  2  0
 27 30  1  0
 22 31  1  0
 25 31  2  0
 30 32  1  0
 28 33  1  0
 32 33  1  0
 29 34  1  0
 30 35  2  0
 31 36  1  0
 34 37  1  0
 29 38  1  0
 36 39  2  0
 35 40  1  0
 38 40  2  0
 34 41  2  0
 36 41  1  0
M  END
$$$$
O14757_Pocket2Mol_idx-in-all-generaetd-653
     RDKit          3D

 36 44  0  0  0  0  0  0  0  0999 V2000
    1.5482   -0.3111   41.9233 C   0  0  0  0  0  0  0  0  0  0  0  0
    2.7284    0.2018   42.1525 N   0  0  0  0  0  0  0  0  0  0  0  0
    3.7893   -0.3016   42.7005 C   0  0  0  0  0  0  0  0  0  0  0  0
    3.3781   -1.7350   43.0000 C   0  0  0  0  0  0  0  0  0  0  0  0
    2.0339   -1.9619   42.6217 C   0  0  0  0  0  0  0  0  0  0  0  0
    5.0090    0.1219   42.9340 N   0  0  0  0  0  0  0  0  0  0  0  0
    4.2895   -2.4979   43.6707 C   0  0  0  0  0  0  0  0  0  0  0  0
    5.8391   -0.6675   43.6343 C   0  0  0  0  0  0  0  0  0  0  0  0
    6.9849   -0.2377   44.0028 N   0  0  0  0  0  0  0  0  0  0  0  0
    4.0426   -3.8794   44.0832 C   0  0  0  0  0  0  0  0  0  0  0  0
    7.6796   -0.8734   44.9326 C   0  0  0  0  0  0  0  0  0  0  0  0
    1.1064   -2.9576   42.4211 C   0  0  0  0  0  0  0  0  0  0  0  0
    5.5298   -1.9496   44.0315 C   0  0  0  0  0  0  0  0  0  0  0  0
    3.8954   -4.1817   45.4718 C   0  0  0  0  0  0  0  0  0  0  0  0
    0.6765   -3.5480   43.4006 C   0  0  1  0  0  0  0  0  0  0  0  0
    0.5804   -3.2191   41.1635 C   0  0  0  0  0  0  0  0  0  0  0  0
    2.8083   -4.8227   45.9203 N   0  0  0  0  0  0  0  0  0  0  0  0
   -0.1574   -4.5754   42.9329 N   0  0  0  0  0  0  0  0  0  0  0  0
    6.5271   -2.5531   44.9677 C   0  0  0  0  0  0  0  0  0  0  0  0
   -0.2272   -4.3703   41.5137 C   0  0  0  0  0  0  0  0  0  0  0  0
    7.5095   -2.0029   45.3993 C   0  0  0  0  0  0  0  0  0  0  0  0
    8.2550   -2.6982   46.3988 C   0  0  0  0  0  0  0  0  0  0  0  0
    8.8975   -0.3029   45.3267 O   0  0  0  0  0  0  0  0  0  0  0  0
    4.8299   -4.4637   46.4212 C   0  0  0  0  0  0  0  0  0  0  0  0
    4.2707   -4.9248   47.6295 N   0  0  0  0  0  0  0  0  0  0  0  0
    3.2045   -5.2092   47.1521 C   0  0  0  0  0  0  0  0  0  0  0  0
    1.4482   -4.6186   45.4134 C   0  0  2  0  0  0  0  0  0  0  0  0
    1.2398   -3.5043   44.6236 O   0  0  0  0  0  0  0  0  0  0  0  0
    7.8521   -3.9584   46.8773 C   0  0  0  0  0  0  0  0  0  0  0  0
    8.4079   -4.7553   47.7407 C   0  0  0  0  0  0  0  0  0  0  0  0
    6.2843   -3.8191   46.0063 C   0  0  2  0  0  0  0  0  0  0  0  0
    0.5313   -4.7420   46.5885 C   0  0  0  0  0  0  0  0  0  0  0  0
    9.6517   -2.6917   47.0982 C   0  0  0  0  0  0  0  0  0  0  0  0
   10.0453   -3.4992   47.9237 C   0  0  0  0  0  0  0  0  0  0  0  0
    7.4533   -6.0285   47.9967 C   0  0  0  0  0  0  0  0  0  0  0  0
    9.3590   -4.6292   48.2258 N   0  0  0  0  0  0  0  0  0  0  0  0
  1  2  1  0
  2  3  2  0
  3  4  1  0
  1  5  2  0
  4  5  1  0
  3  6  1  0
  4  7  2  0
  6  8  1  0
  8  9  1  0
  7 10  1  0
  9 11  1  0
  5 12  1  0
  7 13  1  0
  8 13  2  0
 10 14  1  0
 12 15  1  0
 12 16  2  0
 14 17  1  0
 15 18  1  0
 13 19  1  0
 16 20  1  0
 18 20  2  0
 11 21  1  0
 19 21  2  0
 21 22  1  0
 11 23  2  0
 14 24  2  0
 24 25  1  0
 17 26  1  0
 25 26  2  0
 17 27  1  0
 15 28  1  6
 27 28  1  0
 22 29  2  0
 29 30  1  0
 19 31  1  0
 31 24  1  1
 29 31  1  0
 27 32  1  1
 22 33  1  0
 33 34  2  0
 30 35  1  0
 30 36  2  0
 34 36  1  0
M  END
$$$$
O14757_Pocket2Mol_idx-in-all-generaetd-654
     RDKit          3D

 34 40  0  0  0  0  0  0  0  0999 V2000
    4.5156    0.0550   42.9895 N   0  0  0  0  0  0  0  0  0  0  0  0
    5.0618   -0.8645   43.5295 C   0  0  0  0  0  0  0  0  0  0  0  0
    4.4350   -2.0604   43.7783 C   0  0  0  0  0  0  0  0  0  0  0  0
    4.9987   -3.0994   44.5839 C   0  0  0  0  0  0  0  0  0  0  0  0
    3.2714   -1.8664   43.0632 C   0  0  0  0  0  0  0  0  0  0  0  0
    6.4064   -0.5942   44.3204 N   0  0  0  0  0  0  0  0  0  0  0  0
    4.3422   -4.3256   44.7203 C   0  0  0  0  0  0  0  0  0  0  0  0
    2.1845   -2.6668   42.8270 N   0  0  0  0  0  0  0  0  0  0  0  0
    3.3305   -0.5395   42.5465 N   0  0  0  0  0  0  0  0  0  0  0  0
    1.9502   -3.8972   43.4076 C   0  0  0  0  0  0  0  0  0  0  0  0
    2.7156   -4.1184   44.6954 N   0  0  0  0  0  0  0  0  0  0  0  0
    6.8581   -1.5862   45.1101 C   0  0  0  0  0  0  0  0  0  0  0  0
    6.1801   -2.8430   45.2383 C   0  0  0  0  0  0  0  0  0  0  0  0
    2.1454   -5.1901   45.5771 C   0  0  0  0  0  0  0  0  0  0  0  0
    8.0137   -1.3946   45.8526 C   0  0  0  0  0  0  0  0  0  0  0  0
    0.9733   -4.5725   43.2066 O   0  0  0  0  0  0  0  0  0  0  0  0
    2.2437    0.0035   41.8733 C   0  0  0  0  0  0  0  0  0  0  0  0
    1.3210   -2.2077   41.7009 C   0  0  0  0  0  0  0  0  0  0  0  0
    8.6047   -2.2876   46.6923 C   0  0  0  0  0  0  0  0  0  0  0  0
    7.9141   -3.5157   46.8869 C   0  0  0  0  0  0  0  0  0  0  0  0
    1.0501   -0.8658   41.6612 C   0  0  0  0  0  0  0  0  0  0  0  0
    6.7278   -3.7718   46.2525 C   0  0  0  0  0  0  0  0  0  0  0  0
    9.8280   -2.0492   47.3361 C   0  0  0  0  0  0  0  0  0  0  0  0
    9.8262   -1.5735   48.5432 C   0  0  0  0  0  0  0  0  0  0  0  0
   11.0745   -2.0905   46.6735 C   0  0  0  0  0  0  0  0  0  0  0  0
    8.5798   -1.4294   49.3788 F   0  0  0  0  0  0  0  0  0  0  0  0
   10.9035   -1.3906   49.1995 C   0  0  0  0  0  0  0  0  0  0  0  0
   12.1747   -1.4739   48.6417 C   0  0  0  0  0  0  0  0  0  0  0  0
   11.1434   -2.4219   45.1973 C   0  0  0  0  0  0  0  0  0  0  0  0
   12.2109   -1.8074   47.3731 C   0  0  0  0  0  0  0  0  0  0  0  0
   13.4851   -1.9470   46.7697 C   0  0  0  0  0  0  0  0  0  0  0  0
   14.6156   -1.6667   47.4317 O   0  0  0  0  0  0  0  0  0  0  0  0
   13.5857   -2.2116   45.4553 N   0  0  0  0  0  0  0  0  0  0  0  0
   12.5316   -2.3494   44.6933 C   0  0  0  0  0  0  0  0  0  0  0  0
  1  2  2  0
  2  3  1  0
  3  4  1  0
  3  5  2  0
  2  6  1  0
  4  7  1  0
  5  8  1  0
  1  9  1  0
  5  9  1  0
  8 10  1  0
  7 11  1  0
 10 11  1  0
  6 12  2  0
  4 13  2  0
 12 13  1  0
 11 14  1  0
 12 15  1  0
 10 16  2  0
  9 17  1  0
  8 18  1  0
 15 19  2  0
 19 20  1  0
 17 21  1  0
 18 21  1  0
 13 22  1  0
 20 22  2  0
 19 23  1  0
 23 24  2  0
 23 25  1  0
 24 26  1  0
 24 27  1  0
 27 28  2  0
 25 29  1  0
 25 30  2  0
 28 30  1  0
 30 31  1  0
 31 32  2  0
 31 33  1  0
 29 34  1  0
 33 34  1  0
M  END
$$$$
O14757_Pocket2Mol_idx-in-all-generaetd-655
     RDKit          3D

 39 47  0  0  0  0  0  0  0  0999 V2000
    4.8173    0.2791   42.6993 N   0  0  0  0  0  0  0  0  0  0  0  0
    5.3297   -0.7477   43.3688 C   0  0  0  0  0  0  0  0  0  0  0  0
    3.4732   -0.2235   42.4530 C   0  0  0  0  0  0  0  0  0  0  0  0
    4.4984   -1.7876   43.6214 C   0  0  0  0  0  0  0  0  0  0  0  0
    3.3438   -1.5190   42.9379 C   0  0  0  0  0  0  0  0  0  0  0  0
    2.1381   -2.3401   42.8254 C   0  0  0  0  0  0  0  0  0  0  0  0
    2.3894    0.3572   41.9843 N   0  0  0  0  0  0  0  0  0  0  0  0
    4.9180   -3.0430   44.3829 C   0  0  0  0  0  0  0  0  0  0  0  0
    5.9444   -2.9314   45.3934 C   0  0  0  0  0  0  0  0  0  0  0  0
    4.2808   -4.1329   44.3252 C   0  0  0  0  0  0  0  0  0  0  0  0
    3.1588   -4.4221   43.4852 O   0  0  0  0  0  0  0  0  0  0  0  0
    4.5704   -5.2518   45.1995 C   0  0  0  0  0  0  0  0  0  0  0  0
    1.9853   -3.6792   43.3495 C   0  0  0  0  0  0  0  0  0  0  0  0
    0.9181   -4.3294   43.4638 C   0  0  0  0  0  0  0  0  0  0  0  0
    6.7403   -1.6226   45.5272 C   0  0  2  0  0  0  0  0  0  0  0  0
    0.9752   -1.7845   42.3366 C   0  0  0  0  0  0  0  0  0  0  0  0
    6.2516   -3.7287   46.2722 C   0  0  0  0  0  0  0  0  0  0  0  0
   -0.2404   -2.4179   42.2529 C   0  0  0  0  0  0  0  0  0  0  0  0
   -1.3835   -1.8904   41.6559 N   0  0  0  0  0  0  0  0  0  0  0  0
    3.8706   -6.4216   45.1394 O   0  0  0  0  0  0  0  0  0  0  0  0
    0.9456   -0.2789   41.7649 C   0  0  0  0  0  0  0  0  0  0  0  0
   -0.2678   -3.6969   42.7575 C   0  0  0  0  0  0  0  0  0  0  0  0
    6.3913   -0.7000   44.3807 N   0  0  0  0  0  0  0  0  0  0  0  0
    7.9391   -1.5867   46.0069 C   0  0  0  0  0  0  0  0  0  0  0  0
    8.7787   -0.4879   45.9761 O   0  0  0  0  0  0  0  0  0  0  0  0
    5.3853   -5.1216   46.3780 C   0  0  0  0  0  0  0  0  0  0  0  0
    8.4504   -2.7517   46.6262 N   0  0  0  0  0  0  0  0  0  0  0  0
    7.4807   -3.7374   47.0380 C   0  0  0  0  0  0  0  0  0  0  0  0
    9.7442   -2.7944   46.9091 C   0  0  0  0  0  0  0  0  0  0  0  0
   10.5425   -3.4426   45.9689 C   0  0  0  0  0  0  0  0  0  0  0  0
   10.3017   -2.2524   47.9671 C   0  0  0  0  0  0  0  0  0  0  0  0
    9.4843   -1.5208   48.9551 C   0  0  0  0  0  0  0  0  0  0  0  0
   11.9725   -3.4596   46.1303 C   0  0  0  0  0  0  0  0  0  0  0  0
   11.7296   -2.3286   48.1612 C   0  0  0  0  0  0  0  0  0  0  0  0
   12.2963   -1.7544   49.3978 O   0  0  0  0  0  0  0  0  0  0  0  0
   12.5592   -2.9761   47.3323 C   0  0  0  0  0  0  0  0  0  0  0  0
   11.5359   -0.8340   49.9214 C   0  0  2  0  0  0  0  0  0  0  0  0
   12.2527   -0.4583   51.2093 C   0  0  0  0  0  0  0  0  0  0  0  0
   10.0564   -1.1285   50.1656 C   0  0  0  0  0  0  0  0  0  0  0  0
  1  2  2  0
  1  3  1  0
  2  4  1  0
  3  5  1  0
  4  5  2  0
  5  6  1  0
  3  7  2  0
  4  8  1  0
  8  9  1  0
  8 10  2  0
 10 11  1  0
 10 12  1  0
  6 13  1  0
 11 13  1  0
 13 14  2  0
  9 15  1  0
  6 16  2  0
  9 17  2  0
 16 18  1  0
 18 19  1  0
 12 20  1  0
  7 21  1  0
 16 21  1  0
 14 22  1  0
 18 22  2  0
  2 23  1  0
 15 23  1  6
 15 24  1  0
 24 25  2  0
 12 26  2  0
 17 26  1  0
 24 27  1  0
 17 28  1  0
 27 28  1  0
 27 29  1  0
 29 30  2  0
 29 31  1  0
 31 32  1  0
 30 33  1  0
 31 34  2  0
 34 35  1  0
 33 36  2  0
 34 36  1  0
 35 37  1  0
 37 38  1  1
 32 39  1  0
 37 39  1  0
M  END
$$$$
O14757_Pocket2Mol_idx-in-all-generaetd-656
     RDKit          3D

 38 43  0  0  0  0  0  0  0  0999 V2000
    5.3420    0.2589   42.8836 O   0  0  0  0  0  0  0  0  0  0  0  0
    5.1627   -0.7554   43.4753 C   0  0  0  0  0  0  0  0  0  0  0  0
    4.0509   -1.4657   43.4177 N   0  0  0  0  0  0  0  0  0  0  0  0
    5.9969   -1.2317   44.6840 C   0  0  0  0  0  0  0  0  0  0  0  0
    2.9618   -1.1021   42.5918 C   0  0  1  0  0  0  0  0  0  0  0  0
    7.3392   -0.8596   44.8412 C   0  0  0  0  0  0  0  0  0  0  0  0
    1.9754   -2.0820   42.2741 C   0  0  0  0  0  0  0  0  0  0  0  0
    5.5910   -2.4282   45.3439 C   0  0  0  0  0  0  0  0  0  0  0  0
    6.5874   -2.9636   46.1581 C   0  0  0  0  0  0  0  0  0  0  0  0
    4.2763   -3.0680   45.0493 N   0  0  0  0  0  0  0  0  0  0  0  0
    3.6188   -2.5886   44.2024 C   0  0  0  0  0  0  0  0  0  0  0  0
    8.1921   -1.4071   45.7505 C   0  0  0  0  0  0  0  0  0  0  0  0
    1.0154   -1.8839   41.2980 C   0  0  0  0  0  0  0  0  0  0  0  0
    2.5720   -3.3564   43.9063 C   0  0  0  0  0  0  0  0  0  0  0  0
    0.2502   -2.8976   41.0751 C   0  0  0  0  0  0  0  0  0  0  0  0
    6.1761   -4.1775   47.0209 C   0  0  0  0  0  0  0  0  0  0  0  0
    1.7266   -3.1047   43.0115 C   0  0  2  0  0  0  0  0  0  0  0  0
    2.3696   -4.5367   44.7536 N   0  0  0  0  0  0  0  0  0  0  0  0
    1.2264   -5.2346   44.4693 C   0  0  0  0  0  0  0  0  0  0  0  0
    0.7187   -3.8955   42.5465 C   0  0  0  0  0  0  0  0  0  0  0  0
    9.4576   -0.8949   46.0327 N   0  0  0  0  0  0  0  0  0  0  0  0
    0.8625   -6.3901   45.2462 C   0  0  0  0  0  0  0  0  0  0  0  0
    7.6467   -2.5139   46.4892 C   0  0  0  0  0  0  0  0  0  0  0  0
   10.4908   -1.5336   45.8242 C   0  0  0  0  0  0  0  0  0  0  0  0
    0.3057   -4.9299   43.2909 C   0  0  0  0  0  0  0  0  0  0  0  0
   11.5916   -1.4291   46.7436 C   0  0  0  0  0  0  0  0  0  0  0  0
   10.5566   -2.3672   44.8649 O   0  0  0  0  0  0  0  0  0  0  0  0
    2.4730    0.2084   42.8389 O   0  0  0  0  0  0  0  0  0  0  0  0
   11.6027   -2.2081   47.7725 N   0  0  0  0  0  0  0  0  0  0  0  0
   12.6189   -0.5862   46.5415 C   0  0  0  0  0  0  0  0  0  0  0  0
   13.6413   -0.4484   47.4129 C   0  0  0  0  0  0  0  0  0  0  0  0
   10.4764   -3.1097   48.1134 C   0  0  0  0  0  0  0  0  0  0  0  0
   14.7561    0.4679   47.0419 O   0  0  0  0  0  0  0  0  0  0  0  0
    9.5843   -2.5180   49.1038 C   0  0  0  0  0  0  0  0  0  0  0  0
   13.7507   -1.4060   48.3018 C   0  0  0  0  0  0  0  0  0  0  0  0
   12.7164   -2.2053   48.5160 C   0  0  0  0  0  0  0  0  0  0  0  0
   14.8764   -1.3525   48.9841 O   0  0  0  0  0  0  0  0  0  0  0  0
   12.8078   -3.0159   49.5865 O   0  0  0  0  0  0  0  0  0  0  0  0
  1  2  2  0
  2  3  1  0
  2  4  1  0
  3  5  1  0
  4  6  2  0
  5  7  1  0
  4  8  1  0
  8  9  2  0
  8 10  1  0
  3 11  1  0
 10 11  2  0
  6 12  1  0
  7 13  2  0
 11 14  1  0
 13 15  1  0
  9 16  1  0
 17  7  1  6
 14 17  1  0
 14 18  2  0
 18 19  1  0
 15 20  2  0
 17 20  1  0
 12 21  1  0
 19 22  1  0
  9 23  1  0
 12 23  2  0
 21 24  1  0
 19 25  2  0
 20 25  1  0
 24 26  1  0
 24 27  2  0
  5 28  1  1
 26 29  1  0
 26 30  2  0
 30 31  1  0
 29 32  1  0
 31 33  1  0
 32 34  1  0
 31 35  2  0
 29 36  1  0
 35 36  1  0
 35 37  1  0
 36 38  2  0
M  END
$$$$
O14757_Pocket2Mol_idx-in-all-generaetd-657
     RDKit          3D

 35 40  0  0  0  0  0  0  0  0999 V2000
    1.5482   -0.3111   41.9233 C   0  0  0  0  0  0  0  0  0  0  0  0
    2.7284    0.2018   42.1525 N   0  0  0  0  0  0  0  0  0  0  0  0
    3.7893   -0.3016   42.7005 C   0  0  0  0  0  0  0  0  0  0  0  0
    3.3781   -1.7350   43.0000 C   0  0  0  0  0  0  0  0  0  0  0  0
    2.0339   -1.9619   42.6217 C   0  0  0  0  0  0  0  0  0  0  0  0
    4.1166   -2.4997   43.8458 C   0  0  0  0  0  0  0  0  0  0  0  0
    1.1731   -3.0051   42.5773 C   0  0  0  0  0  0  0  0  0  0  0  0
    0.4701   -3.2344   41.4901 C   0  0  0  0  0  0  0  0  0  0  0  0
    5.3799   -1.7814   44.2691 C   0  0  0  0  0  0  0  0  0  0  0  0
    5.0159   -0.0180   43.1201 N   0  0  0  0  0  0  0  0  0  0  0  0
    5.7693   -0.6937   43.8418 C   0  0  0  0  0  0  0  0  0  0  0  0
    0.8078   -3.6166   43.6782 C   0  0  0  0  0  0  0  0  0  0  0  0
    0.0663   -4.7011   43.7415 N   0  0  0  0  0  0  0  0  0  0  0  0
    6.2223   -2.6843   45.1565 C   0  0  0  0  0  0  0  0  0  0  0  0
    1.4459   -3.3095   45.0236 O   0  0  0  0  0  0  0  0  0  0  0  0
   -0.5278   -5.1074   42.5506 C   0  0  0  0  0  0  0  0  0  0  0  0
   -1.3099   -6.2193   42.5332 N   0  0  0  0  0  0  0  0  0  0  0  0
   -0.3906   -4.3573   41.3904 C   0  0  0  0  0  0  0  0  0  0  0  0
    7.0535   -0.4845   44.4478 N   0  0  0  0  0  0  0  0  0  0  0  0
    0.6210   -3.8397   46.1835 C   0  0  0  0  0  0  0  0  0  0  0  0
    6.2906   -3.7888   45.8815 C   0  0  0  0  0  0  0  0  0  0  0  0
    7.3965   -1.5466   45.3147 C   0  0  2  0  0  0  0  0  0  0  0  0
    5.1449   -4.4973   46.0473 O   0  0  0  0  0  0  0  0  0  0  0  0
    7.4148   -4.1081   46.6372 C   0  0  0  0  0  0  0  0  0  0  0  0
    8.5011   -3.1747   46.6693 C   0  0  0  0  0  0  0  0  0  0  0  0
    8.5024   -1.9693   46.1866 C   0  0  0  0  0  0  0  0  0  0  0  0
    9.5172   -0.9853   46.2464 C   0  0  0  0  0  0  0  0  0  0  0  0
   10.6071   -1.2828   47.0155 C   0  0  0  0  0  0  0  0  0  0  0  0
    9.6602   -3.4744   47.5183 C   0  0  0  0  0  0  0  0  0  0  0  0
    4.3963   -4.5898   47.1625 C   0  0  0  0  0  0  0  0  0  0  0  0
    9.7311   -4.7592   48.2334 O   0  0  0  0  0  0  0  0  0  0  0  0
   10.4271   -5.7388   47.6694 C   0  0  0  0  0  0  0  0  0  0  0  0
   11.7213   -0.3942   47.1734 O   0  0  0  0  0  0  0  0  0  0  0  0
   10.7654   -2.5636   47.7325 C   0  0  0  0  0  0  0  0  0  0  0  0
   12.6604   -0.3981   46.1282 C   0  0  0  0  0  0  0  0  0  0  0  0
  1  2  1  0
  2  3  2  0
  3  4  1  0
  1  5  2  0
  4  5  1  0
  4  6  2  0
  5  7  1  0
  7  8  2  0
  6  9  1  0
  3 10  1  0
  9 11  1  0
 10 11  1  0
  7 12  1  0
 12 13  2  0
  9 14  2  0
 12 15  1  0
 13 16  1  0
 16 17  1  0
  8 18  1  0
 16 18  2  0
 11 19  2  0
 15 20  1  0
 14 21  1  0
 14 22  1  0
 22 19  1  6
 21 23  1  0
 21 24  2  0
 24 25  1  0
 22 26  1  0
 25 26  2  0
 26 27  1  0
 27 28  2  0
 25 29  1  0
 23 30  1  0
 29 31  1  0
 31 32  1  0
 28 33  1  0
 28 34  1  0
 29 34  2  0
 33 35  1  0
M  END
$$$$
O14757_Pocket2Mol_idx-in-all-generaetd-658
     RDKit          3D

 30 34  0  0  0  0  0  0  0  0999 V2000
    2.2608    0.0351   42.1039 C   0  0  0  0  0  0  0  0  0  0  0  0
    2.7906   -1.0673   42.3987 N   0  0  0  0  0  0  0  0  0  0  0  0
    3.1210    0.9973   42.3040 N   0  0  0  0  0  0  0  0  0  0  0  0
    4.0827   -0.7954   42.9700 C   0  0  0  0  0  0  0  0  0  0  0  0
    4.9955   -1.7234   43.5259 N   0  0  0  0  0  0  0  0  0  0  0  0
    4.5382   -2.7016   44.3398 C   0  0  0  0  0  0  0  0  0  0  0  0
    5.3738   -2.9294   45.5228 C   0  0  2  0  0  0  0  0  0  0  0  0
    6.6133   -2.1566   45.5018 C   0  0  0  0  0  0  0  0  0  0  0  0
    4.2841    0.3926   42.8877 N   0  0  0  0  0  0  0  0  0  0  0  0
    5.4441   -4.2364   45.9837 C   0  0  0  0  0  0  0  0  0  0  0  0
    1.9678   -2.2711   42.4114 C   0  0  0  0  0  0  0  0  0  0  0  0
    7.1399   -1.4316   44.7431 O   0  0  0  0  0  0  0  0  0  0  0  0
    7.4936   -2.5586   46.5441 N   0  0  0  0  0  0  0  0  0  0  0  0
    5.8242   -4.4706   47.3868 C   0  0  0  0  0  0  0  0  0  0  0  0
    1.0261   -2.3754   41.4347 C   0  0  0  0  0  0  0  0  0  0  0  0
    0.1189   -3.5468   41.4614 C   0  0  0  0  0  0  0  0  0  0  0  0
    2.2389   -3.3785   43.2951 C   0  0  0  0  0  0  0  0  0  0  0  0
    7.2878   -3.8453   47.4168 C   0  0  0  0  0  0  0  0  0  0  0  0
    8.7924   -2.0007   46.7564 C   0  0  0  0  0  0  0  0  0  0  0  0
    1.3661   -4.4521   43.3426 C   0  0  0  0  0  0  0  0  0  0  0  0
    9.8033   -2.6228   46.5614 C   0  0  0  0  0  0  0  0  0  0  0  0
   10.9913   -2.0373   46.1248 C   0  0  0  0  0  0  0  0  0  0  0  0
    3.3424   -3.3266   44.1958 N   0  0  0  0  0  0  0  0  0  0  0  0
    0.4108   -4.5111   42.5299 C   0  0  0  0  0  0  0  0  0  0  0  0
   11.1026   -0.7020   46.0306 C   0  0  0  0  0  0  0  0  0  0  0  0
   12.4343   -0.2159   45.6555 C   0  0  0  0  0  0  0  0  0  0  0  0
   13.3120   -0.9019   45.0078 O   0  0  0  0  0  0  0  0  0  0  0  0
   12.6335    1.0304   45.8051 O   0  0  0  0  0  0  0  0  0  0  0  0
    8.8809   -0.5109   46.2695 C   0  0  0  0  0  0  0  0  0  0  0  0
   10.0360   -0.0186   46.0236 C   0  0  0  0  0  0  0  0  0  0  0  0
  1  2  1  0
  1  3  2  0
  2  4  1  0
  4  5  1  0
  5  6  1  0
  7  6  1  6
  7  8  1  0
  3  9  1  0
  4  9  2  0
  7 10  1  0
  2 11  1  0
  8 12  2  0
  8 13  1  0
 10 14  1  0
 11 15  2  0
 15 16  1  0
 11 17  1  0
 13 18  1  0
 14 18  1  0
 13 19  1  0
 17 20  2  0
 19 21  2  0
 21 22  1  0
  6 23  2  0
 17 23  1  0
 16 24  2  0
 20 24  1  0
 22 25  2  0
 25 26  1  0
 26 27  2  0
 26 28  1  0
 19 29  1  0
 25 30  1  0
 29 30  2  0
M  END
$$$$
O14757_Pocket2Mol_idx-in-all-generaetd-659
     RDKit          3D

 30 37  0  0  0  0  0  0  0  0999 V2000
    1.5482   -0.3111   41.9233 C   0  0  0  0  0  0  0  0  0  0  0  0
    2.7284    0.2018   42.1525 N   0  0  0  0  0  0  0  0  0  0  0  0
    3.7893   -0.3016   42.7005 C   0  0  0  0  0  0  0  0  0  0  0  0
    3.3781   -1.7350   43.0000 C   0  0  0  0  0  0  0  0  0  0  0  0
    2.0339   -1.9619   42.6217 C   0  0  0  0  0  0  0  0  0  0  0  0
    5.0090    0.1219   42.9340 N   0  0  0  0  0  0  0  0  0  0  0  0
    4.2895   -2.4979   43.6707 C   0  0  0  0  0  0  0  0  0  0  0  0
    5.8391   -0.6675   43.6343 C   0  0  0  0  0  0  0  0  0  0  0  0
    6.9849   -0.2377   44.0028 N   0  0  0  0  0  0  0  0  0  0  0  0
    4.0426   -3.8794   44.0832 C   0  0  0  0  0  0  0  0  0  0  0  0
    7.6796   -0.8734   44.9326 C   0  0  0  0  0  0  0  0  0  0  0  0
    1.1064   -2.9576   42.4211 C   0  0  0  0  0  0  0  0  0  0  0  0
    5.5298   -1.9496   44.0315 C   0  0  0  0  0  0  0  0  0  0  0  0
    3.8954   -4.1817   45.4718 C   0  0  0  0  0  0  0  0  0  0  0  0
    0.6765   -3.5480   43.4006 C   0  0  0  0  0  0  0  0  0  0  0  0
    0.5804   -3.2191   41.1635 C   0  0  0  0  0  0  0  0  0  0  0  0
    2.8083   -4.8227   45.9203 N   0  0  0  0  0  0  0  0  0  0  0  0
   -0.1574   -4.5754   42.9329 N   0  0  0  0  0  0  0  0  0  0  0  0
    6.5271   -2.5531   44.9677 C   0  0  0  0  0  0  0  0  0  0  0  0
   -0.2272   -4.3703   41.5137 C   0  0  0  0  0  0  0  0  0  0  0  0
    7.5095   -2.0029   45.3993 C   0  0  0  0  0  0  0  0  0  0  0  0
    8.2550   -2.6982   46.3988 C   0  0  0  0  0  0  0  0  0  0  0  0
    8.8975   -0.3029   45.3267 O   0  0  0  0  0  0  0  0  0  0  0  0
    4.8299   -4.4637   46.4212 C   0  0  0  0  0  0  0  0  0  0  0  0
    4.2707   -4.9248   47.6295 N   0  0  0  0  0  0  0  0  0  0  0  0
    3.2045   -5.2092   47.1521 C   0  0  0  0  0  0  0  0  0  0  0  0
    6.3206   -3.8571   46.1489 C   0  0  0  0  0  0  0  0  0  0  0  0
    7.4043   -3.8499   46.7980 C   0  0  0  0  0  0  0  0  0  0  0  0
    1.5214   -4.9374   45.2716 C   0  0  0  0  0  0  0  0  0  0  0  0
    1.3766   -3.8273   44.6286 N   0  0  0  0  0  0  0  0  0  0  0  0
  1  2  1  0
  2  3  2  0
  3  4  1  0
  1  5  2  0
  4  5  1  0
  3  6  1  0
  4  7  2  0
  6  8  1  0
  8  9  1  0
  7 10  1  0
  9 11  1  0
  5 12  1  0
  7 13  1  0
  8 13  2  0
 10 14  1  0
 12 15  1  0
 12 16  2  0
 14 17  1  0
 15 18  1  0
 13 19  1  0
 16 20  1  0
 18 20  2  0
 11 21  1  0
 19 21  2  0
 21 22  1  0
 11 23  2  0
 14 24  2  0
 24 25  1  0
 17 26  1  0
 25 26  2  0
 19 27  1  0
 24 27  1  0
 22 28  2  0
 27 28  2  0
 17 29  1  0
 15 30  2  3
 29 30  1  0
M  END
$$$$
O14757_Pocket2Mol_idx-in-all-generaetd-660
     RDKit          3D

 37 42  0  0  0  0  0  0  0  0999 V2000
    1.5482   -0.3111   41.9233 C   0  0  0  0  0  0  0  0  0  0  0  0
    2.7284    0.2018   42.1525 N   0  0  0  0  0  0  0  0  0  0  0  0
    3.7893   -0.3016   42.7005 C   0  0  0  0  0  0  0  0  0  0  0  0
    3.3781   -1.7350   43.0000 C   0  0  0  0  0  0  0  0  0  0  0  0
    2.0339   -1.9619   42.6217 C   0  0  0  0  0  0  0  0  0  0  0  0
    4.1166   -2.4997   43.8458 C   0  0  0  0  0  0  0  0  0  0  0  0
    1.1731   -3.0051   42.5773 C   0  0  0  0  0  0  0  0  0  0  0  0
    0.4701   -3.2344   41.4901 C   0  0  0  0  0  0  0  0  0  0  0  0
    5.3799   -1.7814   44.2691 C   0  0  0  0  0  0  0  0  0  0  0  0
    5.0159   -0.0180   43.1201 N   0  0  0  0  0  0  0  0  0  0  0  0
    5.7693   -0.6937   43.8418 C   0  0  0  0  0  0  0  0  0  0  0  0
    0.8078   -3.6166   43.6782 C   0  0  0  0  0  0  0  0  0  0  0  0
    0.0663   -4.7011   43.7415 N   0  0  0  0  0  0  0  0  0  0  0  0
    6.2223   -2.6843   45.1565 C   0  0  0  0  0  0  0  0  0  0  0  0
    6.9599   -0.2351   44.2608 N   0  0  0  0  0  0  0  0  0  0  0  0
    5.9065   -3.9037   45.7499 N   0  0  0  0  0  0  0  0  0  0  0  0
   -0.5459   -5.1185   42.5870 C   0  0  0  0  0  0  0  0  0  0  0  0
    5.7480   -4.0340   46.9810 C   0  0  0  0  0  0  0  0  0  0  0  0
    7.4448   -1.8511   45.4198 C   0  0  0  0  0  0  0  0  0  0  0  0
    7.7572   -0.7827   45.0128 C   0  0  0  0  0  0  0  0  0  0  0  0
    8.4076   -2.7217   46.4541 C   0  0  0  0  0  0  0  0  0  0  0  0
    9.3167   -2.0988   47.1049 N   0  0  0  0  0  0  0  0  0  0  0  0
   -0.4719   -4.3893   41.5406 C   0  0  0  0  0  0  0  0  0  0  0  0
    8.3667   -4.0284   46.5743 N   0  0  0  0  0  0  0  0  0  0  0  0
   10.1532   -2.5726   47.9567 C   0  0  0  0  0  0  0  0  0  0  0  0
   11.0726   -1.7892   48.6998 C   0  0  0  0  0  0  0  0  0  0  0  0
   10.4886   -0.9372   49.4584 C   0  0  0  0  0  0  0  0  0  0  0  0
    8.9772   -4.5617   47.6013 C   0  0  0  0  0  0  0  0  0  0  0  0
    9.9765   -3.9922   48.2636 C   0  0  0  0  0  0  0  0  0  0  0  0
   11.3393   -0.1462   50.3539 C   0  0  0  0  0  0  0  0  0  0  0  0
   12.4892   -1.8956   48.4941 C   0  0  0  0  0  0  0  0  0  0  0  0
   12.8930   -0.3809   50.0834 C   0  0  0  0  0  0  0  0  0  0  0  0
   12.9994   -2.9244   47.4139 C   0  0  0  0  0  0  0  0  0  0  0  0
   13.2804   -1.1960   49.2234 C   0  0  0  0  0  0  0  0  0  0  0  0
   13.3446   -4.0675   47.7977 O   0  0  0  0  0  0  0  0  0  0  0  0
   13.4086   -2.4377   46.2633 O   0  0  0  0  0  0  0  0  0  0  0  0
   12.3842   -1.9036   45.4296 C   0  0  0  0  0  0  0  0  0  0  0  0
  1  2  1  0
  2  3  2  0
  3  4  1  0
  1  5  2  0
  4  5  1  0
  4  6  2  0
  5  7  1  0
  7  8  2  0
  6  9  1  0
  3 10  1  0
  9 11  2  0
 10 11  1  0
  7 12  1  0
 12 13  2  0
  9 14  1  0
 11 15  1  0
 14 16  1  0
 13 17  1  0
 16 18  1  0
 14 19  2  0
 15 20  2  0
 19 20  1  0
 19 21  1  0
 21 22  2  0
  8 23  1  0
 17 23  2  0
 21 24  1  0
 22 25  1  0
 25 26  1  0
 26 27  2  0
 24 28  2  0
 25 29  2  0
 28 29  1  0
 27 30  1  0
 26 31  1  0
 30 32  2  0
 31 33  1  0
 31 34  2  0
 32 34  1  0
 33 35  2  0
 33 36  1  0
 36 37  1  0
M  END
$$$$
O14757_Pocket2Mol_idx-in-all-generaetd-661
     RDKit          3D

 32 37  0  0  0  0  0  0  0  0999 V2000
    2.2608    0.0351   42.1039 C   0  0  0  0  0  0  0  0  0  0  0  0
    2.7906   -1.0673   42.3987 N   0  0  0  0  0  0  0  0  0  0  0  0
    3.1210    0.9973   42.3040 N   0  0  0  0  0  0  0  0  0  0  0  0
    4.0827   -0.7954   42.9700 C   0  0  0  0  0  0  0  0  0  0  0  0
    4.9955   -1.7234   43.5259 N   0  0  0  0  0  0  0  0  0  0  0  0
    4.5382   -2.7016   44.3398 C   0  0  1  0  0  0  0  0  0  0  0  0
    5.3738   -2.9294   45.5228 C   0  0  2  0  0  0  0  0  0  0  0  0
    6.6133   -2.1566   45.5018 C   0  0  0  0  0  0  0  0  0  0  0  0
    4.2841    0.3926   42.8877 N   0  0  0  0  0  0  0  0  0  0  0  0
    5.4441   -4.2364   45.9837 C   0  0  1  0  0  0  0  0  0  0  0  0
    1.9678   -2.2711   42.4114 C   0  0  0  0  0  0  0  0  0  0  0  0
    7.1399   -1.4316   44.7431 O   0  0  0  0  0  0  0  0  0  0  0  0
    7.4936   -2.5586   46.5441 N   0  0  0  0  0  0  0  0  0  0  0  0
    5.8242   -4.4706   47.3868 C   0  0  0  0  0  0  0  0  0  0  0  0
    1.0261   -2.3754   41.4347 C   0  0  0  0  0  0  0  0  0  0  0  0
    0.1189   -3.5468   41.4614 C   0  0  0  0  0  0  0  0  0  0  0  0
    2.2389   -3.3785   43.2951 C   0  0  0  0  0  0  0  0  0  0  0  0
    3.3150   -3.3216   44.2621 C   0  0  0  0  0  0  0  0  0  0  0  0
    1.3406   -4.4173   43.3204 C   0  0  0  0  0  0  0  0  0  0  0  0
    3.0554   -4.2318   45.3665 C   0  0  0  0  0  0  0  0  0  0  0  0
    0.3712   -4.5285   42.3933 C   0  0  0  0  0  0  0  0  0  0  0  0
    4.0586   -4.6542   46.2064 C   0  0  0  0  0  0  0  0  0  0  0  0
    7.3237   -3.8358   47.3689 C   0  0  0  0  0  0  0  0  0  0  0  0
    8.7189   -1.8541   46.8231 C   0  0  0  0  0  0  0  0  0  0  0  0
    9.3570   -1.9407   47.8546 C   0  0  0  0  0  0  0  0  0  0  0  0
   10.6746   -1.7130   47.8928 C   0  0  0  0  0  0  0  0  0  0  0  0
   11.3010   -1.8542   46.6346 C   0  0  0  0  0  0  0  0  0  0  0  0
   11.7571   -3.0478   46.2188 C   0  0  0  0  0  0  0  0  0  0  0  0
   12.4621   -3.0943   44.9801 C   0  0  0  0  0  0  0  0  0  0  0  0
   13.0129   -1.9244   44.4399 C   0  0  0  0  0  0  0  0  0  0  0  0
   11.9763   -0.6279   46.0714 C   0  0  0  0  0  0  0  0  0  0  0  0
   12.8050   -0.6858   44.9393 C   0  0  0  0  0  0  0  0  0  0  0  0
  1  2  1  0
  1  3  2  0
  2  4  1  0
  4  5  1  0
  6  5  1  1
  6  7  1  0
  7  8  1  6
  3  9  1  0
  4  9  2  0
  7 10  1  0
  2 11  1  0
  8 12  2  0
  8 13  1  0
 10 14  1  1
 11 15  2  0
 15 16  1  0
 11 17  1  0
  6 18  1  0
 17 18  1  0
 17 19  2  0
 18 20  2  0
 16 21  2  0
 19 21  1  0
 10 22  1  0
 20 22  1  0
 13 23  1  0
 14 23  1  0
 13 24  1  0
 24 25  1  0
 25 26  1  0
 26 27  1  0
 27 28  2  0
 28 29  1  0
 29 30  2  0
 27 31  1  0
 30 32  1  0
 31 32  2  0
M  END
$$$$
O14757_Pocket2Mol_idx-in-all-generaetd-662
     RDKit          3D

 30 33  0  0  0  0  0  0  0  0999 V2000
    4.5142    0.3543   42.7132 N   0  0  0  0  0  0  0  0  0  0  0  0
    3.5107   -0.4860   42.6298 C   0  0  0  0  0  0  0  0  0  0  0  0
    3.5891   -1.7637   43.2512 N   0  0  0  0  0  0  0  0  0  0  0  0
    5.5470   -0.0112   43.3539 C   0  0  0  0  0  0  0  0  0  0  0  0
    2.1469   -0.1899   41.9512 C   0  0  0  0  0  0  0  0  0  0  0  0
    4.6725   -2.0734   43.8606 C   0  0  0  0  0  0  0  0  0  0  0  0
    5.7749   -1.1829   43.9325 C   0  0  0  0  0  0  0  0  0  0  0  0
    4.7150   -3.3068   44.6440 C   0  0  0  0  0  0  0  0  0  0  0  0
    6.9086   -1.5797   44.6919 C   0  0  0  0  0  0  0  0  0  0  0  0
    3.5691   -4.2517   44.6407 C   0  0  0  0  0  0  0  0  0  0  0  0
    2.3573   -4.0060   44.5430 C   0  0  0  0  0  0  0  0  0  0  0  0
    6.9170   -2.8018   45.4663 C   0  0  0  0  0  0  0  0  0  0  0  0
    5.8006   -3.6152   45.4297 C   0  0  0  0  0  0  0  0  0  0  0  0
    8.0903   -3.1108   46.2193 C   0  0  0  0  0  0  0  0  0  0  0  0
    4.0064   -5.4798   44.1304 O   0  0  0  0  0  0  0  0  0  0  0  0
    1.3499   -4.4927   43.7488 C   0  0  0  0  0  0  0  0  0  0  0  0
    8.9407   -2.1153   46.7855 N   0  0  0  0  0  0  0  0  0  0  0  0
    9.9131   -2.4307   47.6296 C   0  0  0  0  0  0  0  0  0  0  0  0
    9.9401   -2.1931   48.7722 O   0  0  0  0  0  0  0  0  0  0  0  0
    1.6925   -3.8787   45.7737 C   0  0  0  0  0  0  0  0  0  0  0  0
    0.0956   -4.4506   43.8726 C   0  0  0  0  0  0  0  0  0  0  0  0
   -0.4743   -4.1254   44.9651 C   0  0  0  0  0  0  0  0  0  0  0  0
    0.3478   -3.8227   46.0202 C   0  0  0  0  0  0  0  0  0  0  0  0
   10.9717   -3.3044   47.0291 C   0  0  2  0  0  0  0  0  0  0  0  0
   10.8168   -4.5181   46.8298 C   0  0  0  0  0  0  0  0  0  0  0  0
   12.2889   -2.9891   47.7404 N   0  0  0  0  0  0  0  0  0  0  0  0
   13.4598   -3.3732   46.9870 C   0  0  0  0  0  0  0  0  0  0  0  0
   11.9378   -5.3050   46.1562 C   0  0  2  0  0  0  0  0  0  0  0  0
   11.8048   -6.6763   46.0640 O   0  0  0  0  0  0  0  0  0  0  0  0
   13.3092   -4.9387   46.8544 C   0  0  0  0  0  0  0  0  0  0  0  0
  1  2  2  0
  2  3  1  0
  1  4  1  0
  2  5  1  0
  3  6  2  0
  4  7  2  0
  6  7  1  0
  6  8  1  0
  7  9  1  0
  8 10  1  0
 10 11  1  0
  9 12  2  0
  8 13  2  0
 12 13  1  0
 12 14  1  0
 10 15  2  0
 11 16  2  0
 14 17  1  0
 17 18  1  0
 18 19  2  0
 11 20  1  0
 16 21  1  0
 21 22  2  0
 20 23  2  0
 22 23  1  0
 24 18  1  1
 24 25  1  0
 24 26  1  0
 26 27  1  0
 25 28  1  0
 28 29  1  1
 27 30  1  0
 28 30  1  0
M  END
$$$$
O14757_Pocket2Mol_idx-in-all-generaetd-663
     RDKit          3D

 38 43  0  0  0  0  0  0  0  0999 V2000
    1.5482   -0.3111   41.9233 C   0  0  0  0  0  0  0  0  0  0  0  0
    2.7284    0.2018   42.1525 N   0  0  0  0  0  0  0  0  0  0  0  0
    3.7893   -0.3016   42.7005 C   0  0  0  0  0  0  0  0  0  0  0  0
    3.3781   -1.7350   43.0000 C   0  0  0  0  0  0  0  0  0  0  0  0
    2.0339   -1.9619   42.6217 C   0  0  0  0  0  0  0  0  0  0  0  0
    4.1166   -2.4997   43.8458 C   0  0  0  0  0  0  0  0  0  0  0  0
    1.1731   -3.0051   42.5773 C   0  0  0  0  0  0  0  0  0  0  0  0
    0.4701   -3.2344   41.4901 C   0  0  0  0  0  0  0  0  0  0  0  0
    5.3799   -1.7814   44.2691 C   0  0  0  0  0  0  0  0  0  0  0  0
    5.0159   -0.0180   43.1201 N   0  0  0  0  0  0  0  0  0  0  0  0
    5.7693   -0.6937   43.8418 C   0  0  0  0  0  0  0  0  0  0  0  0
    0.8078   -3.6166   43.6782 C   0  0  0  0  0  0  0  0  0  0  0  0
    0.0663   -4.7011   43.7415 N   0  0  0  0  0  0  0  0  0  0  0  0
    6.2223   -2.6843   45.1565 C   0  0  0  0  0  0  0  0  0  0  0  0
    6.9599   -0.2351   44.2608 N   0  0  0  0  0  0  0  0  0  0  0  0
    5.9065   -3.9037   45.7499 N   0  0  0  0  0  0  0  0  0  0  0  0
   -0.5459   -5.1185   42.5870 C   0  0  0  0  0  0  0  0  0  0  0  0
    5.7480   -4.0340   46.9810 C   0  0  0  0  0  0  0  0  0  0  0  0
    7.4448   -1.8511   45.4198 C   0  0  0  0  0  0  0  0  0  0  0  0
    7.7572   -0.7827   45.0128 C   0  0  0  0  0  0  0  0  0  0  0  0
    8.4076   -2.7217   46.4541 C   0  0  0  0  0  0  0  0  0  0  0  0
    9.3167   -2.0988   47.1049 N   0  0  0  0  0  0  0  0  0  0  0  0
   -0.4719   -4.3893   41.5406 C   0  0  0  0  0  0  0  0  0  0  0  0
    8.3667   -4.0284   46.5743 N   0  0  0  0  0  0  0  0  0  0  0  0
    9.5309   -4.3147   47.3094 C   0  0  0  0  0  0  0  0  0  0  0  0
    5.3113   -3.3789   47.8005 O   0  0  0  0  0  0  0  0  0  0  0  0
    9.9022   -5.6301   47.7684 C   0  0  0  0  0  0  0  0  0  0  0  0
    5.4470   -5.5868   47.2096 C   0  0  0  0  0  0  0  0  0  0  0  0
   11.2254   -5.8679   48.0402 C   0  0  0  0  0  0  0  0  0  0  0  0
    8.9736   -6.6532   47.8548 C   0  0  0  0  0  0  0  0  0  0  0  0
   10.0616   -3.0670   47.6360 C   0  0  0  0  0  0  0  0  0  0  0  0
    9.2755   -7.8884   48.2076 C   0  0  0  0  0  0  0  0  0  0  0  0
   12.3151   -4.8393   47.9221 O   0  0  0  0  0  0  0  0  0  0  0  0
    8.2519   -8.9331   48.3446 C   0  0  0  0  0  0  0  0  0  0  0  0
    7.7918   -9.2569   47.1381 O   0  0  0  0  0  0  0  0  0  0  0  0
   11.6233   -7.1598   48.4547 C   0  0  0  0  0  0  0  0  0  0  0  0
   13.4562   -5.3053   47.3461 C   0  0  0  0  0  0  0  0  0  0  0  0
   10.6481   -8.1487   48.5877 C   0  0  0  0  0  0  0  0  0  0  0  0
  1  2  1  0
  2  3  2  0
  3  4  1  0
  1  5  2  0
  4  5  1  0
  4  6  2  0
  5  7  1  0
  7  8  2  0
  6  9  1  0
  3 10  1  0
  9 11  2  0
 10 11  1  0
  7 12  1  0
 12 13  2  0
  9 14  1  0
 11 15  1  0
 14 16  1  0
 13 17  1  0
 16 18  1  0
 14 19  2  0
 15 20  2  0
 19 20  1  0
 19 21  1  0
 21 22  2  0
  8 23  1  0
 17 23  2  0
 21 24  1  0
 24 25  1  0
 18 26  2  0
 25 27  1  0
 18 28  1  0
 27 29  2  0
 27 30  1  0
 22 31  1  0
 25 31  2  0
 30 32  2  0
 29 33  1  0
 32 34  1  0
 34 35  1  0
 29 36  1  0
 33 37  1  0
 32 38  1  0
 36 38  2  0
M  END
$$$$
O14757_Pocket2Mol_idx-in-all-generaetd-664
     RDKit          3D

 39 45  0  0  0  0  0  0  0  0999 V2000
    1.5482   -0.3111   41.9233 C   0  0  0  0  0  0  0  0  0  0  0  0
    2.7284    0.2018   42.1525 N   0  0  0  0  0  0  0  0  0  0  0  0
    3.7893   -0.3016   42.7005 C   0  0  0  0  0  0  0  0  0  0  0  0
    3.3781   -1.7350   43.0000 C   0  0  0  0  0  0  0  0  0  0  0  0
    2.0339   -1.9619   42.6217 C   0  0  0  0  0  0  0  0  0  0  0  0
    4.1166   -2.4997   43.8458 C   0  0  0  0  0  0  0  0  0  0  0  0
    1.1731   -3.0051   42.5773 C   0  0  0  0  0  0  0  0  0  0  0  0
    0.4701   -3.2344   41.4901 C   0  0  0  0  0  0  0  0  0  0  0  0
    5.3799   -1.7814   44.2691 C   0  0  0  0  0  0  0  0  0  0  0  0
    5.0159   -0.0180   43.1201 N   0  0  0  0  0  0  0  0  0  0  0  0
    5.7693   -0.6937   43.8418 C   0  0  0  0  0  0  0  0  0  0  0  0
    0.8078   -3.6166   43.6782 C   0  0  0  0  0  0  0  0  0  0  0  0
    0.0663   -4.7011   43.7415 N   0  0  0  0  0  0  0  0  0  0  0  0
    6.2223   -2.6843   45.1565 C   0  0  0  0  0  0  0  0  0  0  0  0
    6.9599   -0.2351   44.2608 N   0  0  0  0  0  0  0  0  0  0  0  0
    5.9065   -3.9037   45.7499 N   0  0  0  0  0  0  0  0  0  0  0  0
   -0.5459   -5.1185   42.5870 C   0  0  0  0  0  0  0  0  0  0  0  0
    5.7480   -4.0340   46.9810 C   0  0  0  0  0  0  0  0  0  0  0  0
    7.4448   -1.8511   45.4198 C   0  0  0  0  0  0  0  0  0  0  0  0
    7.7572   -0.7827   45.0128 C   0  0  0  0  0  0  0  0  0  0  0  0
    8.4076   -2.7217   46.4541 C   0  0  0  0  0  0  0  0  0  0  0  0
    9.3167   -2.0988   47.1049 N   0  0  0  0  0  0  0  0  0  0  0  0
   -0.4719   -4.3893   41.5406 C   0  0  0  0  0  0  0  0  0  0  0  0
    8.3667   -4.0284   46.5743 N   0  0  0  0  0  0  0  0  0  0  0  0
    9.5309   -4.3147   47.3094 C   0  0  0  0  0  0  0  0  0  0  0  0
    5.3113   -3.3789   47.8005 O   0  0  0  0  0  0  0  0  0  0  0  0
    9.9022   -5.6301   47.7684 C   0  0  0  0  0  0  0  0  0  0  0  0
    5.4470   -5.5868   47.2096 C   0  0  0  0  0  0  0  0  0  0  0  0
   11.2254   -5.8679   48.0402 C   0  0  0  0  0  0  0  0  0  0  0  0
    8.9736   -6.6532   47.8548 C   0  0  0  0  0  0  0  0  0  0  0  0
   10.0616   -3.0670   47.6360 C   0  0  0  0  0  0  0  0  0  0  0  0
    7.5566   -6.3564   47.5477 N   0  0  0  0  0  0  0  0  0  0  0  0
   12.3328   -4.8893   47.9268 C   0  0  0  0  0  0  0  0  0  0  0  0
    9.3549   -7.9044   48.1067 C   0  0  0  0  0  0  0  0  0  0  0  0
   11.6649   -7.1567   48.3527 C   0  0  0  0  0  0  0  0  0  0  0  0
    8.3780   -8.9944   48.2608 C   0  0  0  0  0  0  0  0  0  0  0  0
    7.9115   -9.3588   47.1128 O   0  0  0  0  0  0  0  0  0  0  0  0
    6.6971   -6.0094   48.4651 C   0  0  0  0  0  0  0  0  0  0  0  0
   10.6916   -8.2901   48.5689 C   0  0  0  0  0  0  0  0  0  0  0  0
  1  2  1  0
  2  3  2  0
  3  4  1  0
  1  5  2  0
  4  5  1  0
  4  6  2  0
  5  7  1  0
  7  8  2  0
  6  9  1  0
  3 10  1  0
  9 11  2  0
 10 11  1  0
  7 12  1  0
 12 13  2  0
  9 14  1  0
 11 15  1  0
 14 16  1  0
 13 17  1  0
 16 18  1  0
 14 19  2  0
 15 20  2  0
 19 20  1  0
 19 21  1  0
 21 22  2  0
  8 23  1  0
 17 23  2  0
 21 24  1  0
 24 25  1  0
 18 26  2  0
 25 27  1  0
 18 28  1  0
 27 29  2  0
 27 30  1  0
 22 31  1  0
 25 31  2  0
 30 32  1  0
 29 33  1  0
 30 34  2  0
 29 35  1  0
 34 36  1  0
 36 37  1  0
 28 38  1  0
 32 38  1  0
 34 39  1  0
 35 39  2  0
M  END
$$$$
O14757_Pocket2Mol_idx-in-all-generaetd-665
     RDKit          3D

 31 37  0  0  0  0  0  0  0  0999 V2000
    4.8037   -0.1366   42.7100 N   0  0  0  0  0  0  0  0  0  0  0  0
    3.6577   -0.7759   42.7186 C   0  0  0  0  0  0  0  0  0  0  0  0
    3.6660   -1.8665   43.4760 C   0  0  0  0  0  0  0  0  0  0  0  0
    2.7271   -2.8718   43.6599 C   0  0  0  0  0  0  0  0  0  0  0  0
    2.4846   -0.2994   42.1254 N   0  0  0  0  0  0  0  0  0  0  0  0
    5.0524   -1.7697   43.9367 C   0  0  0  0  0  0  0  0  0  0  0  0
    1.4917   -2.9000   43.0914 C   0  0  0  0  0  0  0  0  0  0  0  0
    3.1274   -3.9503   44.5163 C   0  0  0  0  0  0  0  0  0  0  0  0
    1.0744   -1.9066   42.1491 C   0  0  2  0  0  0  0  0  0  0  0  0
    5.6624   -0.7003   43.4895 C   0  0  0  0  0  0  0  0  0  0  0  0
    5.5753   -2.5784   45.0324 C   0  0  0  0  0  0  0  0  0  0  0  0
    0.4030   -3.6297   43.4883 N   0  0  0  0  0  0  0  0  0  0  0  0
    1.5052   -0.8077   41.7519 C   0  0  0  0  0  0  0  0  0  0  0  0
   -0.5645   -3.4039   42.5585 N   0  0  0  0  0  0  0  0  0  0  0  0
    2.5059   -5.1012   44.7935 C   0  0  0  0  0  0  0  0  0  0  0  0
    4.4581   -3.8218   45.2947 C   0  0  0  0  0  0  0  0  0  0  0  0
   -0.3089   -2.3979   41.8128 C   0  0  0  0  0  0  0  0  0  0  0  0
    6.6435   -2.6577   45.6991 C   0  0  0  0  0  0  0  0  0  0  0  0
    7.0869   -3.7008   46.4717 C   0  0  0  0  0  0  0  0  0  0  0  0
    7.5912   -1.5296   45.5455 C   0  0  0  0  0  0  0  0  0  0  0  0
    8.7765   -1.4352   46.2248 C   0  0  0  0  0  0  0  0  0  0  0  0
    6.3069   -4.7944   46.6836 O   0  0  0  0  0  0  0  0  0  0  0  0
    4.8984   -4.5252   46.1302 C   0  0  0  0  0  0  0  0  0  0  0  0
    4.2122   -5.9932   46.2216 C   0  0  0  0  0  0  0  0  0  0  0  0
    8.3395   -3.6608   47.2172 C   0  0  0  0  0  0  0  0  0  0  0  0
    9.6724   -0.4211   46.1538 O   0  0  0  0  0  0  0  0  0  0  0  0
    2.9823   -6.0519   45.6190 C   0  0  0  0  0  0  0  0  0  0  0  0
    9.1825   -2.5615   47.0781 C   0  0  0  0  0  0  0  0  0  0  0  0
   10.5311   -2.3717   47.7459 C   0  0  0  0  0  0  0  0  0  0  0  0
   11.5357   -2.3835   46.9914 O   0  0  0  0  0  0  0  0  0  0  0  0
   11.6969   -3.3536   46.0808 C   0  0  0  0  0  0  0  0  0  0  0  0
  1  2  2  0
  2  3  1  0
  3  4  2  0
  2  5  1  0
  3  6  1  0
  4  7  1  0
  4  8  1  0
  7  9  1  0
  1 10  1  0
  6 10  1  0
  6 11  2  0
  7 12  2  0
  5 13  2  0
  9 13  1  1
 12 14  1  0
  8 15  2  0
  8 16  1  0
 11 16  1  0
  9 17  1  0
 14 17  2  0
 11 18  1  0
 18 19  2  0
 18 20  1  0
 20 21  2  0
 19 22  1  0
 16 23  2  0
 22 23  1  0
 23 24  1  0
 19 25  1  0
 21 26  1  0
 15 27  1  0
 24 27  2  0
 21 28  1  0
 25 28  2  0
 28 29  1  0
 29 30  1  0
 30 31  1  0
M  END
$$$$
O14757_Pocket2Mol_idx-in-all-generaetd-666
     RDKit          3D

 44 52  0  0  0  0  0  0  0  0999 V2000
    1.5482   -0.3111   41.9233 C   0  0  0  0  0  0  0  0  0  0  0  0
    2.7284    0.2018   42.1525 N   0  0  0  0  0  0  0  0  0  0  0  0
    3.7893   -0.3016   42.7005 C   0  0  0  0  0  0  0  0  0  0  0  0
    3.3781   -1.7350   43.0000 C   0  0  0  0  0  0  0  0  0  0  0  0
    2.0339   -1.9619   42.6217 C   0  0  0  0  0  0  0  0  0  0  0  0
    5.0090    0.1219   42.9340 N   0  0  0  0  0  0  0  0  0  0  0  0
    4.2895   -2.4979   43.6707 C   0  0  0  0  0  0  0  0  0  0  0  0
    5.8391   -0.6675   43.6343 C   0  0  0  0  0  0  0  0  0  0  0  0
    6.9849   -0.2377   44.0028 N   0  0  0  0  0  0  0  0  0  0  0  0
    4.0426   -3.8794   44.0832 C   0  0  0  0  0  0  0  0  0  0  0  0
    7.6796   -0.8734   44.9326 C   0  0  0  0  0  0  0  0  0  0  0  0
    1.1064   -2.9576   42.4211 C   0  0  0  0  0  0  0  0  0  0  0  0
    5.5298   -1.9496   44.0315 C   0  0  0  0  0  0  0  0  0  0  0  0
    3.8954   -4.1817   45.4718 C   0  0  0  0  0  0  0  0  0  0  0  0
    0.6765   -3.5480   43.4006 C   0  0  1  0  0  0  0  0  0  0  0  0
    0.5804   -3.2191   41.1635 C   0  0  0  0  0  0  0  0  0  0  0  0
    2.8083   -4.8227   45.9203 N   0  0  0  0  0  0  0  0  0  0  0  0
   -0.1574   -4.5754   42.9329 N   0  0  0  0  0  0  0  0  0  0  0  0
    6.5271   -2.5531   44.9677 C   0  0  0  0  0  0  0  0  0  0  0  0
   -0.2272   -4.3703   41.5137 C   0  0  0  0  0  0  0  0  0  0  0  0
    7.5095   -2.0029   45.3993 C   0  0  0  0  0  0  0  0  0  0  0  0
    8.2550   -2.6982   46.3988 C   0  0  0  0  0  0  0  0  0  0  0  0
    8.8975   -0.3029   45.3267 O   0  0  0  0  0  0  0  0  0  0  0  0
    4.8299   -4.4637   46.4212 C   0  0  0  0  0  0  0  0  0  0  0  0
    4.2707   -4.9248   47.6295 N   0  0  0  0  0  0  0  0  0  0  0  0
    3.2045   -5.2092   47.1521 C   0  0  0  0  0  0  0  0  0  0  0  0
    1.4482   -4.6186   45.4134 C   0  0  2  0  0  0  0  0  0  0  0  0
    1.2398   -3.5043   44.6236 O   0  0  0  0  0  0  0  0  0  0  0  0
    6.3317   -3.9297   46.0870 C   0  0  2  0  0  0  0  0  0  0  0  0
    9.5296   -2.5449   46.9776 C   0  0  0  0  0  0  0  0  0  0  0  0
    9.7921   -1.7530   47.9018 O   0  0  0  0  0  0  0  0  0  0  0  0
    7.3972   -3.8130   46.7939 C   0  0  0  0  0  0  0  0  0  0  0  0
   10.4154   -3.4217   46.6883 O   0  0  0  0  0  0  0  0  0  0  0  0
    0.5555   -4.7535   46.5674 C   0  0  0  0  0  0  0  0  0  0  0  0
   11.6497   -3.0596   47.0439 C   0  0  0  0  0  0  0  0  0  0  0  0
   12.3878   -4.1125   47.6990 C   0  0  1  0  0  0  0  0  0  0  0  0
   11.8800   -5.2760   47.5659 O   0  0  0  0  0  0  0  0  0  0  0  0
   12.1402   -1.9273   46.5416 C   0  0  0  0  0  0  0  0  0  0  0  0
   13.7566   -3.9428   47.4635 C   0  0  0  0  0  0  0  0  0  0  0  0
   11.3924   -5.9178   48.7514 C   0  0  0  0  0  0  0  0  0  0  0  0
   14.4126   -2.7430   47.0678 C   0  0  0  0  0  0  0  0  0  0  0  0
   13.5341   -1.7327   46.5713 C   0  0  0  0  0  0  0  0  0  0  0  0
   15.7479   -2.5435   47.0707 C   0  0  0  0  0  0  0  0  0  0  0  0
   14.0255   -0.6155   46.0969 O   0  0  0  0  0  0  0  0  0  0  0  0
  1  2  1  0
  2  3  2  0
  3  4  1  0
  1  5  2  0
  4  5  1  0
  3  6  1  0
  4  7  2  0
  6  8  1  0
  8  9  1  0
  7 10  1  0
  9 11  1  0
  5 12  1  0
  7 13  1  0
  8 13  2  0
 10 14  1  0
 12 15  1  0
 12 16  2  0
 14 17  1  0
 15 18  1  0
 13 19  1  0
 16 20  1  0
 18 20  2  0
 11 21  1  0
 19 21  2  0
 21 22  1  0
 11 23  2  0
 14 24  2  0
 24 25  1  0
 17 26  1  0
 25 26  2  0
 17 27  1  0
 15 28  1  6
 27 28  1  0
 19 29  1  0
 24 29  1  0
 22 30  1  0
 30 31  2  0
 22 32  2  0
 29 32  1  1
 30 33  1  0
 27 34  1  1
 33 35  1  0
 35 36  1  0
 36 37  1  6
 35 38  2  0
 36 39  1  0
 37 40  1  0
 39 41  2  0
 38 42  1  0
 41 42  1  0
 41 43  1  0
 42 44  2  0
M  END
$$$$
O14757_Pocket2Mol_idx-in-all-generaetd-667
     RDKit          3D

 39 44  0  0  0  0  0  0  0  0999 V2000
    1.5482   -0.3111   41.9233 C   0  0  0  0  0  0  0  0  0  0  0  0
    2.7284    0.2018   42.1525 N   0  0  0  0  0  0  0  0  0  0  0  0
    3.7893   -0.3016   42.7005 C   0  0  0  0  0  0  0  0  0  0  0  0
    3.3781   -1.7350   43.0000 C   0  0  0  0  0  0  0  0  0  0  0  0
    2.0339   -1.9619   42.6217 C   0  0  0  0  0  0  0  0  0  0  0  0
    4.1166   -2.4997   43.8458 C   0  0  0  0  0  0  0  0  0  0  0  0
    1.1731   -3.0051   42.5773 C   0  0  0  0  0  0  0  0  0  0  0  0
    0.4701   -3.2344   41.4901 C   0  0  0  0  0  0  0  0  0  0  0  0
    5.3799   -1.7814   44.2691 C   0  0  0  0  0  0  0  0  0  0  0  0
    5.0159   -0.0180   43.1201 N   0  0  0  0  0  0  0  0  0  0  0  0
    5.7693   -0.6937   43.8418 C   0  0  0  0  0  0  0  0  0  0  0  0
    0.8078   -3.6166   43.6782 C   0  0  0  0  0  0  0  0  0  0  0  0
    0.0663   -4.7011   43.7415 N   0  0  0  0  0  0  0  0  0  0  0  0
    6.2223   -2.6843   45.1565 C   0  0  0  0  0  0  0  0  0  0  0  0
    6.9599   -0.2351   44.2608 N   0  0  0  0  0  0  0  0  0  0  0  0
    5.9065   -3.9037   45.7499 N   0  0  0  0  0  0  0  0  0  0  0  0
   -0.5459   -5.1185   42.5870 C   0  0  0  0  0  0  0  0  0  0  0  0
    5.7480   -4.0340   46.9810 C   0  0  0  0  0  0  0  0  0  0  0  0
    7.4448   -1.8511   45.4198 C   0  0  0  0  0  0  0  0  0  0  0  0
    7.7572   -0.7827   45.0128 C   0  0  0  0  0  0  0  0  0  0  0  0
    8.4076   -2.7217   46.4541 C   0  0  0  0  0  0  0  0  0  0  0  0
    9.3167   -2.0988   47.1049 N   0  0  0  0  0  0  0  0  0  0  0  0
   -0.4719   -4.3893   41.5406 C   0  0  0  0  0  0  0  0  0  0  0  0
    8.3667   -4.0284   46.5743 N   0  0  0  0  0  0  0  0  0  0  0  0
   10.1532   -2.5726   47.9567 C   0  0  0  0  0  0  0  0  0  0  0  0
   11.0726   -1.7892   48.6998 C   0  0  0  0  0  0  0  0  0  0  0  0
   10.4886   -0.9372   49.4584 C   0  0  0  0  0  0  0  0  0  0  0  0
   10.2139   -3.8947   48.0407 C   0  0  0  0  0  0  0  0  0  0  0  0
    6.6188   -4.9855   47.3969 N   0  0  0  0  0  0  0  0  0  0  0  0
    5.1401   -3.1961   47.7242 O   0  0  0  0  0  0  0  0  0  0  0  0
    9.2230   -4.6492   47.2923 C   0  0  0  0  0  0  0  0  0  0  0  0
   11.2455   -0.1560   50.3763 C   0  0  0  0  0  0  0  0  0  0  0  0
   12.4527   -1.8809   48.5193 C   0  0  0  0  0  0  0  0  0  0  0  0
   12.6387   -0.2160   50.2260 C   0  0  0  0  0  0  0  0  0  0  0  0
   13.4817    0.5417   51.0478 F   0  0  0  0  0  0  0  0  0  0  0  0
   13.0434   -2.8092   47.5013 C   0  0  0  0  0  0  0  0  0  0  0  0
   13.6750   -3.6159   47.7857 O   0  0  0  0  0  0  0  0  0  0  0  0
   13.2132   -1.0580   49.3547 C   0  0  0  0  0  0  0  0  0  0  0  0
   12.6275   -2.5259   46.2608 O   0  0  0  0  0  0  0  0  0  0  0  0
  1  2  1  0
  2  3  2  0
  3  4  1  0
  1  5  2  0
  4  5  1  0
  4  6  2  0
  5  7  1  0
  7  8  2  0
  6  9  1  0
  3 10  1  0
  9 11  2  0
 10 11  1  0
  7 12  1  0
 12 13  2  0
  9 14  1  0
 11 15  1  0
 14 16  1  0
 13 17  1  0
 16 18  1  0
 14 19  2  0
 15 20  2  0
 19 20  1  0
 19 21  1  0
 21 22  2  0
  8 23  1  0
 17 23  2  0
 21 24  1  0
 22 25  1  0
 25 26  1  0
 26 27  2  0
 25 28  2  0
 18 29  1  0
 18 30  2  0
 24 31  2  0
 28 31  1  0
 27 32  1  0
 26 33  1  0
 32 34  2  0
 34 35  1  0
 33 36  1  0
 36 37  2  0
 33 38  2  0
 34 38  1  0
 36 39  1  0
M  END
$$$$
O14757_Pocket2Mol_idx-in-all-generaetd-668
     RDKit          3D

 25 29  0  0  0  0  0  0  0  0999 V2000
    5.3420    0.2589   42.8836 N   0  0  0  0  0  0  0  0  0  0  0  0
    5.6740   -0.8311   43.5645 C   0  0  0  0  0  0  0  0  0  0  0  0
    4.6589   -1.7043   43.6799 C   0  0  0  0  0  0  0  0  0  0  0  0
    3.6286   -1.0900   42.8577 C   0  0  0  0  0  0  0  0  0  0  0  0
    4.0610    0.1743   42.5227 N   0  0  0  0  0  0  0  0  0  0  0  0
    2.2711   -1.4200   42.4728 C   0  0  0  0  0  0  0  0  0  0  0  0
    4.3843   -2.8218   44.3745 C   0  0  0  0  0  0  0  0  0  0  0  0
    1.4505   -0.5265   41.9137 C   0  0  0  0  0  0  0  0  0  0  0  0
    1.9236   -2.8327   42.4366 C   0  0  0  0  0  0  0  0  0  0  0  0
    0.5317   -2.7729   41.9287 C   0  0  0  0  0  0  0  0  0  0  0  0
    6.8587   -1.2119   44.3293 C   0  0  0  0  0  0  0  0  0  0  0  0
    0.2175   -1.3031   41.4860 C   0  0  0  0  0  0  0  0  0  0  0  0
   -0.3459   -3.9057   41.6978 C   0  0  0  0  0  0  0  0  0  0  0  0
    7.8877   -0.5486   44.6088 N   0  0  0  0  0  0  0  0  0  0  0  0
    6.7301   -2.3898   45.2144 C   0  0  0  0  0  0  0  0  0  0  0  0
    5.5335   -3.2051   45.1511 C   0  0  0  0  0  0  0  0  0  0  0  0
    7.9111   -2.4568   45.9191 C   0  0  0  0  0  0  0  0  0  0  0  0
    8.6956   -1.2139   45.6145 C   0  0  0  0  0  0  0  0  0  0  0  0
    8.4387   -3.4065   46.9399 C   0  0  0  0  0  0  0  0  0  0  0  0
    9.8248   -0.8550   46.3469 C   0  0  0  0  0  0  0  0  0  0  0  0
    7.7928   -4.6346   47.1360 C   0  0  0  0  0  0  0  0  0  0  0  0
    8.7619   -5.6146   47.5191 N   0  0  0  0  0  0  0  0  0  0  0  0
    9.6325   -3.0318   47.5055 C   0  0  0  0  0  0  0  0  0  0  0  0
   10.2670   -1.8458   47.1865 C   0  0  0  0  0  0  0  0  0  0  0  0
    8.4884   -6.6028   48.5462 C   0  0  0  0  0  0  0  0  0  0  0  0
  1  2  2  0
  2  3  1  0
  3  4  2  0
  1  5  1  0
  4  5  1  0
  4  6  1  0
  3  7  1  0
  6  8  2  0
  6  9  1  0
  9 10  2  0
  2 11  1  0
  8 12  1  0
 10 12  1  0
 10 13  1  0
 11 14  1  0
 11 15  2  0
  7 16  2  0
 15 16  1  0
 15 17  1  0
 14 18  1  0
 17 18  2  0
 17 19  1  0
 18 20  1  0
 19 21  1  0
 21 22  1  0
 19 23  2  0
 20 24  2  0
 23 24  1  0
 22 25  1  0
M  END
$$$$
O14757_Pocket2Mol_idx-in-all-generaetd-669
     RDKit          3D

 44 51  0  0  0  0  0  0  0  0999 V2000
    5.3420    0.2589   42.8836 O   0  0  0  0  0  0  0  0  0  0  0  0
    5.1627   -0.7554   43.4753 C   0  0  0  0  0  0  0  0  0  0  0  0
    4.0509   -1.4657   43.4177 N   0  0  0  0  0  0  0  0  0  0  0  0
    5.9969   -1.2317   44.6840 C   0  0  0  0  0  0  0  0  0  0  0  0
    2.9618   -1.1021   42.5918 C   0  0  1  0  0  0  0  0  0  0  0  0
    7.3392   -0.8596   44.8412 C   0  0  0  0  0  0  0  0  0  0  0  0
    1.9754   -2.0820   42.2741 C   0  0  0  0  0  0  0  0  0  0  0  0
    5.5910   -2.4282   45.3439 C   0  0  0  0  0  0  0  0  0  0  0  0
    6.5874   -2.9636   46.1581 C   0  0  0  0  0  0  0  0  0  0  0  0
    4.2763   -3.0680   45.0493 N   0  0  0  0  0  0  0  0  0  0  0  0
    3.6188   -2.5886   44.2024 C   0  0  0  0  0  0  0  0  0  0  0  0
    8.1921   -1.4071   45.7505 C   0  0  0  0  0  0  0  0  0  0  0  0
    1.0154   -1.8839   41.2980 C   0  0  0  0  0  0  0  0  0  0  0  0
    2.5720   -3.3564   43.9063 C   0  0  0  0  0  0  0  0  0  0  0  0
    0.2502   -2.8976   41.0751 C   0  0  0  0  0  0  0  0  0  0  0  0
    6.1761   -4.1775   47.0209 C   0  0  0  0  0  0  0  0  0  0  0  0
    1.7266   -3.1047   43.0115 C   0  0  2  0  0  0  0  0  0  0  0  0
    2.3696   -4.5367   44.7536 N   0  0  0  0  0  0  0  0  0  0  0  0
    1.2264   -5.2346   44.4693 C   0  0  0  0  0  0  0  0  0  0  0  0
    0.7187   -3.8955   42.5465 C   0  0  0  0  0  0  0  0  0  0  0  0
    9.4576   -0.8949   46.0327 N   0  0  0  0  0  0  0  0  0  0  0  0
    0.8625   -6.3901   45.2462 C   0  0  0  0  0  0  0  0  0  0  0  0
    7.6467   -2.5139   46.4892 C   0  0  0  0  0  0  0  0  0  0  0  0
   10.4908   -1.5336   45.8242 C   0  0  0  0  0  0  0  0  0  0  0  0
    0.3057   -4.9299   43.2909 C   0  0  0  0  0  0  0  0  0  0  0  0
   11.5916   -1.4291   46.7436 C   0  0  0  0  0  0  0  0  0  0  0  0
   10.5566   -2.3672   44.8649 O   0  0  0  0  0  0  0  0  0  0  0  0
    2.4730    0.2084   42.8389 O   0  0  0  0  0  0  0  0  0  0  0  0
   11.6027   -2.2081   47.7725 N   0  0  0  0  0  0  0  0  0  0  0  0
   12.6189   -0.5862   46.5415 C   0  0  0  0  0  0  0  0  0  0  0  0
   13.6413   -0.4484   47.4129 C   0  0  0  0  0  0  0  0  0  0  0  0
   10.4764   -3.1097   48.1134 C   0  0  0  0  0  0  0  0  0  0  0  0
    9.5762   -2.4717   49.0753 C   0  0  0  0  0  0  0  0  0  0  0  0
    9.7761   -1.2394   49.5167 C   0  0  0  0  0  0  0  0  0  0  0  0
    8.6397   -3.3252   49.7339 C   0  0  0  0  0  0  0  0  0  0  0  0
    8.9861   -0.7034   50.5819 C   0  0  0  0  0  0  0  0  0  0  0  0
   14.7137    0.5128   47.0925 C   0  0  0  0  0  0  0  0  0  0  0  0
    8.3536   -4.6815   49.2042 C   0  0  0  0  0  0  0  0  0  0  0  0
    7.9034   -2.7594   50.6763 C   0  0  0  0  0  0  0  0  0  0  0  0
    8.2628   -1.5944   51.2547 C   0  0  0  0  0  0  0  0  0  0  0  0
   13.7021   -1.2806   48.4679 C   0  0  0  0  0  0  0  0  0  0  0  0
   12.6273   -2.1608   48.6329 C   0  0  0  0  0  0  0  0  0  0  0  0
    6.9660   -4.9875   48.9666 N   0  0  0  0  0  0  0  0  0  0  0  0
    6.4239   -4.1072   48.3585 N   0  0  0  0  0  0  0  0  0  0  0  0
  1  2  2  0
  2  3  1  0
  2  4  1  0
  3  5  1  0
  4  6  2  0
  5  7  1  0
  4  8  1  0
  8  9  2  0
  8 10  1  0
  3 11  1  0
 10 11  2  0
  6 12  1  0
  7 13  2  0
 11 14  1  0
 13 15  1  0
  9 16  1  0
 17  7  1  6
 14 17  1  0
 14 18  2  0
 18 19  1  0
 15 20  2  0
 17 20  1  0
 12 21  1  0
 19 22  1  0
  9 23  1  0
 12 23  2  0
 21 24  1  0
 19 25  2  0
 20 25  1  0
 24 26  1  0
 24 27  2  0
  5 28  1  1
 26 29  1  0
 26 30  2  0
 30 31  1  0
 29 32  1  0
 32 33  1  0
 33 34  1  0
 33 35  2  0
 34 36  2  0
 31 37  1  0
 35 38  1  0
 35 39  1  0
 36 40  1  0
 39 40  2  0
 31 41  2  0
 29 42  1  0
 41 42  1  0
 38 43  1  0
 16 44  1  0
 43 44  1  0
M  END
$$$$
O14757_Pocket2Mol_idx-in-all-generaetd-670
     RDKit          3D

 36 39  0  0  0  0  0  0  0  0999 V2000
    3.7044    0.1389   42.5158 N   0  0  0  0  0  0  0  0  0  0  0  0
    3.0206   -1.0018   42.4929 C   0  0  0  0  0  0  0  0  0  0  0  0
    3.4791   -2.0817   43.2077 C   0  0  0  0  0  0  0  0  0  0  0  0
    4.8540    0.3862   43.0582 N   0  0  0  0  0  0  0  0  0  0  0  0
    5.1377   -0.9552   43.7144 C   0  0  0  0  0  0  0  0  0  0  0  0
    1.5846   -1.0753   41.7644 C   0  0  0  0  0  0  0  0  0  0  0  0
    4.6026   -2.0358   43.8129 C   0  0  0  0  0  0  0  0  0  0  0  0
    5.1584   -3.1511   44.6069 C   0  0  0  0  0  0  0  0  0  0  0  0
    6.6094   -0.7911   44.3696 N   0  0  0  0  0  0  0  0  0  0  0  0
    4.4744   -4.3270   44.8472 C   0  0  0  0  0  0  0  0  0  0  0  0
    6.9275   -1.8713   45.2437 C   0  0  0  0  0  0  0  0  0  0  0  0
    8.2702   -1.7750   45.8768 C   0  0  0  0  0  0  0  0  0  0  0  0
    0.9365   -0.0867   41.7346 O   0  0  0  0  0  0  0  0  0  0  0  0
    6.2322   -3.0484   45.3118 C   0  0  0  0  0  0  0  0  0  0  0  0
    6.7747   -4.0433   46.1202 N   0  0  0  0  0  0  0  0  0  0  0  0
    1.2161   -2.2739   41.2518 N   0  0  0  0  0  0  0  0  0  0  0  0
    9.0373   -0.5649   45.9132 O   0  0  0  0  0  0  0  0  0  0  0  0
    3.8907   -5.0906   43.9511 O   0  0  0  0  0  0  0  0  0  0  0  0
    4.3454   -4.8388   46.1621 N   0  0  0  0  0  0  0  0  0  0  0  0
    3.4531   -5.8952   46.4159 C   0  0  0  0  0  0  0  0  0  0  0  0
    8.6904   -2.8983   46.6073 N   0  0  0  0  0  0  0  0  0  0  0  0
    7.9257   -3.9393   46.7384 C   0  0  0  0  0  0  0  0  0  0  0  0
    8.4765   -4.8975   47.5307 O   0  0  0  0  0  0  0  0  0  0  0  0
   10.0100   -2.6771   47.3464 C   0  0  0  0  0  0  0  0  0  0  0  0
   10.0326   -1.8380   48.3764 C   0  0  0  0  0  0  0  0  0  0  0  0
   11.1123   -3.0851   46.6870 C   0  0  0  0  0  0  0  0  0  0  0  0
   11.1072   -3.8213   45.4597 C   0  0  0  0  0  0  0  0  0  0  0  0
   11.0296   -5.0092   45.4509 C   0  0  0  0  0  0  0  0  0  0  0  0
   12.3326   -2.5048   47.0028 C   0  0  0  0  0  0  0  0  0  0  0  0
   13.5735   -2.8551   46.3066 C   0  0  0  0  0  0  0  0  0  0  0  0
   12.4256   -1.8909   48.2805 C   0  0  0  0  0  0  0  0  0  0  0  0
   11.1065   -5.8602   44.2346 C   0  0  0  0  0  0  0  0  0  0  0  0
   14.3854   -3.7377   46.7285 O   0  0  0  0  0  0  0  0  0  0  0  0
   13.7104   -1.4974   48.7603 O   0  0  0  0  0  0  0  0  0  0  0  0
    8.8528   -1.6124   49.1475 O   0  0  0  0  0  0  0  0  0  0  0  0
   11.2974   -1.5823   49.1077 C   0  0  0  0  0  0  0  0  0  0  0  0
  1  2  2  0
  2  3  1  0
  1  4  1  0
  4  5  2  0
  2  6  1  0
  3  7  2  0
  5  7  1  0
  7  8  1  0
  5  9  1  0
  8 10  1  0
  9 11  2  0
 11 12  1  0
  6 13  2  0
  8 14  2  0
 11 14  1  0
 14 15  1  0
  6 16  1  0
 12 17  2  0
 10 18  2  0
 10 19  1  0
 19 20  1  0
 12 21  1  0
 15 22  1  0
 21 22  1  0
 22 23  2  0
 21 24  1  0
 24 25  2  0
 24 26  1  0
 26 27  1  0
 27 28  2  3
 26 29  2  0
 29 30  1  0
 29 31  1  0
 28 32  1  0
 30 33  1  0
 31 34  1  0
 25 35  1  0
 25 36  1  0
 31 36  2  0
M  END
$$$$
O14757_Pocket2Mol_idx-in-all-generaetd-671
     RDKit          3D

 36 42  0  0  0  0  0  0  0  0999 V2000
    4.5156    0.0550   42.9895 N   0  0  0  0  0  0  0  0  0  0  0  0
    5.0618   -0.8645   43.5295 C   0  0  0  0  0  0  0  0  0  0  0  0
    4.4350   -2.0604   43.7783 C   0  0  0  0  0  0  0  0  0  0  0  0
    4.9987   -3.0994   44.5839 C   0  0  0  0  0  0  0  0  0  0  0  0
    3.2714   -1.8664   43.0632 C   0  0  0  0  0  0  0  0  0  0  0  0
    6.4064   -0.5942   44.3204 N   0  0  0  0  0  0  0  0  0  0  0  0
    4.3422   -4.3256   44.7203 C   0  0  0  0  0  0  0  0  0  0  0  0
    2.1845   -2.6668   42.8270 N   0  0  0  0  0  0  0  0  0  0  0  0
    3.3305   -0.5395   42.5465 N   0  0  0  0  0  0  0  0  0  0  0  0
    1.9502   -3.8972   43.4076 C   0  0  0  0  0  0  0  0  0  0  0  0
    2.7156   -4.1184   44.6954 N   0  0  0  0  0  0  0  0  0  0  0  0
    6.8581   -1.5862   45.1101 C   0  0  0  0  0  0  0  0  0  0  0  0
    6.1801   -2.8430   45.2383 C   0  0  0  0  0  0  0  0  0  0  0  0
    2.1454   -5.1901   45.5771 C   0  0  0  0  0  0  0  0  0  0  0  0
    8.0137   -1.3946   45.8526 C   0  0  0  0  0  0  0  0  0  0  0  0
    0.9733   -4.5725   43.2066 O   0  0  0  0  0  0  0  0  0  0  0  0
    2.2437    0.0035   41.8733 C   0  0  0  0  0  0  0  0  0  0  0  0
    1.3210   -2.2077   41.7009 C   0  0  0  0  0  0  0  0  0  0  0  0
    8.6047   -2.2876   46.6923 C   0  0  0  0  0  0  0  0  0  0  0  0
    7.9141   -3.5157   46.8869 C   0  0  0  0  0  0  0  0  0  0  0  0
    1.0501   -0.8658   41.6612 C   0  0  0  0  0  0  0  0  0  0  0  0
    6.7278   -3.7718   46.2525 C   0  0  0  0  0  0  0  0  0  0  0  0
    9.8280   -2.0492   47.3361 C   0  0  0  0  0  0  0  0  0  0  0  0
    9.8262   -1.5735   48.5432 C   0  0  0  0  0  0  0  0  0  0  0  0
   11.0745   -2.0905   46.6735 C   0  0  0  0  0  0  0  0  0  0  0  0
    8.5798   -1.4294   49.3788 F   0  0  0  0  0  0  0  0  0  0  0  0
   10.9035   -1.3906   49.1995 C   0  0  0  0  0  0  0  0  0  0  0  0
   12.1747   -1.4739   48.6417 C   0  0  0  0  0  0  0  0  0  0  0  0
   11.1434   -2.4219   45.1973 C   0  0  0  0  0  0  0  0  0  0  0  0
   12.2109   -1.8074   47.3731 C   0  0  0  0  0  0  0  0  0  0  0  0
   13.4851   -1.9470   46.7697 C   0  0  0  0  0  0  0  0  0  0  0  0
   14.6156   -1.6667   47.4317 O   0  0  0  0  0  0  0  0  0  0  0  0
   12.2495   -2.3377   44.7699 C   0  0  0  0  0  0  0  0  0  0  0  0
   13.5654   -2.1641   45.4123 N   0  0  0  0  0  0  0  0  0  0  0  0
    1.0413   -4.5227   46.3523 C   0  0  0  0  0  0  0  0  0  0  0  0
   14.8480   -2.2310   44.7771 C   0  0  0  0  0  0  0  0  0  0  0  0
  1  2  2  0
  2  3  1  0
  3  4  1  0
  3  5  2  0
  2  6  1  0
  4  7  1  0
  5  8  1  0
  1  9  1  0
  5  9  1  0
  8 10  1  0
  7 11  1  0
 10 11  1  0
  6 12  2  0
  4 13  2  0
 12 13  1  0
 11 14  1  0
 12 15  1  0
 10 16  2  0
  9 17  1  0
  8 18  1  0
 15 19  2  0
 19 20  1  0
 17 21  1  0
 18 21  1  0
 13 22  1  0
 20 22  2  0
 19 23  1  0
 23 24  2  0
 23 25  1  0
 24 26  1  0
 24 27  1  0
 27 28  2  0
 25 29  1  0
 25 30  2  0
 28 30  1  0
 30 31  1  0
 31 32  2  0
 29 33  2  0
 31 34  1  0
 33 34  1  0
 14 35  1  0
 34 36  1  0
M  END
$$$$
O14757_Pocket2Mol_idx-in-all-generaetd-672
     RDKit          3D

 44 52  0  0  0  0  0  0  0  0999 V2000
    1.5482   -0.3111   41.9233 C   0  0  0  0  0  0  0  0  0  0  0  0
    2.7284    0.2018   42.1525 N   0  0  0  0  0  0  0  0  0  0  0  0
    3.7893   -0.3016   42.7005 C   0  0  0  0  0  0  0  0  0  0  0  0
    3.3781   -1.7350   43.0000 C   0  0  0  0  0  0  0  0  0  0  0  0
    2.0339   -1.9619   42.6217 C   0  0  0  0  0  0  0  0  0  0  0  0
    5.0090    0.1219   42.9340 N   0  0  0  0  0  0  0  0  0  0  0  0
    4.2895   -2.4979   43.6707 C   0  0  0  0  0  0  0  0  0  0  0  0
    5.8391   -0.6675   43.6343 C   0  0  0  0  0  0  0  0  0  0  0  0
    6.9849   -0.2377   44.0028 N   0  0  0  0  0  0  0  0  0  0  0  0
    4.0426   -3.8794   44.0832 C   0  0  0  0  0  0  0  0  0  0  0  0
    7.6796   -0.8734   44.9326 C   0  0  0  0  0  0  0  0  0  0  0  0
    1.1064   -2.9576   42.4211 C   0  0  0  0  0  0  0  0  0  0  0  0
    5.5298   -1.9496   44.0315 C   0  0  0  0  0  0  0  0  0  0  0  0
    3.8954   -4.1817   45.4718 C   0  0  0  0  0  0  0  0  0  0  0  0
    0.6765   -3.5480   43.4006 C   0  0  1  0  0  0  0  0  0  0  0  0
    0.5804   -3.2191   41.1635 C   0  0  0  0  0  0  0  0  0  0  0  0
    2.8083   -4.8227   45.9203 N   0  0  0  0  0  0  0  0  0  0  0  0
   -0.1574   -4.5754   42.9329 N   0  0  0  0  0  0  0  0  0  0  0  0
    6.5271   -2.5531   44.9677 C   0  0  0  0  0  0  0  0  0  0  0  0
   -0.2272   -4.3703   41.5137 C   0  0  0  0  0  0  0  0  0  0  0  0
    7.5095   -2.0029   45.3993 C   0  0  0  0  0  0  0  0  0  0  0  0
    8.2550   -2.6982   46.3988 C   0  0  2  0  0  0  0  0  0  0  0  0
    8.8975   -0.3029   45.3267 O   0  0  0  0  0  0  0  0  0  0  0  0
    4.8299   -4.4637   46.4212 C   0  0  0  0  0  0  0  0  0  0  0  0
    4.2707   -4.9248   47.6295 N   0  0  0  0  0  0  0  0  0  0  0  0
    3.2045   -5.2092   47.1521 C   0  0  0  0  0  0  0  0  0  0  0  0
    1.4482   -4.6186   45.4134 C   0  0  2  0  0  0  0  0  0  0  0  0
    1.2398   -3.5043   44.6236 O   0  0  0  0  0  0  0  0  0  0  0  0
    6.3317   -3.9297   46.0870 C   0  0  2  0  0  0  0  0  0  0  0  0
    9.5296   -2.5449   46.9776 C   0  0  0  0  0  0  0  0  0  0  0  0
    9.7921   -1.7530   47.9018 O   0  0  0  0  0  0  0  0  0  0  0  0
    7.4454   -3.8344   46.8035 C   0  0  0  0  0  0  0  0  0  0  0  0
   10.5010   -3.0847   46.3190 O   0  0  0  0  0  0  0  0  0  0  0  0
    0.5569   -4.7693   46.5649 C   0  0  0  0  0  0  0  0  0  0  0  0
   11.7452   -2.8462   46.6234 C   0  0  0  0  0  0  0  0  0  0  0  0
   12.4344   -1.8951   45.7393 C   0  0  0  0  0  0  0  0  0  0  0  0
   12.4612   -3.5429   47.5581 C   0  0  0  0  0  0  0  0  0  0  0  0
   11.7737   -4.5216   48.4115 C   0  0  0  0  0  0  0  0  0  0  0  0
   13.7761   -1.6251   45.9829 C   0  0  0  0  0  0  0  0  0  0  0  0
   13.7909   -3.1787   47.7950 C   0  0  0  0  0  0  0  0  0  0  0  0
   11.6069   -4.2006   49.6507 O   0  0  0  0  0  0  0  0  0  0  0  0
   11.0942   -5.4364   47.9032 O   0  0  0  0  0  0  0  0  0  0  0  0
   14.5869   -3.8170   48.8504 O   0  0  0  0  0  0  0  0  0  0  0  0
   14.5366   -2.2630   47.0336 C   0  0  0  0  0  0  0  0  0  0  0  0
  1  2  1  0
  2  3  2  0
  3  4  1  0
  1  5  2  0
  4  5  1  0
  3  6  1  0
  4  7  2  0
  6  8  1  0
  8  9  1  0
  7 10  1  0
  9 11  1  0
  5 12  1  0
  7 13  1  0
  8 13  2  0
 10 14  1  0
 12 15  1  0
 12 16  2  0
 14 17  1  0
 15 18  1  0
 13 19  1  0
 16 20  1  0
 18 20  2  0
 11 21  1  0
 19 21  2  0
 21 22  1  0
 11 23  2  0
 14 24  2  0
 24 25  1  0
 17 26  1  0
 25 26  2  0
 17 27  1  0
 15 28  1  6
 27 28  1  0
 19 29  1  0
 24 29  1  0
 22 30  1  6
 30 31  2  0
 22 32  1  0
 29 32  1  1
 30 33  1  0
 27 34  1  1
 33 35  1  0
 35 36  2  0
 35 37  1  0
 37 38  1  0
 36 39  1  0
 37 40  2  0
 38 41  2  0
 38 42  1  0
 40 43  1  0
 39 44  2  0
 40 44  1  0
M  END
$$$$
O14757_Pocket2Mol_idx-in-all-generaetd-673
     RDKit          3D

 40 46  0  0  0  0  0  0  0  0999 V2000
    5.3420    0.2589   42.8836 O   0  0  0  0  0  0  0  0  0  0  0  0
    5.1627   -0.7554   43.4753 C   0  0  0  0  0  0  0  0  0  0  0  0
    4.0509   -1.4657   43.4177 N   0  0  0  0  0  0  0  0  0  0  0  0
    5.9969   -1.2317   44.6840 C   0  0  0  0  0  0  0  0  0  0  0  0
    2.9618   -1.1021   42.5918 C   0  0  1  0  0  0  0  0  0  0  0  0
    7.3392   -0.8596   44.8412 C   0  0  0  0  0  0  0  0  0  0  0  0
    1.9754   -2.0820   42.2741 C   0  0  0  0  0  0  0  0  0  0  0  0
    5.5910   -2.4282   45.3439 C   0  0  0  0  0  0  0  0  0  0  0  0
    6.5874   -2.9636   46.1581 C   0  0  0  0  0  0  0  0  0  0  0  0
    4.2763   -3.0680   45.0493 N   0  0  0  0  0  0  0  0  0  0  0  0
    3.6188   -2.5886   44.2024 C   0  0  0  0  0  0  0  0  0  0  0  0
    8.1921   -1.4071   45.7505 C   0  0  0  0  0  0  0  0  0  0  0  0
    1.0154   -1.8839   41.2980 C   0  0  0  0  0  0  0  0  0  0  0  0
    2.5720   -3.3564   43.9063 C   0  0  0  0  0  0  0  0  0  0  0  0
    0.2502   -2.8976   41.0751 C   0  0  0  0  0  0  0  0  0  0  0  0
    6.1761   -4.1775   47.0209 C   0  0  0  0  0  0  0  0  0  0  0  0
    1.7266   -3.1047   43.0115 C   0  0  2  0  0  0  0  0  0  0  0  0
    2.3696   -4.5367   44.7536 N   0  0  0  0  0  0  0  0  0  0  0  0
    1.2264   -5.2346   44.4693 C   0  0  0  0  0  0  0  0  0  0  0  0
    0.7187   -3.8955   42.5465 C   0  0  0  0  0  0  0  0  0  0  0  0
    9.4576   -0.8949   46.0327 N   0  0  0  0  0  0  0  0  0  0  0  0
    0.8625   -6.3901   45.2462 C   0  0  0  0  0  0  0  0  0  0  0  0
    7.6467   -2.5139   46.4892 C   0  0  0  0  0  0  0  0  0  0  0  0
   10.4908   -1.5336   45.8242 C   0  0  0  0  0  0  0  0  0  0  0  0
    0.3057   -4.9299   43.2909 C   0  0  0  0  0  0  0  0  0  0  0  0
   11.5916   -1.4291   46.7436 C   0  0  0  0  0  0  0  0  0  0  0  0
   10.5566   -2.3672   44.8649 O   0  0  0  0  0  0  0  0  0  0  0  0
   12.8421   -1.9355   46.2823 C   0  0  0  0  0  0  0  0  0  0  0  0
   13.4833   -2.8582   46.9841 C   0  0  0  0  0  0  0  0  0  0  0  0
   11.4002   -1.1447   48.0540 C   0  0  0  0  0  0  0  0  0  0  0  0
   10.2867   -0.4569   48.4999 O   0  0  0  0  0  0  0  0  0  0  0  0
   12.3327   -1.4798   48.9564 C   0  0  0  0  0  0  0  0  0  0  0  0
   14.7901   -3.3162   46.6439 C   0  0  0  0  0  0  0  0  0  0  0  0
   12.1651   -1.3050   50.3239 O   0  0  0  0  0  0  0  0  0  0  0  0
   15.6765   -2.5740   46.0979 C   0  0  0  0  0  0  0  0  0  0  0  0
    2.4608    0.2106   42.8512 C   0  0  0  0  0  0  0  0  0  0  0  0
   15.5213   -1.2590   45.7606 C   0  0  0  0  0  0  0  0  0  0  0  0
   14.5349   -0.8899   44.8574 C   0  0  0  0  0  0  0  0  0  0  0  0
   13.3768   -0.7090   45.6237 O   0  0  0  0  0  0  0  0  0  0  0  0
   13.3210   -2.4673   48.4917 C   0  0  0  0  0  0  0  0  0  0  0  0
  1  2  2  0
  2  3  1  0
  2  4  1  0
  3  5  1  0
  4  6  2  0
  5  7  1  0
  4  8  1  0
  8  9  2  0
  8 10  1  0
  3 11  1  0
 10 11  2  0
  6 12  1  0
  7 13  2  0
 11 14  1  0
 13 15  1  0
  9 16  1  0
 17  7  1  6
 14 17  1  0
 14 18  2  0
 18 19  1  0
 15 20  2  0
 17 20  1  0
 12 21  1  0
 19 22  1  0
  9 23  1  0
 12 23  2  0
 21 24  1  0
 19 25  2  0
 20 25  1  0
 24 26  1  0
 24 27  2  0
 26 28  1  0
 28 29  2  0
 26 30  2  0
 30 31  1  0
 30 32  1  0
 29 33  1  0
 32 34  1  0
 33 35  2  0
  5 36  1  1
 35 37  1  0
 37 38  1  0
 28 39  1  0
 38 39  1  0
 29 40  1  0
 32 40  2  0
M  END
$$$$
O14757_Pocket2Mol_idx-in-all-generaetd-674
     RDKit          3D

 41 48  0  0  0  0  0  0  0  0999 V2000
    1.5482   -0.3111   41.9233 C   0  0  0  0  0  0  0  0  0  0  0  0
    2.7284    0.2018   42.1525 N   0  0  0  0  0  0  0  0  0  0  0  0
    3.7893   -0.3016   42.7005 C   0  0  0  0  0  0  0  0  0  0  0  0
    3.3781   -1.7350   43.0000 C   0  0  0  0  0  0  0  0  0  0  0  0
    2.0339   -1.9619   42.6217 C   0  0  0  0  0  0  0  0  0  0  0  0
    5.0090    0.1219   42.9340 N   0  0  0  0  0  0  0  0  0  0  0  0
    4.2895   -2.4979   43.6707 C   0  0  0  0  0  0  0  0  0  0  0  0
    5.8391   -0.6675   43.6343 C   0  0  0  0  0  0  0  0  0  0  0  0
    6.9849   -0.2377   44.0028 N   0  0  0  0  0  0  0  0  0  0  0  0
    4.0426   -3.8794   44.0832 C   0  0  0  0  0  0  0  0  0  0  0  0
    7.6796   -0.8734   44.9326 C   0  0  0  0  0  0  0  0  0  0  0  0
    1.1064   -2.9576   42.4211 C   0  0  0  0  0  0  0  0  0  0  0  0
    5.5298   -1.9496   44.0315 C   0  0  0  0  0  0  0  0  0  0  0  0
    3.8954   -4.1817   45.4718 C   0  0  0  0  0  0  0  0  0  0  0  0
    0.6765   -3.5480   43.4006 C   0  0  1  0  0  0  0  0  0  0  0  0
    0.5804   -3.2191   41.1635 C   0  0  0  0  0  0  0  0  0  0  0  0
    2.8083   -4.8227   45.9203 N   0  0  0  0  0  0  0  0  0  0  0  0
   -0.1574   -4.5754   42.9329 N   0  0  0  0  0  0  0  0  0  0  0  0
    6.5271   -2.5531   44.9677 C   0  0  0  0  0  0  0  0  0  0  0  0
   -0.2272   -4.3703   41.5137 C   0  0  0  0  0  0  0  0  0  0  0  0
    7.5095   -2.0029   45.3993 C   0  0  0  0  0  0  0  0  0  0  0  0
    8.2550   -2.6982   46.3988 C   0  0  0  0  0  0  0  0  0  0  0  0
    8.8975   -0.3029   45.3267 O   0  0  0  0  0  0  0  0  0  0  0  0
    4.8299   -4.4637   46.4212 C   0  0  0  0  0  0  0  0  0  0  0  0
    4.2707   -4.9248   47.6295 N   0  0  0  0  0  0  0  0  0  0  0  0
    3.2045   -5.2092   47.1521 C   0  0  0  0  0  0  0  0  0  0  0  0
    1.4482   -4.6186   45.4134 C   0  0  1  0  0  0  0  0  0  0  0  0
    1.2398   -3.5043   44.6236 O   0  0  0  0  0  0  0  0  0  0  0  0
    6.3317   -3.9297   46.0870 C   0  0  2  0  0  0  0  0  0  0  0  0
    9.5296   -2.5449   46.9776 C   0  0  0  0  0  0  0  0  0  0  0  0
    9.7921   -1.7530   47.9018 O   0  0  0  0  0  0  0  0  0  0  0  0
    7.3972   -3.8130   46.7939 C   0  0  0  0  0  0  0  0  0  0  0  0
    1.2392   -5.7793   44.5610 C   0  0  0  0  0  0  0  0  0  0  0  0
   10.4982   -3.2564   46.4837 N   0  0  0  0  0  0  0  0  0  0  0  0
   11.8686   -3.0564   46.9374 C   0  0  0  0  0  0  0  0  0  0  0  0
   10.3143   -4.3335   45.5931 C   0  0  0  0  0  0  0  0  0  0  0  0
   10.5171   -5.6681   46.1791 C   0  0  0  0  0  0  0  0  0  0  0  0
   12.8315   -2.7175   45.9073 C   0  0  0  0  0  0  0  0  0  0  0  0
   12.4654   -1.5943   45.1277 O   0  0  0  0  0  0  0  0  0  0  0  0
   13.8370   -3.2828   45.6848 O   0  0  0  0  0  0  0  0  0  0  0  0
   13.2593   -1.1746   44.1573 C   0  0  0  0  0  0  0  0  0  0  0  0
  1  2  1  0
  2  3  2  0
  3  4  1  0
  1  5  2  0
  4  5  1  0
  3  6  1  0
  4  7  2  0
  6  8  1  0
  8  9  1  0
  7 10  1  0
  9 11  1  0
  5 12  1  0
  7 13  1  0
  8 13  2  0
 10 14  1  0
 12 15  1  0
 12 16  2  0
 14 17  1  0
 15 18  1  0
 13 19  1  0
 16 20  1  0
 18 20  2  0
 11 21  1  0
 19 21  2  0
 21 22  1  0
 11 23  2  0
 14 24  2  0
 24 25  1  0
 17 26  1  0
 25 26  2  0
 17 27  1  0
 15 28  1  6
 27 28  1  0
 19 29  1  0
 24 29  1  0
 22 30  1  0
 30 31  2  0
 22 32  2  0
 29 32  1  1
 27 33  1  6
 30 34  1  0
 34 35  1  0
 34 36  1  0
 36 37  1  0
 35 38  1  0
 38 39  1  0
 38 40  2  0
 39 41  1  0
M  END
$$$$
O14757_Pocket2Mol_idx-in-all-generaetd-675
     RDKit          3D

 41 48  0  0  0  0  0  0  0  0999 V2000
    1.5482   -0.3111   41.9233 C   0  0  0  0  0  0  0  0  0  0  0  0
    2.7284    0.2018   42.1525 N   0  0  0  0  0  0  0  0  0  0  0  0
    3.7893   -0.3016   42.7005 C   0  0  0  0  0  0  0  0  0  0  0  0
    3.3781   -1.7350   43.0000 C   0  0  0  0  0  0  0  0  0  0  0  0
    2.0339   -1.9619   42.6217 C   0  0  0  0  0  0  0  0  0  0  0  0
    4.1166   -2.4997   43.8458 C   0  0  0  0  0  0  0  0  0  0  0  0
    1.1731   -3.0051   42.5773 C   0  0  0  0  0  0  0  0  0  0  0  0
    0.4701   -3.2344   41.4901 C   0  0  0  0  0  0  0  0  0  0  0  0
    5.3799   -1.7814   44.2691 C   0  0  0  0  0  0  0  0  0  0  0  0
    5.0159   -0.0180   43.1201 N   0  0  0  0  0  0  0  0  0  0  0  0
    5.7693   -0.6937   43.8418 C   0  0  0  0  0  0  0  0  0  0  0  0
    0.8078   -3.6166   43.6782 C   0  0  0  0  0  0  0  0  0  0  0  0
    0.0663   -4.7011   43.7415 N   0  0  0  0  0  0  0  0  0  0  0  0
    6.2223   -2.6843   45.1565 C   0  0  0  0  0  0  0  0  0  0  0  0
    6.9599   -0.2351   44.2608 N   0  0  0  0  0  0  0  0  0  0  0  0
    5.9065   -3.9037   45.7499 N   0  0  0  0  0  0  0  0  0  0  0  0
   -0.5459   -5.1185   42.5870 C   0  0  0  0  0  0  0  0  0  0  0  0
    5.7480   -4.0340   46.9810 C   0  0  0  0  0  0  0  0  0  0  0  0
    7.4448   -1.8511   45.4198 C   0  0  0  0  0  0  0  0  0  0  0  0
    7.7572   -0.7827   45.0128 C   0  0  0  0  0  0  0  0  0  0  0  0
    8.4076   -2.7217   46.4541 C   0  0  0  0  0  0  0  0  0  0  0  0
    9.3167   -2.0988   47.1049 N   0  0  0  0  0  0  0  0  0  0  0  0
   -0.4719   -4.3893   41.5406 C   0  0  0  0  0  0  0  0  0  0  0  0
    8.3667   -4.0284   46.5743 N   0  0  0  0  0  0  0  0  0  0  0  0
    9.5309   -4.3147   47.3094 C   0  0  0  0  0  0  0  0  0  0  0  0
    5.3113   -3.3789   47.8005 O   0  0  0  0  0  0  0  0  0  0  0  0
    9.9022   -5.6301   47.7684 C   0  0  0  0  0  0  0  0  0  0  0  0
    5.4470   -5.5868   47.2096 C   0  0  0  0  0  0  0  0  0  0  0  0
   11.2254   -5.8679   48.0402 C   0  0  0  0  0  0  0  0  0  0  0  0
    8.9736   -6.6532   47.8548 C   0  0  0  0  0  0  0  0  0  0  0  0
   10.0616   -3.0670   47.6360 C   0  0  0  0  0  0  0  0  0  0  0  0
    7.5566   -6.3564   47.5477 N   0  0  0  0  0  0  0  0  0  0  0  0
    6.4157   -6.1721   48.0913 C   0  0  0  0  0  0  0  0  0  0  0  0
   12.3275   -4.8510   47.9324 C   0  0  0  0  0  0  0  0  0  0  0  0
    9.4585   -7.9662   48.0726 C   0  0  0  0  0  0  0  0  0  0  0  0
   11.5288   -2.7910   48.1740 C   0  0  0  0  0  0  0  0  0  0  0  0
   11.6989   -7.1590   48.3688 C   0  0  0  0  0  0  0  0  0  0  0  0
   13.5698   -5.4689   47.7894 O   0  0  0  0  0  0  0  0  0  0  0  0
   10.7089   -8.1711   48.4322 C   0  0  0  0  0  0  0  0  0  0  0  0
   11.5454   -1.3082   48.3475 C   0  0  0  0  0  0  0  0  0  0  0  0
   12.3868   -3.5413   48.1736 N   0  0  0  0  0  0  0  0  0  0  0  0
  1  2  1  0
  2  3  2  0
  3  4  1  0
  1  5  2  0
  4  5  1  0
  4  6  2  0
  5  7  1  0
  7  8  2  0
  6  9  1  0
  3 10  1  0
  9 11  2  0
 10 11  1  0
  7 12  1  0
 12 13  2  0
  9 14  1  0
 11 15  1  0
 14 16  1  0
 13 17  1  0
 16 18  1  0
 14 19  2  0
 15 20  2  0
 19 20  1  0
 19 21  1  0
 21 22  2  0
  8 23  1  0
 17 23  2  0
 21 24  1  0
 24 25  1  0
 18 26  2  0
 25 27  1  0
 18 28  1  0
 27 29  2  0
 27 30  1  0
 22 31  1  0
 25 31  2  0
 30 32  1  0
 28 33  1  0
 32 33  1  0
 29 34  1  0
 30 35  2  0
 31 36  1  0
 29 37  1  0
 34 38  2  0
 35 39  1  0
 37 39  2  0
 36 40  1  0
 34 41  1  0
 36 41  2  0
M  END
$$$$
O14757_Pocket2Mol_idx-in-all-generaetd-676
     RDKit          3D

 31 38  0  0  0  0  0  0  0  0999 V2000
    1.5482   -0.3111   41.9233 C   0  0  0  0  0  0  0  0  0  0  0  0
    2.7284    0.2018   42.1525 N   0  0  0  0  0  0  0  0  0  0  0  0
    3.7893   -0.3016   42.7005 C   0  0  0  0  0  0  0  0  0  0  0  0
    3.3781   -1.7350   43.0000 C   0  0  0  0  0  0  0  0  0  0  0  0
    2.0339   -1.9619   42.6217 C   0  0  0  0  0  0  0  0  0  0  0  0
    5.0090    0.1219   42.9340 N   0  0  0  0  0  0  0  0  0  0  0  0
    4.2895   -2.4979   43.6707 C   0  0  0  0  0  0  0  0  0  0  0  0
    5.8391   -0.6675   43.6343 C   0  0  0  0  0  0  0  0  0  0  0  0
    6.9849   -0.2377   44.0028 N   0  0  0  0  0  0  0  0  0  0  0  0
    4.0426   -3.8794   44.0832 C   0  0  0  0  0  0  0  0  0  0  0  0
    7.6796   -0.8734   44.9326 C   0  0  0  0  0  0  0  0  0  0  0  0
    1.1064   -2.9576   42.4211 C   0  0  0  0  0  0  0  0  0  0  0  0
    5.5298   -1.9496   44.0315 C   0  0  0  0  0  0  0  0  0  0  0  0
    3.8954   -4.1817   45.4718 C   0  0  0  0  0  0  0  0  0  0  0  0
    0.6765   -3.5480   43.4006 C   0  0  1  0  0  0  0  0  0  0  0  0
    0.5804   -3.2191   41.1635 C   0  0  0  0  0  0  0  0  0  0  0  0
    2.8083   -4.8227   45.9203 N   0  0  0  0  0  0  0  0  0  0  0  0
   -0.1574   -4.5754   42.9329 N   0  0  0  0  0  0  0  0  0  0  0  0
    6.5271   -2.5531   44.9677 C   0  0  0  0  0  0  0  0  0  0  0  0
   -0.2272   -4.3703   41.5137 C   0  0  0  0  0  0  0  0  0  0  0  0
    7.5095   -2.0029   45.3993 C   0  0  0  0  0  0  0  0  0  0  0  0
    8.2550   -2.6982   46.3988 C   0  0  0  0  0  0  0  0  0  0  0  0
    8.8975   -0.3029   45.3267 O   0  0  0  0  0  0  0  0  0  0  0  0
    4.8299   -4.4637   46.4212 C   0  0  0  0  0  0  0  0  0  0  0  0
    4.2707   -4.9248   47.6295 N   0  0  0  0  0  0  0  0  0  0  0  0
    3.2045   -5.2092   47.1521 C   0  0  0  0  0  0  0  0  0  0  0  0
    1.4482   -4.6186   45.4134 C   0  0  1  0  0  0  0  0  0  0  0  0
    1.2398   -3.5043   44.6236 O   0  0  0  0  0  0  0  0  0  0  0  0
    6.2225   -3.7639   46.1877 C   0  0  2  0  0  0  0  0  0  0  0  0
    7.3908   -3.6965   46.8811 C   0  0  0  0  0  0  0  0  0  0  0  0
    1.2472   -5.7952   44.5775 C   0  0  0  0  0  0  0  0  0  0  0  0
  1  2  1  0
  2  3  2  0
  3  4  1  0
  1  5  2  0
  4  5  1  0
  3  6  1  0
  4  7  2  0
  6  8  1  0
  8  9  1  0
  7 10  1  0
  9 11  1  0
  5 12  1  0
  7 13  1  0
  8 13  2  0
 10 14  1  0
 12 15  1  0
 12 16  2  0
 14 17  1  0
 15 18  1  0
 13 19  1  0
 16 20  1  0
 18 20  2  0
 11 21  1  0
 19 21  2  0
 21 22  1  0
 11 23  2  0
 14 24  2  0
 24 25  1  0
 17 26  1  0
 25 26  2  0
 17 27  1  0
 15 28  1  6
 27 28  1  0
 19 29  1  0
 24 29  1  0
 22 30  2  0
 29 30  1  1
 27 31  1  6
M  END
$$$$
O14757_Pocket2Mol_idx-in-all-generaetd-677
     RDKit          3D

 34 40  0  0  0  0  0  0  0  0999 V2000
    4.5156    0.0550   42.9895 N   0  0  0  0  0  0  0  0  0  0  0  0
    5.0618   -0.8645   43.5295 C   0  0  0  0  0  0  0  0  0  0  0  0
    4.4350   -2.0604   43.7783 C   0  0  0  0  0  0  0  0  0  0  0  0
    4.9987   -3.0994   44.5839 C   0  0  0  0  0  0  0  0  0  0  0  0
    3.2714   -1.8664   43.0632 C   0  0  0  0  0  0  0  0  0  0  0  0
    6.4064   -0.5942   44.3204 N   0  0  0  0  0  0  0  0  0  0  0  0
    4.3422   -4.3256   44.7203 C   0  0  0  0  0  0  0  0  0  0  0  0
    2.1845   -2.6668   42.8270 N   0  0  0  0  0  0  0  0  0  0  0  0
    3.3305   -0.5395   42.5465 N   0  0  0  0  0  0  0  0  0  0  0  0
    1.9502   -3.8972   43.4076 C   0  0  0  0  0  0  0  0  0  0  0  0
    2.7156   -4.1184   44.6954 N   0  0  0  0  0  0  0  0  0  0  0  0
    6.8581   -1.5862   45.1101 C   0  0  0  0  0  0  0  0  0  0  0  0
    6.1801   -2.8430   45.2383 C   0  0  0  0  0  0  0  0  0  0  0  0
    2.1454   -5.1901   45.5771 C   0  0  0  0  0  0  0  0  0  0  0  0
    8.0137   -1.3946   45.8526 C   0  0  0  0  0  0  0  0  0  0  0  0
    0.9733   -4.5725   43.2066 O   0  0  0  0  0  0  0  0  0  0  0  0
    2.2437    0.0035   41.8733 C   0  0  0  0  0  0  0  0  0  0  0  0
    1.3210   -2.2077   41.7009 C   0  0  0  0  0  0  0  0  0  0  0  0
    8.6047   -2.2876   46.6923 C   0  0  0  0  0  0  0  0  0  0  0  0
    7.9141   -3.5157   46.8869 C   0  0  0  0  0  0  0  0  0  0  0  0
    1.0501   -0.8658   41.6612 C   0  0  0  0  0  0  0  0  0  0  0  0
    6.7278   -3.7718   46.2525 C   0  0  0  0  0  0  0  0  0  0  0  0
    9.8280   -2.0492   47.3361 C   0  0  0  0  0  0  0  0  0  0  0  0
    9.8262   -1.5735   48.5432 C   0  0  0  0  0  0  0  0  0  0  0  0
   11.0745   -2.0905   46.6735 C   0  0  0  0  0  0  0  0  0  0  0  0
    8.5798   -1.4294   49.3788 F   0  0  0  0  0  0  0  0  0  0  0  0
   10.9754   -1.2454   49.3173 C   0  0  0  0  0  0  0  0  0  0  0  0
   11.1419   -2.5055   45.2136 C   0  0  0  0  0  0  0  0  0  0  0  0
   12.2456   -1.4009   48.7304 C   0  0  0  0  0  0  0  0  0  0  0  0
   12.2444   -1.7831   47.3889 C   0  0  0  0  0  0  0  0  0  0  0  0
   13.5131   -1.9219   46.7776 C   0  0  0  0  0  0  0  0  0  0  0  0
   12.5077   -2.3857   44.7198 C   0  0  0  0  0  0  0  0  0  0  0  0
   13.6013   -2.1119   45.4298 C   0  0  0  0  0  0  0  0  0  0  0  0
    1.0406   -4.5221   46.3533 C   0  0  0  0  0  0  0  0  0  0  0  0
  1  2  2  0
  2  3  1  0
  3  4  1  0
  3  5  2  0
  2  6  1  0
  4  7  1  0
  5  8  1  0
  1  9  1  0
  5  9  1  0
  8 10  1  0
  7 11  1  0
 10 11  1  0
  6 12  2  0
  4 13  2  0
 12 13  1  0
 11 14  1  0
 12 15  1  0
 10 16  2  0
  9 17  1  0
  8 18  1  0
 15 19  2  0
 19 20  1  0
 17 21  1  0
 18 21  1  0
 13 22  1  0
 20 22  2  0
 19 23  1  0
 23 24  2  0
 23 25  1  0
 24 26  1  0
 24 27  1  0
 25 28  2  0
 27 29  2  0
 25 30  1  0
 29 30  1  0
 30 31  2  0
 28 32  1  0
 31 33  1  0
 32 33  2  0
 14 34  1  0
M  END
$$$$
O14757_Pocket2Mol_idx-in-all-generaetd-678
     RDKit          3D

 38 45  0  0  0  0  0  0  0  0999 V2000
    4.8037   -0.1366   42.7100 N   0  0  0  0  0  0  0  0  0  0  0  0
    3.6577   -0.7759   42.7186 C   0  0  0  0  0  0  0  0  0  0  0  0
    3.6660   -1.8665   43.4760 C   0  0  0  0  0  0  0  0  0  0  0  0
    2.7271   -2.8718   43.6599 C   0  0  0  0  0  0  0  0  0  0  0  0
    2.4846   -0.2994   42.1254 N   0  0  0  0  0  0  0  0  0  0  0  0
    5.0524   -1.7697   43.9367 C   0  0  0  0  0  0  0  0  0  0  0  0
    1.4917   -2.9000   43.0914 C   0  0  0  0  0  0  0  0  0  0  0  0
    3.1274   -3.9503   44.5163 C   0  0  0  0  0  0  0  0  0  0  0  0
    1.0744   -1.9066   42.1491 C   0  0  2  0  0  0  0  0  0  0  0  0
    5.6624   -0.7003   43.4895 C   0  0  0  0  0  0  0  0  0  0  0  0
    5.5753   -2.5784   45.0324 C   0  0  0  0  0  0  0  0  0  0  0  0
    0.4030   -3.6297   43.4883 N   0  0  0  0  0  0  0  0  0  0  0  0
    1.5052   -0.8077   41.7519 C   0  0  0  0  0  0  0  0  0  0  0  0
   -0.5645   -3.4039   42.5585 N   0  0  0  0  0  0  0  0  0  0  0  0
    2.5059   -5.1012   44.7935 C   0  0  0  0  0  0  0  0  0  0  0  0
    4.4581   -3.8218   45.2947 C   0  0  0  0  0  0  0  0  0  0  0  0
   -0.3089   -2.3979   41.8128 C   0  0  0  0  0  0  0  0  0  0  0  0
    6.6435   -2.6577   45.6991 C   0  0  0  0  0  0  0  0  0  0  0  0
    7.0869   -3.7008   46.4717 C   0  0  0  0  0  0  0  0  0  0  0  0
    7.5912   -1.5296   45.5455 C   0  0  0  0  0  0  0  0  0  0  0  0
    8.7765   -1.4352   46.2248 C   0  0  0  0  0  0  0  0  0  0  0  0
    6.3069   -4.7944   46.6836 O   0  0  0  0  0  0  0  0  0  0  0  0
    4.8984   -4.5252   46.1302 C   0  0  0  0  0  0  0  0  0  0  0  0
    4.2122   -5.9932   46.2216 C   0  0  0  0  0  0  0  0  0  0  0  0
    3.0046   -6.0549   45.6421 C   0  0  0  0  0  0  0  0  0  0  0  0
    8.2374   -3.8078   47.1146 C   0  0  0  0  0  0  0  0  0  0  0  0
    9.1909   -2.6332   47.0292 C   0  0  0  0  0  0  0  0  0  0  0  0
   10.4575   -2.6198   47.6824 O   0  0  0  0  0  0  0  0  0  0  0  0
   11.4873   -2.2059   46.9341 C   0  0  0  0  0  0  0  0  0  0  0  0
   12.2817   -1.4398   47.4308 O   0  0  0  0  0  0  0  0  0  0  0  0
   13.2946   -1.0299   46.6543 C   0  0  0  0  0  0  0  0  0  0  0  0
   13.0925   -1.0831   45.3218 C   0  0  0  0  0  0  0  0  0  0  0  0
   14.1643   -1.0297   44.5680 C   0  0  0  0  0  0  0  0  0  0  0  0
   14.4080   -0.3157   47.2384 C   0  0  0  0  0  0  0  0  0  0  0  0
   14.4294   -0.0497   48.5859 O   0  0  0  0  0  0  0  0  0  0  0  0
   14.0576   -1.2735   43.0959 O   0  0  0  0  0  0  0  0  0  0  0  0
   15.5071   -0.1304   46.4012 C   0  0  0  0  0  0  0  0  0  0  0  0
   15.3786   -0.4022   45.0242 C   0  0  0  0  0  0  0  0  0  0  0  0
  1  2  2  0
  2  3  1  0
  3  4  2  0
  2  5  1  0
  3  6  1  0
  4  7  1  0
  4  8  1  0
  7  9  1  0
  1 10  1  0
  6 10  1  0
  6 11  2  0
  7 12  2  0
  5 13  2  0
  9 13  1  1
 12 14  1  0
  8 15  2  0
  8 16  1  0
 11 16  1  0
  9 17  1  0
 14 17  2  0
 11 18  1  0
 18 19  2  0
 18 20  1  0
 20 21  2  0
 19 22  1  0
 16 23  2  0
 22 23  1  0
 23 24  1  0
 15 25  1  0
 24 25  2  0
 19 26  1  0
 21 27  1  0
 26 27  2  0
 27 28  1  0
 28 29  1  0
 29 30  1  0
 30 31  1  0
 31 32  2  0
 32 33  1  0
 31 34  1  0
 34 35  1  0
 33 36  1  0
 34 37  2  0
 33 38  2  0
 37 38  1  0
M  END
$$$$
O14757_Pocket2Mol_idx-in-all-generaetd-679
     RDKit          3D

 29 34  0  0  0  0  0  0  0  0999 V2000
    5.3420    0.2589   42.8836 N   0  0  0  0  0  0  0  0  0  0  0  0
    5.6740   -0.8311   43.5645 C   0  0  0  0  0  0  0  0  0  0  0  0
    4.6589   -1.7043   43.6799 C   0  0  0  0  0  0  0  0  0  0  0  0
    3.6286   -1.0900   42.8577 C   0  0  0  0  0  0  0  0  0  0  0  0
    4.0610    0.1743   42.5227 N   0  0  0  0  0  0  0  0  0  0  0  0
    2.2711   -1.4200   42.4728 C   0  0  0  0  0  0  0  0  0  0  0  0
    4.3843   -2.8218   44.3745 C   0  0  0  0  0  0  0  0  0  0  0  0
    1.4505   -0.5265   41.9137 C   0  0  0  0  0  0  0  0  0  0  0  0
    1.9236   -2.8327   42.4366 C   0  0  0  0  0  0  0  0  0  0  0  0
    0.5317   -2.7729   41.9287 C   0  0  0  0  0  0  0  0  0  0  0  0
    6.8587   -1.2119   44.3293 C   0  0  0  0  0  0  0  0  0  0  0  0
    0.2175   -1.3031   41.4860 C   0  0  0  0  0  0  0  0  0  0  0  0
   -0.3459   -3.9057   41.6978 C   0  0  0  0  0  0  0  0  0  0  0  0
    7.8877   -0.5486   44.6088 N   0  0  0  0  0  0  0  0  0  0  0  0
    6.7301   -2.3898   45.2144 C   0  0  0  0  0  0  0  0  0  0  0  0
    5.5335   -3.2051   45.1511 C   0  0  0  0  0  0  0  0  0  0  0  0
    7.9111   -2.4568   45.9191 C   0  0  0  0  0  0  0  0  0  0  0  0
    8.6956   -1.2139   45.6145 C   0  0  0  0  0  0  0  0  0  0  0  0
    8.4387   -3.4065   46.9399 C   0  0  0  0  0  0  0  0  0  0  0  0
    9.6434   -3.2081   47.4488 C   0  0  0  0  0  0  0  0  0  0  0  0
   10.1454   -4.1698   48.4457 C   0  0  0  0  0  0  0  0  0  0  0  0
    9.9571   -1.0853   46.2999 C   0  0  0  0  0  0  0  0  0  0  0  0
   10.3696   -2.0115   47.1904 C   0  0  0  0  0  0  0  0  0  0  0  0
   10.5141   -5.3875   47.9390 N   0  0  0  0  0  0  0  0  0  0  0  0
   11.5759   -5.4913   47.1327 C   0  0  0  0  0  0  0  0  0  0  0  0
    9.7709   -6.5250   48.2414 C   0  0  0  0  0  0  0  0  0  0  0  0
   11.3326   -5.8221   45.7860 C   0  0  0  0  0  0  0  0  0  0  0  0
    9.4800   -7.3282   46.9545 C   0  0  0  0  0  0  0  0  0  0  0  0
   10.6241   -7.2398   45.9482 N   0  0  0  0  0  0  0  0  0  0  0  0
  1  2  2  0
  2  3  1  0
  3  4  2  0
  1  5  1  0
  4  5  1  0
  4  6  1  0
  3  7  1  0
  6  8  2  0
  6  9  1  0
  9 10  2  0
  2 11  1  0
  8 12  1  0
 10 12  1  0
 10 13  1  0
 11 14  1  0
 11 15  2  0
  7 16  2  0
 15 16  1  0
 15 17  1  0
 14 18  1  0
 17 18  2  0
 17 19  1  0
 19 20  2  0
 20 21  1  0
 18 22  1  0
 20 23  1  0
 22 23  2  0
 21 24  1  0
 24 25  1  0
 24 26  1  0
 25 27  1  0
 26 28  1  0
 27 29  1  0
 28 29  1  0
M  END
$$$$
O14757_Pocket2Mol_idx-in-all-generaetd-680
     RDKit          3D

 40 46  0  0  0  0  0  0  0  0999 V2000
    5.3420    0.2589   42.8836 O   0  0  0  0  0  0  0  0  0  0  0  0
    5.1627   -0.7554   43.4753 C   0  0  0  0  0  0  0  0  0  0  0  0
    4.0509   -1.4657   43.4177 N   0  0  0  0  0  0  0  0  0  0  0  0
    5.9969   -1.2317   44.6840 C   0  0  0  0  0  0  0  0  0  0  0  0
    2.9618   -1.1021   42.5918 C   0  0  1  0  0  0  0  0  0  0  0  0
    7.3392   -0.8596   44.8412 C   0  0  0  0  0  0  0  0  0  0  0  0
    1.9754   -2.0820   42.2741 C   0  0  0  0  0  0  0  0  0  0  0  0
    5.5910   -2.4282   45.3439 C   0  0  0  0  0  0  0  0  0  0  0  0
    6.5874   -2.9636   46.1581 C   0  0  0  0  0  0  0  0  0  0  0  0
    4.2763   -3.0680   45.0493 N   0  0  0  0  0  0  0  0  0  0  0  0
    3.6188   -2.5886   44.2024 C   0  0  0  0  0  0  0  0  0  0  0  0
    8.1921   -1.4071   45.7505 C   0  0  0  0  0  0  0  0  0  0  0  0
    1.0154   -1.8839   41.2980 C   0  0  0  0  0  0  0  0  0  0  0  0
    2.5720   -3.3564   43.9063 C   0  0  0  0  0  0  0  0  0  0  0  0
    0.2502   -2.8976   41.0751 C   0  0  0  0  0  0  0  0  0  0  0  0
    6.1761   -4.1775   47.0209 C   0  0  0  0  0  0  0  0  0  0  0  0
    1.7266   -3.1047   43.0115 C   0  0  2  0  0  0  0  0  0  0  0  0
    2.3696   -4.5367   44.7536 N   0  0  0  0  0  0  0  0  0  0  0  0
    1.2264   -5.2346   44.4693 C   0  0  0  0  0  0  0  0  0  0  0  0
    0.7187   -3.8955   42.5465 C   0  0  0  0  0  0  0  0  0  0  0  0
    9.4576   -0.8949   46.0327 N   0  0  0  0  0  0  0  0  0  0  0  0
    0.8625   -6.3901   45.2462 C   0  0  0  0  0  0  0  0  0  0  0  0
    7.6467   -2.5139   46.4892 C   0  0  0  0  0  0  0  0  0  0  0  0
   10.4908   -1.5336   45.8242 C   0  0  0  0  0  0  0  0  0  0  0  0
    0.3057   -4.9299   43.2909 C   0  0  0  0  0  0  0  0  0  0  0  0
   11.5916   -1.4291   46.7436 C   0  0  0  0  0  0  0  0  0  0  0  0
   10.5566   -2.3672   44.8649 O   0  0  0  0  0  0  0  0  0  0  0  0
   11.6051   -2.2111   47.7709 N   0  0  0  0  0  0  0  0  0  0  0  0
    2.4805    0.2099   42.8350 O   0  0  0  0  0  0  0  0  0  0  0  0
   12.6177   -0.5842   46.5430 C   0  0  0  0  0  0  0  0  0  0  0  0
   10.6022   -3.0999   48.2311 C   0  0  0  0  0  0  0  0  0  0  0  0
   12.8201   -1.8545   48.4231 C   0  0  0  0  0  0  0  0  0  0  0  0
    9.8708   -2.5664   49.3206 C   0  0  0  0  0  0  0  0  0  0  0  0
   12.9921    0.2645   45.4369 C   0  0  0  0  0  0  0  0  0  0  0  0
   13.3355   -2.4260   49.5466 O   0  0  0  0  0  0  0  0  0  0  0  0
   13.4916   -0.8439   47.5991 C   0  0  0  0  0  0  0  0  0  0  0  0
   14.6680   -0.2322   47.8701 C   0  0  0  0  0  0  0  0  0  0  0  0
   14.0788    0.8565   45.6507 C   0  0  0  0  0  0  0  0  0  0  0  0
   15.0238    0.6954   46.8314 C   0  0  0  0  0  0  0  0  0  0  0  0
   16.1797    1.3059   46.9001 O   0  0  0  0  0  0  0  0  0  0  0  0
  1  2  2  0
  2  3  1  0
  2  4  1  0
  3  5  1  0
  4  6  2  0
  5  7  1  0
  4  8  1  0
  8  9  2  0
  8 10  1  0
  3 11  1  0
 10 11  2  0
  6 12  1  0
  7 13  2  0
 11 14  1  0
 13 15  1  0
  9 16  1  0
 17  7  1  6
 14 17  1  0
 14 18  2  0
 18 19  1  0
 15 20  2  0
 17 20  1  0
 12 21  1  0
 19 22  1  0
  9 23  1  0
 12 23  2  0
 21 24  1  0
 19 25  2  0
 20 25  1  0
 24 26  1  0
 24 27  2  0
 26 28  1  0
  5 29  1  1
 26 30  2  0
 28 31  1  0
 28 32  1  0
 31 33  1  0
 30 34  1  0
 32 35  2  0
 30 36  1  0
 32 36  1  0
 36 37  2  0
 34 38  2  0
 37 39  1  0
 38 39  1  0
 39 40  2  0
M  END
$$$$
O14757_Pocket2Mol_idx-in-all-generaetd-681
     RDKit          3D

 44 52  0  0  0  0  0  0  0  0999 V2000
    1.5482   -0.3111   41.9233 C   0  0  0  0  0  0  0  0  0  0  0  0
    2.7284    0.2018   42.1525 N   0  0  0  0  0  0  0  0  0  0  0  0
    3.7893   -0.3016   42.7005 C   0  0  0  0  0  0  0  0  0  0  0  0
    3.3781   -1.7350   43.0000 C   0  0  0  0  0  0  0  0  0  0  0  0
    2.0339   -1.9619   42.6217 C   0  0  0  0  0  0  0  0  0  0  0  0
    5.0090    0.1219   42.9340 N   0  0  0  0  0  0  0  0  0  0  0  0
    4.2895   -2.4979   43.6707 C   0  0  0  0  0  0  0  0  0  0  0  0
    5.8391   -0.6675   43.6343 C   0  0  0  0  0  0  0  0  0  0  0  0
    6.9849   -0.2377   44.0028 N   0  0  0  0  0  0  0  0  0  0  0  0
    4.0426   -3.8794   44.0832 C   0  0  0  0  0  0  0  0  0  0  0  0
    7.6796   -0.8734   44.9326 C   0  0  0  0  0  0  0  0  0  0  0  0
    1.1064   -2.9576   42.4211 C   0  0  0  0  0  0  0  0  0  0  0  0
    5.5298   -1.9496   44.0315 C   0  0  0  0  0  0  0  0  0  0  0  0
    3.8954   -4.1817   45.4718 C   0  0  0  0  0  0  0  0  0  0  0  0
    0.6765   -3.5480   43.4006 C   0  0  1  0  0  0  0  0  0  0  0  0
    0.5804   -3.2191   41.1635 C   0  0  0  0  0  0  0  0  0  0  0  0
    2.8083   -4.8227   45.9203 N   0  0  0  0  0  0  0  0  0  0  0  0
   -0.1574   -4.5754   42.9329 N   0  0  0  0  0  0  0  0  0  0  0  0
    6.5271   -2.5531   44.9677 C   0  0  0  0  0  0  0  0  0  0  0  0
   -0.2272   -4.3703   41.5137 C   0  0  0  0  0  0  0  0  0  0  0  0
    7.5095   -2.0029   45.3993 C   0  0  0  0  0  0  0  0  0  0  0  0
    8.2550   -2.6982   46.3988 C   0  0  2  0  0  0  0  0  0  0  0  0
    8.8975   -0.3029   45.3267 O   0  0  0  0  0  0  0  0  0  0  0  0
    4.8299   -4.4637   46.4212 C   0  0  0  0  0  0  0  0  0  0  0  0
    4.2707   -4.9248   47.6295 N   0  0  0  0  0  0  0  0  0  0  0  0
    3.2045   -5.2092   47.1521 C   0  0  0  0  0  0  0  0  0  0  0  0
    1.4482   -4.6186   45.4134 C   0  0  2  0  0  0  0  0  0  0  0  0
    1.2398   -3.5043   44.6236 O   0  0  0  0  0  0  0  0  0  0  0  0
    6.3317   -3.9297   46.0870 C   0  0  2  0  0  0  0  0  0  0  0  0
    9.5296   -2.5449   46.9776 C   0  0  0  0  0  0  0  0  0  0  0  0
    9.7921   -1.7530   47.9018 O   0  0  0  0  0  0  0  0  0  0  0  0
    7.4454   -3.8344   46.8035 C   0  0  0  0  0  0  0  0  0  0  0  0
   10.5010   -3.0847   46.3190 O   0  0  0  0  0  0  0  0  0  0  0  0
    0.5569   -4.7693   46.5649 C   0  0  0  0  0  0  0  0  0  0  0  0
   11.7452   -2.8462   46.6234 C   0  0  0  0  0  0  0  0  0  0  0  0
   12.4344   -1.8951   45.7393 C   0  0  0  0  0  0  0  0  0  0  0  0
   12.4612   -3.5429   47.5581 C   0  0  0  0  0  0  0  0  0  0  0  0
   11.7737   -4.5216   48.4115 C   0  0  0  0  0  0  0  0  0  0  0  0
   13.7789   -3.2174   47.8431 C   0  0  0  0  0  0  0  0  0  0  0  0
   11.7932   -1.2291   44.6751 O   0  0  0  0  0  0  0  0  0  0  0  0
   14.4722   -2.3106   47.0409 C   0  0  0  0  0  0  0  0  0  0  0  0
   15.8494   -1.9832   47.2290 O   0  0  0  0  0  0  0  0  0  0  0  0
   13.8164   -1.5385   45.9616 C   0  0  0  0  0  0  0  0  0  0  0  0
   14.3794   -0.7453   45.4550 O   0  0  0  0  0  0  0  0  0  0  0  0
  1  2  1  0
  2  3  2  0
  3  4  1  0
  1  5  2  0
  4  5  1  0
  3  6  1  0
  4  7  2  0
  6  8  1  0
  8  9  1  0
  7 10  1  0
  9 11  1  0
  5 12  1  0
  7 13  1  0
  8 13  2  0
 10 14  1  0
 12 15  1  0
 12 16  2  0
 14 17  1  0
 15 18  1  0
 13 19  1  0
 16 20  1  0
 18 20  2  0
 11 21  1  0
 19 21  2  0
 21 22  1  0
 11 23  2  0
 14 24  2  0
 24 25  1  0
 17 26  1  0
 25 26  2  0
 17 27  1  0
 15 28  1  6
 27 28  1  0
 19 29  1  0
 24 29  1  0
 22 30  1  6
 30 31  2  0
 22 32  1  0
 29 32  1  1
 30 33  1  0
 27 34  1  1
 33 35  1  0
 35 36  2  0
 35 37  1  0
 37 38  1  0
 37 39  2  0
 36 40  1  0
 39 41  1  0
 41 42  1  0
 36 43  1  0
 41 43  2  0
 43 44  1  0
M  END
$$$$
O14757_Pocket2Mol_idx-in-all-generaetd-682
     RDKit          3D

 47 54  0  0  0  0  0  0  0  0999 V2000
    5.3420    0.2589   42.8836 O   0  0  0  0  0  0  0  0  0  0  0  0
    5.1627   -0.7554   43.4753 C   0  0  0  0  0  0  0  0  0  0  0  0
    4.0509   -1.4657   43.4177 N   0  0  0  0  0  0  0  0  0  0  0  0
    5.9969   -1.2317   44.6840 C   0  0  0  0  0  0  0  0  0  0  0  0
    2.9618   -1.1021   42.5918 C   0  0  1  0  0  0  0  0  0  0  0  0
    7.3392   -0.8596   44.8412 C   0  0  0  0  0  0  0  0  0  0  0  0
    1.9754   -2.0820   42.2741 C   0  0  0  0  0  0  0  0  0  0  0  0
    5.5910   -2.4282   45.3439 C   0  0  0  0  0  0  0  0  0  0  0  0
    6.5874   -2.9636   46.1581 C   0  0  0  0  0  0  0  0  0  0  0  0
    4.2763   -3.0680   45.0493 N   0  0  0  0  0  0  0  0  0  0  0  0
    3.6188   -2.5886   44.2024 C   0  0  0  0  0  0  0  0  0  0  0  0
    8.1921   -1.4071   45.7505 C   0  0  0  0  0  0  0  0  0  0  0  0
    1.0154   -1.8839   41.2980 C   0  0  0  0  0  0  0  0  0  0  0  0
    2.5720   -3.3564   43.9063 C   0  0  0  0  0  0  0  0  0  0  0  0
    0.2502   -2.8976   41.0751 C   0  0  0  0  0  0  0  0  0  0  0  0
    6.1761   -4.1775   47.0209 C   0  0  0  0  0  0  0  0  0  0  0  0
    1.7266   -3.1047   43.0115 C   0  0  2  0  0  0  0  0  0  0  0  0
    2.3696   -4.5367   44.7536 N   0  0  0  0  0  0  0  0  0  0  0  0
    1.2264   -5.2346   44.4693 C   0  0  0  0  0  0  0  0  0  0  0  0
    0.7187   -3.8955   42.5465 C   0  0  0  0  0  0  0  0  0  0  0  0
    9.4576   -0.8949   46.0327 N   0  0  0  0  0  0  0  0  0  0  0  0
    0.8625   -6.3901   45.2462 C   0  0  0  0  0  0  0  0  0  0  0  0
    7.6467   -2.5139   46.4892 C   0  0  0  0  0  0  0  0  0  0  0  0
   10.4908   -1.5336   45.8242 C   0  0  0  0  0  0  0  0  0  0  0  0
    0.3057   -4.9299   43.2909 C   0  0  0  0  0  0  0  0  0  0  0  0
   11.5916   -1.4291   46.7436 C   0  0  0  0  0  0  0  0  0  0  0  0
   10.5566   -2.3672   44.8649 O   0  0  0  0  0  0  0  0  0  0  0  0
    2.4730    0.2084   42.8389 O   0  0  0  0  0  0  0  0  0  0  0  0
   11.6027   -2.2081   47.7725 N   0  0  0  0  0  0  0  0  0  0  0  0
   12.6189   -0.5862   46.5415 C   0  0  0  0  0  0  0  0  0  0  0  0
   13.6413   -0.4484   47.4129 C   0  0  0  0  0  0  0  0  0  0  0  0
   10.4764   -3.1097   48.1134 C   0  0  0  0  0  0  0  0  0  0  0  0
    9.5762   -2.4717   49.0753 C   0  0  0  0  0  0  0  0  0  0  0  0
    9.7761   -1.2394   49.5167 C   0  0  0  0  0  0  0  0  0  0  0  0
    8.6397   -3.3252   49.7339 C   0  0  0  0  0  0  0  0  0  0  0  0
    8.9861   -0.7034   50.5819 C   0  0  0  0  0  0  0  0  0  0  0  0
   14.7137    0.5128   47.0925 C   0  0  0  0  0  0  0  0  0  0  0  0
    8.3536   -4.6815   49.2042 C   0  0  0  0  0  0  0  0  0  0  0  0
    7.9034   -2.7594   50.6763 C   0  0  0  0  0  0  0  0  0  0  0  0
    6.9327   -5.0150   49.0248 N   0  0  0  0  0  0  0  0  0  0  0  0
    8.1305   -1.4992   51.1482 C   0  0  0  0  0  0  0  0  0  0  0  0
   14.9704    0.6373   46.0302 O   0  0  0  0  0  0  0  0  0  0  0  0
   15.0911    1.2746   47.9532 O   0  0  0  0  0  0  0  0  0  0  0  0
    6.3867   -3.9564   48.3939 C   0  0  0  0  0  0  0  0  0  0  0  0
   12.6421   -2.0801   48.6490 C   0  0  0  0  0  0  0  0  0  0  0  0
   12.6840   -2.9835   49.7690 O   0  0  0  0  0  0  0  0  0  0  0  0
   13.6716   -1.2570   48.4432 C   0  0  0  0  0  0  0  0  0  0  0  0
  1  2  2  0
  2  3  1  0
  2  4  1  0
  3  5  1  0
  4  6  2  0
  5  7  1  0
  4  8  1  0
  8  9  2  0
  8 10  1  0
  3 11  1  0
 10 11  2  0
  6 12  1  0
  7 13  2  0
 11 14  1  0
 13 15  1  0
  9 16  1  0
 17  7  1  6
 14 17  1  0
 14 18  2  0
 18 19  1  0
 15 20  2  0
 17 20  1  0
 12 21  1  0
 19 22  1  0
  9 23  1  0
 12 23  2  0
 21 24  1  0
 19 25  2  0
 20 25  1  0
 24 26  1  0
 24 27  2  0
  5 28  1  1
 26 29  1  0
 26 30  2  0
 30 31  1  0
 29 32  1  0
 32 33  1  0
 33 34  1  0
 33 35  2  0
 34 36  2  0
 31 37  1  0
 35 38  1  0
 35 39  1  0
 38 40  1  0
 36 41  1  0
 39 41  2  0
 37 42  2  0
 37 43  1  0
 16 44  1  0
 40 44  1  0
 29 45  1  0
 45 46  2  0
 31 47  2  0
 45 47  1  0
M  END
$$$$
O14757_Pocket2Mol_idx-in-all-generaetd-683
     RDKit          3D

 39 47  0  0  0  0  0  0  0  0999 V2000
    1.5482   -0.3111   41.9233 C   0  0  0  0  0  0  0  0  0  0  0  0
    2.7284    0.2018   42.1525 N   0  0  0  0  0  0  0  0  0  0  0  0
    3.7893   -0.3016   42.7005 C   0  0  0  0  0  0  0  0  0  0  0  0
    3.3781   -1.7350   43.0000 C   0  0  0  0  0  0  0  0  0  0  0  0
    2.0339   -1.9619   42.6217 C   0  0  0  0  0  0  0  0  0  0  0  0
    5.0090    0.1219   42.9340 N   0  0  0  0  0  0  0  0  0  0  0  0
    4.2895   -2.4979   43.6707 C   0  0  0  0  0  0  0  0  0  0  0  0
    5.8391   -0.6675   43.6343 C   0  0  0  0  0  0  0  0  0  0  0  0
    6.9849   -0.2377   44.0028 N   0  0  0  0  0  0  0  0  0  0  0  0
    4.0426   -3.8794   44.0832 C   0  0  0  0  0  0  0  0  0  0  0  0
    7.6796   -0.8734   44.9326 C   0  0  0  0  0  0  0  0  0  0  0  0
    1.1064   -2.9576   42.4211 C   0  0  0  0  0  0  0  0  0  0  0  0
    5.5298   -1.9496   44.0315 C   0  0  0  0  0  0  0  0  0  0  0  0
    3.8954   -4.1817   45.4718 C   0  0  0  0  0  0  0  0  0  0  0  0
    0.6765   -3.5480   43.4006 C   0  0  1  0  0  0  0  0  0  0  0  0
    0.5804   -3.2191   41.1635 C   0  0  0  0  0  0  0  0  0  0  0  0
    2.8083   -4.8227   45.9203 N   0  0  0  0  0  0  0  0  0  0  0  0
   -0.1574   -4.5754   42.9329 N   0  0  0  0  0  0  0  0  0  0  0  0
    6.5271   -2.5531   44.9677 C   0  0  0  0  0  0  0  0  0  0  0  0
   -0.2272   -4.3703   41.5137 C   0  0  0  0  0  0  0  0  0  0  0  0
    7.5095   -2.0029   45.3993 C   0  0  0  0  0  0  0  0  0  0  0  0
    8.2550   -2.6982   46.3988 C   0  0  0  0  0  0  0  0  0  0  0  0
    8.8975   -0.3029   45.3267 O   0  0  0  0  0  0  0  0  0  0  0  0
    4.8299   -4.4637   46.4212 C   0  0  0  0  0  0  0  0  0  0  0  0
    4.2707   -4.9248   47.6295 N   0  0  0  0  0  0  0  0  0  0  0  0
    3.2045   -5.2092   47.1521 C   0  0  0  0  0  0  0  0  0  0  0  0
    1.4482   -4.6186   45.4134 C   0  0  1  0  0  0  0  0  0  0  0  0
    1.2398   -3.5043   44.6236 O   0  0  0  0  0  0  0  0  0  0  0  0
    6.3317   -3.9297   46.0870 C   0  0  2  0  0  0  0  0  0  0  0  0
    9.5296   -2.5449   46.9776 C   0  0  0  0  0  0  0  0  0  0  0  0
    9.7921   -1.7530   47.9018 O   0  0  0  0  0  0  0  0  0  0  0  0
    7.3972   -3.8130   46.7939 C   0  0  0  0  0  0  0  0  0  0  0  0
    1.2392   -5.7793   44.5610 C   0  0  0  0  0  0  0  0  0  0  0  0
   10.4934   -3.0755   46.3117 N   0  0  0  0  0  0  0  0  0  0  0  0
   10.3750   -4.1130   45.4302 C   0  0  0  0  0  0  0  0  0  0  0  0
   11.8947   -2.7998   46.7984 C   0  0  0  0  0  0  0  0  0  0  0  0
   12.8362   -2.7998   45.7275 C   0  0  0  0  0  0  0  0  0  0  0  0
   11.7375   -4.7913   45.1817 C   0  0  0  0  0  0  0  0  0  0  0  0
   12.8955   -4.1585   45.3184 O   0  0  0  0  0  0  0  0  0  0  0  0
  1  2  1  0
  2  3  2  0
  3  4  1  0
  1  5  2  0
  4  5  1  0
  3  6  1  0
  4  7  2  0
  6  8  1  0
  8  9  1  0
  7 10  1  0
  9 11  1  0
  5 12  1  0
  7 13  1  0
  8 13  2  0
 10 14  1  0
 12 15  1  0
 12 16  2  0
 14 17  1  0
 15 18  1  0
 13 19  1  0
 16 20  1  0
 18 20  2  0
 11 21  1  0
 19 21  2  0
 21 22  1  0
 11 23  2  0
 14 24  2  0
 24 25  1  0
 17 26  1  0
 25 26  2  0
 17 27  1  0
 15 28  1  6
 27 28  1  0
 19 29  1  0
 24 29  1  0
 22 30  1  0
 30 31  2  0
 22 32  2  0
 29 32  1  1
 27 33  1  6
 30 34  1  0
 34 35  1  0
 34 36  1  0
 36 37  1  0
 35 38  1  0
 37 39  1  0
 38 39  1  0
M  END
$$$$
O14757_Pocket2Mol_idx-in-all-generaetd-684
     RDKit          3D

 50 59  0  0  0  0  0  0  0  0999 V2000
    1.5482   -0.3111   41.9233 C   0  0  0  0  0  0  0  0  0  0  0  0
    2.7284    0.2018   42.1525 N   0  0  0  0  0  0  0  0  0  0  0  0
    3.7893   -0.3016   42.7005 C   0  0  0  0  0  0  0  0  0  0  0  0
    3.3781   -1.7350   43.0000 C   0  0  0  0  0  0  0  0  0  0  0  0
    2.0339   -1.9619   42.6217 C   0  0  0  0  0  0  0  0  0  0  0  0
    5.0090    0.1219   42.9340 N   0  0  0  0  0  0  0  0  0  0  0  0
    4.2895   -2.4979   43.6707 C   0  0  0  0  0  0  0  0  0  0  0  0
    5.8391   -0.6675   43.6343 C   0  0  0  0  0  0  0  0  0  0  0  0
    6.9849   -0.2377   44.0028 N   0  0  0  0  0  0  0  0  0  0  0  0
    4.0426   -3.8794   44.0832 C   0  0  0  0  0  0  0  0  0  0  0  0
    7.6796   -0.8734   44.9326 C   0  0  0  0  0  0  0  0  0  0  0  0
    1.1064   -2.9576   42.4211 C   0  0  0  0  0  0  0  0  0  0  0  0
    5.5298   -1.9496   44.0315 C   0  0  0  0  0  0  0  0  0  0  0  0
    3.8954   -4.1817   45.4718 C   0  0  0  0  0  0  0  0  0  0  0  0
    0.6765   -3.5480   43.4006 C   0  0  1  0  0  0  0  0  0  0  0  0
    0.5804   -3.2191   41.1635 C   0  0  0  0  0  0  0  0  0  0  0  0
    2.8083   -4.8227   45.9203 N   0  0  0  0  0  0  0  0  0  0  0  0
   -0.1574   -4.5754   42.9329 N   0  0  0  0  0  0  0  0  0  0  0  0
    6.5271   -2.5531   44.9677 C   0  0  0  0  0  0  0  0  0  0  0  0
   -0.2272   -4.3703   41.5137 C   0  0  0  0  0  0  0  0  0  0  0  0
    7.5095   -2.0029   45.3993 C   0  0  0  0  0  0  0  0  0  0  0  0
    8.2550   -2.6982   46.3988 C   0  0  1  0  0  0  0  0  0  0  0  0
    8.8975   -0.3029   45.3267 O   0  0  0  0  0  0  0  0  0  0  0  0
    4.8299   -4.4637   46.4212 C   0  0  0  0  0  0  0  0  0  0  0  0
    4.2707   -4.9248   47.6295 N   0  0  0  0  0  0  0  0  0  0  0  0
    3.2045   -5.2092   47.1521 C   0  0  0  0  0  0  0  0  0  0  0  0
    1.4482   -4.6186   45.4134 C   0  0  0  0  0  0  0  0  0  0  0  0
    1.3256   -3.7660   44.6394 N   0  0  0  0  0  0  0  0  0  0  0  0
    9.2816   -2.1418   47.1273 N   0  0  0  0  0  0  0  0  0  0  0  0
   10.0629   -3.1324   47.8508 C   0  0  0  0  0  0  0  0  0  0  0  0
    6.3491   -3.8960   46.0844 C   0  0  2  0  0  0  0  0  0  0  0  0
    7.4349   -3.5889   46.9054 C   0  0  0  0  0  0  0  0  0  0  0  0
   10.3145   -2.7271   49.0818 O   0  0  0  0  0  0  0  0  0  0  0  0
    0.6213   -5.4445   45.7455 O   0  0  0  0  0  0  0  0  0  0  0  0
   11.0262   -3.8136   47.1050 C   0  0  0  0  0  0  0  0  0  0  0  0
   12.1704   -3.3854   46.7547 C   0  0  0  0  0  0  0  0  0  0  0  0
   13.1080   -4.1111   46.0053 C   0  0  0  0  0  0  0  0  0  0  0  0
   14.3489   -3.5966   45.7888 C   0  0  0  0  0  0  0  0  0  0  0  0
   12.7430   -5.2725   45.5056 C   0  0  0  0  0  0  0  0  0  0  0  0
   14.6935   -2.2816   45.3353 C   0  0  0  0  0  0  0  0  0  0  0  0
   15.8828   -1.9964   44.9887 C   0  0  0  0  0  0  0  0  0  0  0  0
   15.4347   -4.4529   45.9716 C   0  0  0  0  0  0  0  0  0  0  0  0
   16.1869   -0.5957   44.4528 O   0  0  0  0  0  0  0  0  0  0  0  0
   10.8168   -5.3072   46.8157 C   0  0  0  0  0  0  0  0  0  0  0  0
   16.9691   -2.7691   45.1797 C   0  0  0  0  0  0  0  0  0  0  0  0
    9.5402   -5.8424   47.2372 O   0  0  0  0  0  0  0  0  0  0  0  0
   14.9893    0.0729   44.1751 C   0  0  0  0  0  0  0  0  0  0  0  0
   11.5517   -5.9098   45.9705 C   0  0  0  0  0  0  0  0  0  0  0  0
    9.7152   -6.8442   47.9941 C   0  0  0  0  0  0  0  0  0  0  0  0
   16.8112   -3.9003   45.5929 C   0  0  0  0  0  0  0  0  0  0  0  0
  1  2  1  0
  2  3  2  0
  3  4  1  0
  1  5  2  0
  4  5  1  0
  3  6  1  0
  4  7  2  0
  6  8  1  0
  8  9  1  0
  7 10  1  0
  9 11  1  0
  5 12  1  0
  7 13  1  0
  8 13  2  0
 10 14  1  0
 12 15  1  0
 12 16  2  0
 14 17  1  0
 15 18  1  0
 13 19  1  0
 16 20  1  0
 18 20  2  0
 11 21  1  0
 19 21  2  0
 21 22  1  0
 11 23  2  0
 14 24  2  0
 24 25  1  0
 17 26  1  0
 25 26  2  0
 17 27  1  0
 15 28  1  6
 27 28  1  0
 22 29  1  1
 29 30  1  0
 19 31  1  0
 24 31  1  0
 22 32  1  0
 31 32  1  1
 30 33  2  0
 27 34  2  0
 30 35  1  0
 35 36  2  0
 36 37  1  0
 37 38  1  0
 37 39  2  0
 38 40  2  0
 40 41  1  0
 38 42  1  0
 41 43  1  0
 35 44  1  0
 41 45  2  0
 44 46  1  0
 43 47  1  0
 39 48  1  0
 44 48  2  0
 46 49  1  0
 42 50  2  0
 45 50  1  0
M  END
$$$$
O14757_Pocket2Mol_idx-in-all-generaetd-685
     RDKit          3D

 48 55  0  0  0  0  0  0  0  0999 V2000
    5.3420    0.2589   42.8836 O   0  0  0  0  0  0  0  0  0  0  0  0
    5.1627   -0.7554   43.4753 C   0  0  0  0  0  0  0  0  0  0  0  0
    4.0509   -1.4657   43.4177 N   0  0  0  0  0  0  0  0  0  0  0  0
    5.9969   -1.2317   44.6840 C   0  0  0  0  0  0  0  0  0  0  0  0
    2.9618   -1.1021   42.5918 C   0  0  1  0  0  0  0  0  0  0  0  0
    7.3392   -0.8596   44.8412 C   0  0  0  0  0  0  0  0  0  0  0  0
    1.9754   -2.0820   42.2741 C   0  0  0  0  0  0  0  0  0  0  0  0
    5.5910   -2.4282   45.3439 C   0  0  0  0  0  0  0  0  0  0  0  0
    6.5874   -2.9636   46.1581 C   0  0  0  0  0  0  0  0  0  0  0  0
    4.2763   -3.0680   45.0493 N   0  0  0  0  0  0  0  0  0  0  0  0
    3.6188   -2.5886   44.2024 C   0  0  0  0  0  0  0  0  0  0  0  0
    8.1921   -1.4071   45.7505 C   0  0  0  0  0  0  0  0  0  0  0  0
    1.0154   -1.8839   41.2980 C   0  0  0  0  0  0  0  0  0  0  0  0
    2.5720   -3.3564   43.9063 C   0  0  0  0  0  0  0  0  0  0  0  0
    0.2502   -2.8976   41.0751 C   0  0  0  0  0  0  0  0  0  0  0  0
    6.1761   -4.1775   47.0209 C   0  0  0  0  0  0  0  0  0  0  0  0
    1.7266   -3.1047   43.0115 C   0  0  2  0  0  0  0  0  0  0  0  0
    2.3696   -4.5367   44.7536 N   0  0  0  0  0  0  0  0  0  0  0  0
    1.2264   -5.2346   44.4693 C   0  0  0  0  0  0  0  0  0  0  0  0
    0.7187   -3.8955   42.5465 C   0  0  0  0  0  0  0  0  0  0  0  0
    9.4576   -0.8949   46.0327 N   0  0  0  0  0  0  0  0  0  0  0  0
    0.8625   -6.3901   45.2462 C   0  0  0  0  0  0  0  0  0  0  0  0
    7.6467   -2.5139   46.4892 C   0  0  0  0  0  0  0  0  0  0  0  0
   10.4908   -1.5336   45.8242 C   0  0  0  0  0  0  0  0  0  0  0  0
    0.3057   -4.9299   43.2909 C   0  0  0  0  0  0  0  0  0  0  0  0
   11.5916   -1.4291   46.7436 C   0  0  0  0  0  0  0  0  0  0  0  0
   10.5566   -2.3672   44.8649 O   0  0  0  0  0  0  0  0  0  0  0  0
    2.4730    0.2084   42.8389 O   0  0  0  0  0  0  0  0  0  0  0  0
   11.6027   -2.2081   47.7725 N   0  0  0  0  0  0  0  0  0  0  0  0
   12.6189   -0.5862   46.5415 C   0  0  0  0  0  0  0  0  0  0  0  0
   13.6413   -0.4484   47.4129 C   0  0  0  0  0  0  0  0  0  0  0  0
   10.4764   -3.1097   48.1134 C   0  0  0  0  0  0  0  0  0  0  0  0
    9.5762   -2.4717   49.0753 C   0  0  0  0  0  0  0  0  0  0  0  0
    9.7761   -1.2394   49.5167 C   0  0  0  0  0  0  0  0  0  0  0  0
    8.6397   -3.3252   49.7339 C   0  0  0  0  0  0  0  0  0  0  0  0
    8.9861   -0.7034   50.5819 C   0  0  0  0  0  0  0  0  0  0  0  0
   14.7137    0.5128   47.0925 C   0  0  0  0  0  0  0  0  0  0  0  0
    8.1815   -1.5423   51.2387 C   0  0  0  0  0  0  0  0  0  0  0  0
    8.4156   -4.7176   49.2102 O   0  0  0  0  0  0  0  0  0  0  0  0
   13.6915   -1.2597   48.4795 C   0  0  0  0  0  0  0  0  0  0  0  0
   14.7842   -1.1839   49.3622 C   0  0  0  0  0  0  0  0  0  0  0  0
   12.5774   -2.1710   48.6835 C   0  0  0  0  0  0  0  0  0  0  0  0
   14.8423   -1.9939   50.5370 O   0  0  0  0  0  0  0  0  0  0  0  0
    7.9254   -2.8787   50.8112 C   0  0  0  0  0  0  0  0  0  0  0  0
   14.6734    1.3692   45.9797 O   0  0  0  0  0  0  0  0  0  0  0  0
   15.8165   -0.4771   49.1996 O   0  0  0  0  0  0  0  0  0  0  0  0
    7.1810   -5.2321   49.4004 C   0  0  0  0  0  0  0  0  0  0  0  0
    6.2639   -4.3708   48.3292 C   0  0  0  0  0  0  0  0  0  0  0  0
  1  2  2  0
  2  3  1  0
  2  4  1  0
  3  5  1  0
  4  6  2  0
  5  7  1  0
  4  8  1  0
  8  9  2  0
  8 10  1  0
  3 11  1  0
 10 11  2  0
  6 12  1  0
  7 13  2  0
 11 14  1  0
 13 15  1  0
  9 16  1  0
 17  7  1  6
 14 17  1  0
 14 18  2  0
 18 19  1  0
 15 20  2  0
 17 20  1  0
 12 21  1  0
 19 22  1  0
  9 23  1  0
 12 23  2  0
 21 24  1  0
 19 25  2  0
 20 25  1  0
 24 26  1  0
 24 27  2  0
  5 28  1  1
 26 29  1  0
 26 30  2  0
 30 31  1  0
 29 32  1  0
 32 33  1  0
 33 34  1  0
 33 35  2  0
 34 36  2  0
 31 37  1  0
 36 38  1  0
 35 39  1  0
 31 40  2  0
 40 41  1  0
 29 42  1  0
 40 42  1  0
 41 43  1  0
 35 44  1  0
 38 44  2  0
 37 45  1  0
 41 46  2  0
 39 47  1  0
 16 48  2  3
 47 48  1  0
M  END
$$$$
O14757_Pocket2Mol_idx-in-all-generaetd-686
     RDKit          3D

 43 51  0  0  0  0  0  0  0  0999 V2000
    1.5482   -0.3111   41.9233 C   0  0  0  0  0  0  0  0  0  0  0  0
    2.7284    0.2018   42.1525 N   0  0  0  0  0  0  0  0  0  0  0  0
    3.7893   -0.3016   42.7005 C   0  0  0  0  0  0  0  0  0  0  0  0
    3.3781   -1.7350   43.0000 C   0  0  0  0  0  0  0  0  0  0  0  0
    2.0339   -1.9619   42.6217 C   0  0  0  0  0  0  0  0  0  0  0  0
    5.0090    0.1219   42.9340 N   0  0  0  0  0  0  0  0  0  0  0  0
    4.2895   -2.4979   43.6707 C   0  0  0  0  0  0  0  0  0  0  0  0
    5.8391   -0.6675   43.6343 C   0  0  0  0  0  0  0  0  0  0  0  0
    6.9849   -0.2377   44.0028 N   0  0  0  0  0  0  0  0  0  0  0  0
    4.0426   -3.8794   44.0832 C   0  0  0  0  0  0  0  0  0  0  0  0
    7.6796   -0.8734   44.9326 C   0  0  0  0  0  0  0  0  0  0  0  0
    1.1064   -2.9576   42.4211 C   0  0  0  0  0  0  0  0  0  0  0  0
    5.5298   -1.9496   44.0315 C   0  0  0  0  0  0  0  0  0  0  0  0
    3.8954   -4.1817   45.4718 C   0  0  0  0  0  0  0  0  0  0  0  0
    0.6765   -3.5480   43.4006 C   0  0  1  0  0  0  0  0  0  0  0  0
    0.5804   -3.2191   41.1635 C   0  0  0  0  0  0  0  0  0  0  0  0
    2.8083   -4.8227   45.9203 N   0  0  0  0  0  0  0  0  0  0  0  0
   -0.1574   -4.5754   42.9329 N   0  0  0  0  0  0  0  0  0  0  0  0
    6.5271   -2.5531   44.9677 C   0  0  0  0  0  0  0  0  0  0  0  0
   -0.2272   -4.3703   41.5137 C   0  0  0  0  0  0  0  0  0  0  0  0
    7.5095   -2.0029   45.3993 C   0  0  0  0  0  0  0  0  0  0  0  0
    8.2550   -2.6982   46.3988 C   0  0  2  0  0  0  0  0  0  0  0  0
    8.8975   -0.3029   45.3267 O   0  0  0  0  0  0  0  0  0  0  0  0
    4.8299   -4.4637   46.4212 C   0  0  0  0  0  0  0  0  0  0  0  0
    4.2707   -4.9248   47.6295 N   0  0  0  0  0  0  0  0  0  0  0  0
    3.2045   -5.2092   47.1521 C   0  0  0  0  0  0  0  0  0  0  0  0
    1.4482   -4.6186   45.4134 C   0  0  2  0  0  0  0  0  0  0  0  0
    1.2398   -3.5043   44.6236 O   0  0  0  0  0  0  0  0  0  0  0  0
    6.3317   -3.9297   46.0870 C   0  0  2  0  0  0  0  0  0  0  0  0
    9.5296   -2.5449   46.9776 C   0  0  0  0  0  0  0  0  0  0  0  0
    9.7921   -1.7530   47.9018 O   0  0  0  0  0  0  0  0  0  0  0  0
    7.4454   -3.8344   46.8035 C   0  0  0  0  0  0  0  0  0  0  0  0
   10.5010   -3.0847   46.3190 O   0  0  0  0  0  0  0  0  0  0  0  0
    0.5569   -4.7693   46.5649 C   0  0  0  0  0  0  0  0  0  0  0  0
   11.7452   -2.8462   46.6234 C   0  0  1  0  0  0  0  0  0  0  0  0
   12.4186   -3.8680   47.1468 C   0  0  1  0  0  0  0  0  0  0  0  0
   11.9026   -5.0270   47.0501 O   0  0  0  0  0  0  0  0  0  0  0  0
   12.4007   -2.3595   45.2496 C   0  0  0  0  0  0  0  0  0  0  0  0
   11.9866   -5.9663   48.0884 C   0  0  0  0  0  0  0  0  0  0  0  0
   13.8038   -3.9309   46.8282 C   0  0  0  0  0  0  0  0  0  0  0  0
   14.5452   -2.7233   46.4062 C   0  0  1  0  0  0  0  0  0  0  0  0
   15.8754   -2.7892   46.2316 O   0  0  0  0  0  0  0  0  0  0  0  0
   13.7211   -2.1459   45.1938 C   0  0  0  0  0  0  0  0  0  0  0  0
  1  2  1  0
  2  3  2  0
  3  4  1  0
  1  5  2  0
  4  5  1  0
  3  6  1  0
  4  7  2  0
  6  8  1  0
  8  9  1  0
  7 10  1  0
  9 11  1  0
  5 12  1  0
  7 13  1  0
  8 13  2  0
 10 14  1  0
 12 15  1  0
 12 16  2  0
 14 17  1  0
 15 18  1  0
 13 19  1  0
 16 20  1  0
 18 20  2  0
 11 21  1  0
 19 21  2  0
 21 22  1  0
 11 23  2  0
 14 24  2  0
 24 25  1  0
 17 26  1  0
 25 26  2  0
 17 27  1  0
 15 28  1  6
 27 28  1  0
 19 29  1  0
 24 29  1  0
 22 30  1  6
 30 31  2  0
 22 32  1  0
 29 32  1  1
 30 33  1  0
 27 34  1  1
 35 33  1  6
 35 36  1  0
 36 37  1  6
 35 38  1  0
 37 39  1  0
 36 40  1  0
 40 41  1  0
 41 42  1  6
 38 43  1  0
 41 43  1  0
M  END
$$$$
O14757_Pocket2Mol_idx-in-all-generaetd-687
     RDKit          3D

 48 56  0  0  0  0  0  0  0  0999 V2000
    5.3420    0.2589   42.8836 O   0  0  0  0  0  0  0  0  0  0  0  0
    5.1627   -0.7554   43.4753 C   0  0  0  0  0  0  0  0  0  0  0  0
    4.0509   -1.4657   43.4177 N   0  0  0  0  0  0  0  0  0  0  0  0
    5.9969   -1.2317   44.6840 C   0  0  0  0  0  0  0  0  0  0  0  0
    2.9618   -1.1021   42.5918 C   0  0  1  0  0  0  0  0  0  0  0  0
    7.3392   -0.8596   44.8412 C   0  0  0  0  0  0  0  0  0  0  0  0
    1.9754   -2.0820   42.2741 C   0  0  0  0  0  0  0  0  0  0  0  0
    5.5910   -2.4282   45.3439 C   0  0  0  0  0  0  0  0  0  0  0  0
    6.5874   -2.9636   46.1581 C   0  0  0  0  0  0  0  0  0  0  0  0
    4.2763   -3.0680   45.0493 N   0  0  0  0  0  0  0  0  0  0  0  0
    3.6188   -2.5886   44.2024 C   0  0  0  0  0  0  0  0  0  0  0  0
    8.1921   -1.4071   45.7505 C   0  0  0  0  0  0  0  0  0  0  0  0
    1.0154   -1.8839   41.2980 C   0  0  0  0  0  0  0  0  0  0  0  0
    2.5720   -3.3564   43.9063 C   0  0  0  0  0  0  0  0  0  0  0  0
    0.2502   -2.8976   41.0751 C   0  0  0  0  0  0  0  0  0  0  0  0
    6.1761   -4.1775   47.0209 C   0  0  0  0  0  0  0  0  0  0  0  0
    1.7266   -3.1047   43.0115 C   0  0  2  0  0  0  0  0  0  0  0  0
    2.3696   -4.5367   44.7536 N   0  0  0  0  0  0  0  0  0  0  0  0
    1.2264   -5.2346   44.4693 C   0  0  0  0  0  0  0  0  0  0  0  0
    0.7187   -3.8955   42.5465 C   0  0  0  0  0  0  0  0  0  0  0  0
    9.4576   -0.8949   46.0327 N   0  0  0  0  0  0  0  0  0  0  0  0
    0.8625   -6.3901   45.2462 C   0  0  0  0  0  0  0  0  0  0  0  0
    7.6467   -2.5139   46.4892 C   0  0  0  0  0  0  0  0  0  0  0  0
   10.4908   -1.5336   45.8242 C   0  0  0  0  0  0  0  0  0  0  0  0
    0.3057   -4.9299   43.2909 C   0  0  0  0  0  0  0  0  0  0  0  0
   11.5916   -1.4291   46.7436 C   0  0  0  0  0  0  0  0  0  0  0  0
   10.5566   -2.3672   44.8649 O   0  0  0  0  0  0  0  0  0  0  0  0
    2.4730    0.2084   42.8389 O   0  0  0  0  0  0  0  0  0  0  0  0
   11.6027   -2.2081   47.7725 N   0  0  0  0  0  0  0  0  0  0  0  0
   12.6189   -0.5862   46.5415 C   0  0  0  0  0  0  0  0  0  0  0  0
   13.6413   -0.4484   47.4129 C   0  0  0  0  0  0  0  0  0  0  0  0
   10.4764   -3.1097   48.1134 C   0  0  0  0  0  0  0  0  0  0  0  0
    9.5762   -2.4717   49.0753 C   0  0  0  0  0  0  0  0  0  0  0  0
    9.7761   -1.2394   49.5167 C   0  0  0  0  0  0  0  0  0  0  0  0
    8.6397   -3.3252   49.7339 C   0  0  0  0  0  0  0  0  0  0  0  0
    8.9861   -0.7034   50.5819 C   0  0  0  0  0  0  0  0  0  0  0  0
   14.7137    0.5128   47.0925 C   0  0  0  0  0  0  0  0  0  0  0  0
    8.1815   -1.5423   51.2387 C   0  0  0  0  0  0  0  0  0  0  0  0
    8.4156   -4.7176   49.2102 O   0  0  0  0  0  0  0  0  0  0  0  0
   13.6915   -1.2597   48.4795 C   0  0  0  0  0  0  0  0  0  0  0  0
   14.7842   -1.1839   49.3622 C   0  0  0  0  0  0  0  0  0  0  0  0
   15.7412    0.6156   47.9897 C   0  0  0  0  0  0  0  0  0  0  0  0
    7.9465   -2.8417   50.8178 C   0  0  0  0  0  0  0  0  0  0  0  0
   12.6985   -2.2783   48.7736 C   0  0  0  0  0  0  0  0  0  0  0  0
   16.8142    1.5491   47.7884 O   0  0  0  0  0  0  0  0  0  0  0  0
    7.1939   -5.2382   49.3926 C   0  0  0  0  0  0  0  0  0  0  0  0
   15.7111   -0.2473   49.1108 C   0  0  0  0  0  0  0  0  0  0  0  0
    6.2819   -4.3607   48.3215 C   0  0  0  0  0  0  0  0  0  0  0  0
  1  2  2  0
  2  3  1  0
  2  4  1  0
  3  5  1  0
  4  6  2  0
  5  7  1  0
  4  8  1  0
  8  9  2  0
  8 10  1  0
  3 11  1  0
 10 11  2  0
  6 12  1  0
  7 13  2  0
 11 14  1  0
 13 15  1  0
  9 16  1  0
 17  7  1  6
 14 17  1  0
 14 18  2  0
 18 19  1  0
 15 20  2  0
 17 20  1  0
 12 21  1  0
 19 22  1  0
  9 23  1  0
 12 23  2  0
 21 24  1  0
 19 25  2  0
 20 25  1  0
 24 26  1  0
 24 27  2  0
  5 28  1  1
 26 29  1  0
 26 30  2  0
 30 31  1  0
 29 32  1  0
 32 33  1  0
 33 34  1  0
 33 35  2  0
 34 36  2  0
 31 37  2  0
 36 38  1  0
 35 39  1  0
 31 40  1  0
 40 41  2  0
 37 42  1  0
 35 43  1  0
 38 43  2  0
 29 44  1  0
 40 44  1  0
 42 45  1  0
 39 46  1  0
 41 47  1  0
 42 47  2  0
 16 48  1  0
 46 48  1  0
M  END
$$$$
O14757_Pocket2Mol_idx-in-all-generaetd-688
     RDKit          3D

 31 35  0  0  0  0  0  0  0  0999 V2000
    5.3420    0.2589   42.8836 N   0  0  0  0  0  0  0  0  0  0  0  0
    5.6740   -0.8311   43.5645 C   0  0  0  0  0  0  0  0  0  0  0  0
    4.8288   -1.8236   43.8416 C   0  0  0  0  0  0  0  0  0  0  0  0
    3.6296   -1.5812   43.1756 C   0  0  0  0  0  0  0  0  0  0  0  0
    5.0882   -3.0359   44.6381 C   0  0  0  0  0  0  0  0  0  0  0  0
    6.1485   -2.9700   45.5258 C   0  0  0  0  0  0  0  0  0  0  0  0
    4.2991   -4.0949   44.5899 C   0  0  0  0  0  0  0  0  0  0  0  0
    2.3915   -2.2145   43.0037 C   0  0  0  0  0  0  0  0  0  0  0  0
    3.1185   -4.3300   43.8771 C   0  0  0  0  0  0  0  0  0  0  0  0
    2.6120   -5.5925   44.1861 O   0  0  0  0  0  0  0  0  0  0  0  0
    3.9103   -0.2359   42.6290 C   0  0  0  0  0  0  0  0  0  0  0  0
    2.2344   -3.4540   43.3650 N   0  0  0  0  0  0  0  0  0  0  0  0
    0.8119   -3.8495   43.1300 C   0  0  0  0  0  0  0  0  0  0  0  0
    3.0472    0.4463   41.9449 N   0  0  0  0  0  0  0  0  0  0  0  0
    1.5343   -1.5152   42.1136 C   0  0  0  0  0  0  0  0  0  0  0  0
    7.2580   -2.1553   45.5496 C   0  0  0  0  0  0  0  0  0  0  0  0
    8.2843   -2.2373   46.5265 C   0  0  0  0  0  0  0  0  0  0  0  0
    9.4356   -1.2990   46.5400 C   0  0  0  0  0  0  0  0  0  0  0  0
   10.4651   -1.7166   45.9135 O   0  0  0  0  0  0  0  0  0  0  0  0
    1.9573   -0.0992   41.7221 C   0  0  0  0  0  0  0  0  0  0  0  0
    0.3498   -3.1327   42.0399 C   0  0  0  0  0  0  0  0  0  0  0  0
   11.6169   -1.9467   46.5690 C   0  0  0  0  0  0  0  0  0  0  0  0
    0.3221   -1.9135   41.8326 C   0  0  0  0  0  0  0  0  0  0  0  0
    8.1214   -3.2407   47.4708 C   0  0  0  0  0  0  0  0  0  0  0  0
    7.0470   -4.1579   47.3819 C   0  0  0  0  0  0  0  0  0  0  0  0
    6.1070   -4.0093   46.5158 C   0  0  0  0  0  0  0  0  0  0  0  0
   11.6265   -2.6398   47.5108 O   0  0  0  0  0  0  0  0  0  0  0  0
   12.8102   -1.2179   46.0480 C   0  0  0  0  0  0  0  0  0  0  0  0
   13.3896   -1.8742   44.9801 N   0  0  0  0  0  0  0  0  0  0  0  0
   12.8891   -1.5585   43.7771 C   0  0  0  0  0  0  0  0  0  0  0  0
   14.6006   -2.6218   45.1475 C   0  0  0  0  0  0  0  0  0  0  0  0
  1  2  2  0
  2  3  1  0
  3  4  2  0
  3  5  1  0
  5  6  1  0
  5  7  2  0
  4  8  1  0
  7  9  1  0
  9 10  2  0
  1 11  1  0
  4 11  1  0
  8 12  1  0
  9 12  1  0
 12 13  1  0
 11 14  2  0
  8 15  2  0
  6 16  2  0
 16 17  1  0
 17 18  1  0
 18 19  1  0
 14 20  1  0
 15 20  1  0
 13 21  1  0
 19 22  1  0
 15 23  1  0
 21 23  1  0
 17 24  2  0
 24 25  1  0
  6 26  1  0
 25 26  2  0
 22 27  2  0
 22 28  1  0
 28 29  1  0
 29 30  1  0
 29 31  1  0
M  END
$$$$
O14757_Pocket2Mol_idx-in-all-generaetd-689
     RDKit          3D

 31 38  0  0  0  0  0  0  0  0999 V2000
    1.5482   -0.3111   41.9233 C   0  0  0  0  0  0  0  0  0  0  0  0
    2.7284    0.2018   42.1525 N   0  0  0  0  0  0  0  0  0  0  0  0
    3.7893   -0.3016   42.7005 C   0  0  0  0  0  0  0  0  0  0  0  0
    3.3781   -1.7350   43.0000 C   0  0  0  0  0  0  0  0  0  0  0  0
    2.0339   -1.9619   42.6217 C   0  0  0  0  0  0  0  0  0  0  0  0
    5.0090    0.1219   42.9340 N   0  0  0  0  0  0  0  0  0  0  0  0
    4.2895   -2.4979   43.6707 C   0  0  0  0  0  0  0  0  0  0  0  0
    5.8391   -0.6675   43.6343 C   0  0  0  0  0  0  0  0  0  0  0  0
    6.9849   -0.2377   44.0028 N   0  0  0  0  0  0  0  0  0  0  0  0
    4.0426   -3.8794   44.0832 C   0  0  0  0  0  0  0  0  0  0  0  0
    7.6796   -0.8734   44.9326 C   0  0  0  0  0  0  0  0  0  0  0  0
    1.1064   -2.9576   42.4211 C   0  0  0  0  0  0  0  0  0  0  0  0
    5.5298   -1.9496   44.0315 C   0  0  0  0  0  0  0  0  0  0  0  0
    3.8954   -4.1817   45.4718 C   0  0  0  0  0  0  0  0  0  0  0  0
    0.6765   -3.5480   43.4006 C   0  0  1  0  0  0  0  0  0  0  0  0
    0.5804   -3.2191   41.1635 C   0  0  0  0  0  0  0  0  0  0  0  0
    2.8083   -4.8227   45.9203 N   0  0  0  0  0  0  0  0  0  0  0  0
   -0.1574   -4.5754   42.9329 N   0  0  0  0  0  0  0  0  0  0  0  0
    6.5271   -2.5531   44.9677 C   0  0  0  0  0  0  0  0  0  0  0  0
   -0.2272   -4.3703   41.5137 C   0  0  0  0  0  0  0  0  0  0  0  0
    7.5095   -2.0029   45.3993 C   0  0  0  0  0  0  0  0  0  0  0  0
    8.2550   -2.6982   46.3988 C   0  0  0  0  0  0  0  0  0  0  0  0
    8.8975   -0.3029   45.3267 O   0  0  0  0  0  0  0  0  0  0  0  0
    4.8299   -4.4637   46.4212 C   0  0  0  0  0  0  0  0  0  0  0  0
    4.2707   -4.9248   47.6295 N   0  0  0  0  0  0  0  0  0  0  0  0
    3.2045   -5.2092   47.1521 C   0  0  0  0  0  0  0  0  0  0  0  0
    1.4482   -4.6186   45.4134 C   0  0  1  0  0  0  0  0  0  0  0  0
    6.2193   -3.7462   46.1851 C   0  0  2  0  0  0  0  0  0  0  0  0
    7.3818   -3.6986   46.8792 C   0  0  0  0  0  0  0  0  0  0  0  0
    1.2417   -3.4938   44.6288 O   0  0  0  0  0  0  0  0  0  0  0  0
    1.2385   -5.7885   44.5754 C   0  0  0  0  0  0  0  0  0  0  0  0
  1  2  1  0
  2  3  2  0
  3  4  1  0
  1  5  2  0
  4  5  1  0
  3  6  1  0
  4  7  2  0
  6  8  1  0
  8  9  1  0
  7 10  1  0
  9 11  1  0
  5 12  1  0
  7 13  1  0
  8 13  2  0
 10 14  1  0
 12 15  1  0
 12 16  2  0
 14 17  1  0
 15 18  1  0
 13 19  1  0
 16 20  1  0
 18 20  2  0
 11 21  1  0
 19 21  2  0
 21 22  1  0
 11 23  2  0
 14 24  2  0
 24 25  1  0
 17 26  1  0
 25 26  2  0
 17 27  1  0
 19 28  1  0
 24 28  1  0
 22 29  1  0
 28 29  1  1
 15 30  1  6
 27 30  1  0
 27 31  1  6
M  END
$$$$
O14757_Pocket2Mol_idx-in-all-generaetd-690
     RDKit          3D

 28 31  0  0  0  0  0  0  0  0999 V2000
    3.7044    0.1389   42.5158 N   0  0  0  0  0  0  0  0  0  0  0  0
    3.0206   -1.0018   42.4929 C   0  0  0  0  0  0  0  0  0  0  0  0
    3.4791   -2.0817   43.2077 C   0  0  0  0  0  0  0  0  0  0  0  0
    4.8540    0.3862   43.0582 N   0  0  0  0  0  0  0  0  0  0  0  0
    5.1377   -0.9552   43.7144 C   0  0  0  0  0  0  0  0  0  0  0  0
    1.5846   -1.0753   41.7644 C   0  0  0  0  0  0  0  0  0  0  0  0
    4.6026   -2.0358   43.8129 C   0  0  0  0  0  0  0  0  0  0  0  0
    5.1584   -3.1511   44.6069 C   0  0  0  0  0  0  0  0  0  0  0  0
    6.6094   -0.7911   44.3696 N   0  0  0  0  0  0  0  0  0  0  0  0
    4.4744   -4.3270   44.8472 C   0  0  0  0  0  0  0  0  0  0  0  0
    6.9275   -1.8713   45.2437 C   0  0  0  0  0  0  0  0  0  0  0  0
    8.2702   -1.7750   45.8768 C   0  0  0  0  0  0  0  0  0  0  0  0
    0.9365   -0.0867   41.7346 O   0  0  0  0  0  0  0  0  0  0  0  0
    6.2322   -3.0484   45.3118 C   0  0  0  0  0  0  0  0  0  0  0  0
    6.7747   -4.0433   46.1202 N   0  0  0  0  0  0  0  0  0  0  0  0
    1.2161   -2.2739   41.2518 N   0  0  0  0  0  0  0  0  0  0  0  0
    9.0373   -0.5649   45.9132 O   0  0  0  0  0  0  0  0  0  0  0  0
    3.8907   -5.0906   43.9511 O   0  0  0  0  0  0  0  0  0  0  0  0
    4.3454   -4.8388   46.1621 N   0  0  0  0  0  0  0  0  0  0  0  0
    3.4531   -5.8952   46.4159 C   0  0  0  0  0  0  0  0  0  0  0  0
    8.7091   -2.8031   46.6693 N   0  0  0  0  0  0  0  0  0  0  0  0
    5.4910   -4.7959   46.9467 C   0  0  0  0  0  0  0  0  0  0  0  0
    7.8496   -3.9145   46.8373 C   0  0  0  0  0  0  0  0  0  0  0  0
    8.5639   -5.1140   47.3215 O   0  0  0  0  0  0  0  0  0  0  0  0
    9.9254   -2.6675   47.4187 C   0  0  2  0  0  0  0  0  0  0  0  0
    9.8657   -1.8897   48.5483 C   0  0  0  0  0  0  0  0  0  0  0  0
   11.0142   -2.1407   46.5238 C   0  0  0  0  0  0  0  0  0  0  0  0
   11.8111   -3.1044   45.9064 O   0  0  0  0  0  0  0  0  0  0  0  0
  1  2  2  0
  2  3  1  0
  1  4  1  0
  4  5  2  0
  2  6  1  0
  3  7  2  0
  5  7  1  0
  7  8  1  0
  5  9  1  0
  8 10  1  0
  9 11  2  0
 11 12  1  0
  6 13  2  0
  8 14  2  0
 11 14  1  0
 14 15  1  0
  6 16  1  0
 12 17  2  0
 10 18  2  0
 10 19  1  0
 19 20  1  0
 12 21  1  0
 15 22  1  0
 19 22  1  0
 15 23  1  0
 21 23  1  0
 23 24  2  0
 21 25  1  0
 25 26  1  1
 25 27  1  0
 27 28  1  0
M  END
$$$$
O14757_Pocket2Mol_idx-in-all-generaetd-691
     RDKit          3D

 31 35  0  0  0  0  0  0  0  0999 V2000
    4.5156    0.0550   42.9895 N   0  0  0  0  0  0  0  0  0  0  0  0
    5.0618   -0.8645   43.5295 C   0  0  0  0  0  0  0  0  0  0  0  0
    4.4350   -2.0604   43.7783 C   0  0  0  0  0  0  0  0  0  0  0  0
    4.9987   -3.0994   44.5839 C   0  0  0  0  0  0  0  0  0  0  0  0
    3.2714   -1.8664   43.0632 C   0  0  0  0  0  0  0  0  0  0  0  0
    6.4064   -0.5942   44.3204 N   0  0  0  0  0  0  0  0  0  0  0  0
    4.3422   -4.3256   44.7203 C   0  0  0  0  0  0  0  0  0  0  0  0
    2.1845   -2.6668   42.8270 N   0  0  0  0  0  0  0  0  0  0  0  0
    3.3305   -0.5395   42.5465 N   0  0  0  0  0  0  0  0  0  0  0  0
    1.9502   -3.8972   43.4076 C   0  0  0  0  0  0  0  0  0  0  0  0
    2.7156   -4.1184   44.6954 N   0  0  0  0  0  0  0  0  0  0  0  0
    6.8581   -1.5862   45.1101 C   0  0  0  0  0  0  0  0  0  0  0  0
    6.1801   -2.8430   45.2383 C   0  0  0  0  0  0  0  0  0  0  0  0
    2.1454   -5.1901   45.5771 C   0  0  0  0  0  0  0  0  0  0  0  0
    8.0137   -1.3946   45.8526 C   0  0  0  0  0  0  0  0  0  0  0  0
    0.9733   -4.5725   43.2066 O   0  0  0  0  0  0  0  0  0  0  0  0
    2.2437    0.0035   41.8733 C   0  0  0  0  0  0  0  0  0  0  0  0
    1.3210   -2.2077   41.7009 C   0  0  0  0  0  0  0  0  0  0  0  0
    8.6047   -2.2876   46.6923 C   0  0  0  0  0  0  0  0  0  0  0  0
    7.9141   -3.5157   46.8869 C   0  0  0  0  0  0  0  0  0  0  0  0
    1.0501   -0.8658   41.6612 C   0  0  0  0  0  0  0  0  0  0  0  0
    6.7473   -3.8283   46.2372 C   0  0  0  0  0  0  0  0  0  0  0  0
    1.0568   -4.5170   46.3522 C   0  0  0  0  0  0  0  0  0  0  0  0
    9.8008   -2.0643   47.3760 C   0  0  0  0  0  0  0  0  0  0  0  0
   10.9776   -2.0111   46.7028 N   0  0  0  0  0  0  0  0  0  0  0  0
   12.1432   -1.7842   47.1175 C   0  0  0  0  0  0  0  0  0  0  0  0
   12.3798   -1.6931   48.2738 O   0  0  0  0  0  0  0  0  0  0  0  0
   13.1596   -1.3369   46.0563 C   0  0  0  0  0  0  0  0  0  0  0  0
   13.0380   -1.9261   44.9077 O   0  0  0  0  0  0  0  0  0  0  0  0
   14.0553   -0.4546   46.3746 N   0  0  0  0  0  0  0  0  0  0  0  0
   14.9182   -0.0371   45.3305 C   0  0  0  0  0  0  0  0  0  0  0  0
  1  2  2  0
  2  3  1  0
  3  4  1  0
  3  5  2  0
  2  6  1  0
  4  7  1  0
  5  8  1  0
  1  9  1  0
  5  9  1  0
  8 10  1  0
  7 11  1  0
 10 11  1  0
  6 12  2  0
  4 13  2  0
 12 13  1  0
 11 14  1  0
 12 15  1  0
 10 16  2  0
  9 17  1  0
  8 18  1  0
 15 19  2  0
 19 20  1  0
 17 21  1  0
 18 21  1  0
 13 22  1  0
 20 22  2  0
 14 23  1  0
 19 24  1  0
 24 25  1  0
 25 26  1  0
 26 27  2  0
 26 28  1  0
 28 29  2  0
 28 30  1  0
 30 31  1  0
M  END
$$$$
O14757_Pocket2Mol_idx-in-all-generaetd-692
     RDKit          3D

 42 48  0  0  0  0  0  0  0  0999 V2000
    5.3420    0.2589   42.8836 O   0  0  0  0  0  0  0  0  0  0  0  0
    5.1627   -0.7554   43.4753 C   0  0  0  0  0  0  0  0  0  0  0  0
    4.0509   -1.4657   43.4177 N   0  0  0  0  0  0  0  0  0  0  0  0
    5.9969   -1.2317   44.6840 C   0  0  0  0  0  0  0  0  0  0  0  0
    2.9618   -1.1021   42.5918 C   0  0  1  0  0  0  0  0  0  0  0  0
    7.3392   -0.8596   44.8412 C   0  0  0  0  0  0  0  0  0  0  0  0
    1.9754   -2.0820   42.2741 C   0  0  0  0  0  0  0  0  0  0  0  0
    5.5910   -2.4282   45.3439 C   0  0  0  0  0  0  0  0  0  0  0  0
    6.5874   -2.9636   46.1581 C   0  0  0  0  0  0  0  0  0  0  0  0
    4.2763   -3.0680   45.0493 N   0  0  0  0  0  0  0  0  0  0  0  0
    3.6188   -2.5886   44.2024 C   0  0  0  0  0  0  0  0  0  0  0  0
    8.1921   -1.4071   45.7505 C   0  0  0  0  0  0  0  0  0  0  0  0
    1.0154   -1.8839   41.2980 C   0  0  0  0  0  0  0  0  0  0  0  0
    2.5720   -3.3564   43.9063 C   0  0  0  0  0  0  0  0  0  0  0  0
    0.2502   -2.8976   41.0751 C   0  0  0  0  0  0  0  0  0  0  0  0
    6.1761   -4.1775   47.0209 C   0  0  0  0  0  0  0  0  0  0  0  0
    1.7266   -3.1047   43.0115 C   0  0  2  0  0  0  0  0  0  0  0  0
    2.3696   -4.5367   44.7536 N   0  0  0  0  0  0  0  0  0  0  0  0
    1.2264   -5.2346   44.4693 C   0  0  0  0  0  0  0  0  0  0  0  0
    0.7187   -3.8955   42.5465 C   0  0  0  0  0  0  0  0  0  0  0  0
    9.4576   -0.8949   46.0327 N   0  0  0  0  0  0  0  0  0  0  0  0
    0.8625   -6.3901   45.2462 C   0  0  0  0  0  0  0  0  0  0  0  0
    7.6467   -2.5139   46.4892 C   0  0  0  0  0  0  0  0  0  0  0  0
   10.4908   -1.5336   45.8242 C   0  0  0  0  0  0  0  0  0  0  0  0
    0.3057   -4.9299   43.2909 C   0  0  0  0  0  0  0  0  0  0  0  0
   11.5916   -1.4291   46.7436 C   0  0  0  0  0  0  0  0  0  0  0  0
   10.5566   -2.3672   44.8649 O   0  0  0  0  0  0  0  0  0  0  0  0
    2.4730    0.2084   42.8389 O   0  0  0  0  0  0  0  0  0  0  0  0
   11.6027   -2.2081   47.7725 N   0  0  0  0  0  0  0  0  0  0  0  0
   12.6189   -0.5862   46.5415 C   0  0  0  0  0  0  0  0  0  0  0  0
   13.6413   -0.4484   47.4129 C   0  0  0  0  0  0  0  0  0  0  0  0
   10.4764   -3.1097   48.1134 C   0  0  0  0  0  0  0  0  0  0  0  0
    9.5762   -2.4717   49.0753 C   0  0  0  0  0  0  0  0  0  0  0  0
    9.7761   -1.2394   49.5167 C   0  0  0  0  0  0  0  0  0  0  0  0
    8.6397   -3.3252   49.7339 C   0  0  0  0  0  0  0  0  0  0  0  0
    8.9861   -0.7034   50.5819 C   0  0  0  0  0  0  0  0  0  0  0  0
   14.7137    0.5128   47.0925 C   0  0  0  0  0  0  0  0  0  0  0  0
    8.1815   -1.5423   51.2387 C   0  0  0  0  0  0  0  0  0  0  0  0
    7.9420   -2.8799   50.7336 C   0  0  0  0  0  0  0  0  0  0  0  0
   12.7448   -2.0625   48.3931 C   0  0  0  0  0  0  0  0  0  0  0  0
   13.7356   -1.3270   48.3210 N   0  0  0  0  0  0  0  0  0  0  0  0
   13.0369   -3.1931   49.4733 O   0  0  0  0  0  0  0  0  0  0  0  0
  1  2  2  0
  2  3  1  0
  2  4  1  0
  3  5  1  0
  4  6  2  0
  5  7  1  0
  4  8  1  0
  8  9  2  0
  8 10  1  0
  3 11  1  0
 10 11  2  0
  6 12  1  0
  7 13  2  0
 11 14  1  0
 13 15  1  0
  9 16  1  0
 17  7  1  6
 14 17  1  0
 14 18  2  0
 18 19  1  0
 15 20  2  0
 17 20  1  0
 12 21  1  0
 19 22  1  0
  9 23  1  0
 12 23  2  0
 21 24  1  0
 19 25  2  0
 20 25  1  0
 24 26  1  0
 24 27  2  0
  5 28  1  1
 26 29  1  0
 26 30  2  0
 30 31  1  0
 29 32  1  0
 32 33  1  0
 33 34  2  0
 33 35  1  0
 34 36  1  0
 31 37  1  0
 36 38  2  0
 35 39  2  0
 38 39  1  0
 29 40  1  0
 31 41  2  0
 40 41  1  0
 40 42  2  0
M  END
$$$$
O14757_Pocket2Mol_idx-in-all-generaetd-693
     RDKit          3D

 43 49  0  0  0  0  0  0  0  0999 V2000
    5.3420    0.2589   42.8836 O   0  0  0  0  0  0  0  0  0  0  0  0
    5.1627   -0.7554   43.4753 C   0  0  0  0  0  0  0  0  0  0  0  0
    4.0509   -1.4657   43.4177 N   0  0  0  0  0  0  0  0  0  0  0  0
    5.9969   -1.2317   44.6840 C   0  0  0  0  0  0  0  0  0  0  0  0
    2.9618   -1.1021   42.5918 C   0  0  1  0  0  0  0  0  0  0  0  0
    7.3392   -0.8596   44.8412 C   0  0  0  0  0  0  0  0  0  0  0  0
    1.9754   -2.0820   42.2741 C   0  0  0  0  0  0  0  0  0  0  0  0
    5.5910   -2.4282   45.3439 C   0  0  0  0  0  0  0  0  0  0  0  0
    6.5874   -2.9636   46.1581 C   0  0  0  0  0  0  0  0  0  0  0  0
    4.2763   -3.0680   45.0493 N   0  0  0  0  0  0  0  0  0  0  0  0
    3.6188   -2.5886   44.2024 C   0  0  0  0  0  0  0  0  0  0  0  0
    8.1921   -1.4071   45.7505 C   0  0  0  0  0  0  0  0  0  0  0  0
    1.0154   -1.8839   41.2980 C   0  0  0  0  0  0  0  0  0  0  0  0
    2.5720   -3.3564   43.9063 C   0  0  0  0  0  0  0  0  0  0  0  0
    0.2502   -2.8976   41.0751 C   0  0  0  0  0  0  0  0  0  0  0  0
    6.1761   -4.1775   47.0209 C   0  0  0  0  0  0  0  0  0  0  0  0
    1.7266   -3.1047   43.0115 C   0  0  2  0  0  0  0  0  0  0  0  0
    2.3696   -4.5367   44.7536 N   0  0  0  0  0  0  0  0  0  0  0  0
    1.2264   -5.2346   44.4693 C   0  0  0  0  0  0  0  0  0  0  0  0
    0.7187   -3.8955   42.5465 C   0  0  0  0  0  0  0  0  0  0  0  0
    9.4576   -0.8949   46.0327 N   0  0  0  0  0  0  0  0  0  0  0  0
    0.8625   -6.3901   45.2462 C   0  0  0  0  0  0  0  0  0  0  0  0
    7.6467   -2.5139   46.4892 C   0  0  0  0  0  0  0  0  0  0  0  0
   10.4908   -1.5336   45.8242 C   0  0  0  0  0  0  0  0  0  0  0  0
    0.3057   -4.9299   43.2909 C   0  0  0  0  0  0  0  0  0  0  0  0
   11.5916   -1.4291   46.7436 C   0  0  0  0  0  0  0  0  0  0  0  0
   10.5566   -2.3672   44.8649 O   0  0  0  0  0  0  0  0  0  0  0  0
    2.4730    0.2084   42.8389 O   0  0  0  0  0  0  0  0  0  0  0  0
   11.6027   -2.2081   47.7725 N   0  0  0  0  0  0  0  0  0  0  0  0
   12.6189   -0.5862   46.5415 C   0  0  0  0  0  0  0  0  0  0  0  0
   13.6413   -0.4484   47.4129 C   0  0  0  0  0  0  0  0  0  0  0  0
   10.4764   -3.1097   48.1134 C   0  0  0  0  0  0  0  0  0  0  0  0
    9.5762   -2.4717   49.0753 C   0  0  0  0  0  0  0  0  0  0  0  0
    9.7761   -1.2394   49.5167 C   0  0  0  0  0  0  0  0  0  0  0  0
    8.6397   -3.3252   49.7339 C   0  0  0  0  0  0  0  0  0  0  0  0
    8.9861   -0.7034   50.5819 C   0  0  0  0  0  0  0  0  0  0  0  0
   14.7137    0.5128   47.0925 C   0  0  0  0  0  0  0  0  0  0  0  0
    8.1815   -1.5423   51.2387 C   0  0  0  0  0  0  0  0  0  0  0  0
    7.9420   -2.8799   50.7336 C   0  0  0  0  0  0  0  0  0  0  0  0
   15.0931    0.5213   46.0596 O   0  0  0  0  0  0  0  0  0  0  0  0
   15.2558    0.9878   48.0824 O   0  0  0  0  0  0  0  0  0  0  0  0
   12.6581   -2.0928   48.6518 C   0  0  0  0  0  0  0  0  0  0  0  0
   13.6904   -1.2744   48.3915 C   0  0  0  0  0  0  0  0  0  0  0  0
  1  2  2  0
  2  3  1  0
  2  4  1  0
  3  5  1  0
  4  6  2  0
  5  7  1  0
  4  8  1  0
  8  9  2  0
  8 10  1  0
  3 11  1  0
 10 11  2  0
  6 12  1  0
  7 13  2  0
 11 14  1  0
 13 15  1  0
  9 16  1  0
 17  7  1  6
 14 17  1  0
 14 18  2  0
 18 19  1  0
 15 20  2  0
 17 20  1  0
 12 21  1  0
 19 22  1  0
  9 23  1  0
 12 23  2  0
 21 24  1  0
 19 25  2  0
 20 25  1  0
 24 26  1  0
 24 27  2  0
  5 28  1  1
 26 29  1  0
 26 30  2  0
 30 31  1  0
 29 32  1  0
 32 33  1  0
 33 34  2  0
 33 35  1  0
 34 36  1  0
 31 37  1  0
 36 38  2  0
 35 39  2  0
 38 39  1  0
 37 40  2  0
 37 41  1  0
 29 42  1  0
 31 43  2  0
 42 43  1  0
M  END
$$$$
O14757_Pocket2Mol_idx-in-all-generaetd-694
     RDKit          3D

 34 39  0  0  0  0  0  0  0  0999 V2000
    5.3420    0.2589   42.8836 O   0  0  0  0  0  0  0  0  0  0  0  0
    5.1627   -0.7554   43.4753 C   0  0  0  0  0  0  0  0  0  0  0  0
    4.0509   -1.4657   43.4177 N   0  0  0  0  0  0  0  0  0  0  0  0
    5.9969   -1.2317   44.6840 C   0  0  0  0  0  0  0  0  0  0  0  0
    2.9618   -1.1021   42.5918 C   0  0  1  0  0  0  0  0  0  0  0  0
    7.3392   -0.8596   44.8412 C   0  0  0  0  0  0  0  0  0  0  0  0
    1.9754   -2.0820   42.2741 C   0  0  0  0  0  0  0  0  0  0  0  0
    5.5910   -2.4282   45.3439 C   0  0  0  0  0  0  0  0  0  0  0  0
    6.5874   -2.9636   46.1581 C   0  0  0  0  0  0  0  0  0  0  0  0
    4.2763   -3.0680   45.0493 N   0  0  0  0  0  0  0  0  0  0  0  0
    3.6188   -2.5886   44.2024 C   0  0  0  0  0  0  0  0  0  0  0  0
    8.1921   -1.4071   45.7505 C   0  0  0  0  0  0  0  0  0  0  0  0
    1.0154   -1.8839   41.2980 C   0  0  0  0  0  0  0  0  0  0  0  0
    2.5720   -3.3564   43.9063 C   0  0  0  0  0  0  0  0  0  0  0  0
    0.2502   -2.8976   41.0751 C   0  0  0  0  0  0  0  0  0  0  0  0
    6.1761   -4.1775   47.0209 C   0  0  0  0  0  0  0  0  0  0  0  0
    1.7266   -3.1047   43.0115 C   0  0  2  0  0  0  0  0  0  0  0  0
    2.3696   -4.5367   44.7536 N   0  0  0  0  0  0  0  0  0  0  0  0
    1.2264   -5.2346   44.4693 C   0  0  0  0  0  0  0  0  0  0  0  0
    0.7187   -3.8955   42.5465 C   0  0  0  0  0  0  0  0  0  0  0  0
    9.4576   -0.8949   46.0327 N   0  0  0  0  0  0  0  0  0  0  0  0
    0.8625   -6.3901   45.2462 C   0  0  0  0  0  0  0  0  0  0  0  0
    7.6467   -2.5139   46.4892 C   0  0  0  0  0  0  0  0  0  0  0  0
   10.4908   -1.5336   45.8242 C   0  0  0  0  0  0  0  0  0  0  0  0
    0.3057   -4.9299   43.2909 C   0  0  0  0  0  0  0  0  0  0  0  0
   11.5916   -1.4291   46.7436 C   0  0  0  0  0  0  0  0  0  0  0  0
   10.5566   -2.3672   44.8649 O   0  0  0  0  0  0  0  0  0  0  0  0
   11.6051   -2.2111   47.7709 N   0  0  0  0  0  0  0  0  0  0  0  0
    2.4805    0.2099   42.8350 O   0  0  0  0  0  0  0  0  0  0  0  0
   12.6177   -0.5842   46.5430 C   0  0  0  0  0  0  0  0  0  0  0  0
   12.8756    0.2998   45.3489 C   0  0  0  0  0  0  0  0  0  0  0  0
   13.4679   -0.8331   47.6367 N   0  0  0  0  0  0  0  0  0  0  0  0
   12.8260   -1.7454   48.3899 C   0  0  0  0  0  0  0  0  0  0  0  0
   14.7748   -0.2403   47.8109 C   0  0  0  0  0  0  0  0  0  0  0  0
  1  2  2  0
  2  3  1  0
  2  4  1  0
  3  5  1  0
  4  6  2  0
  5  7  1  0
  4  8  1  0
  8  9  2  0
  8 10  1  0
  3 11  1  0
 10 11  2  0
  6 12  1  0
  7 13  2  0
 11 14  1  0
 13 15  1  0
  9 16  1  0
 17  7  1  6
 14 17  1  0
 14 18  2  0
 18 19  1  0
 15 20  2  0
 17 20  1  0
 12 21  1  0
 19 22  1  0
  9 23  1  0
 12 23  2  0
 21 24  1  0
 19 25  2  0
 20 25  1  0
 24 26  1  0
 24 27  2  0
 26 28  1  0
  5 29  1  1
 26 30  2  0
 30 31  1  0
 30 32  1  0
 28 33  2  0
 32 33  1  0
 32 34  1  0
M  END
$$$$
O14757_Pocket2Mol_idx-in-all-generaetd-695
     RDKit          3D

 40 47  0  0  0  0  0  0  0  0999 V2000
    4.8173    0.2791   42.6993 N   0  0  0  0  0  0  0  0  0  0  0  0
    5.3297   -0.7477   43.3688 C   0  0  0  0  0  0  0  0  0  0  0  0
    3.4732   -0.2235   42.4530 C   0  0  0  0  0  0  0  0  0  0  0  0
    4.4984   -1.7876   43.6214 C   0  0  0  0  0  0  0  0  0  0  0  0
    3.3438   -1.5190   42.9379 C   0  0  0  0  0  0  0  0  0  0  0  0
    2.1381   -2.3401   42.8254 C   0  0  0  0  0  0  0  0  0  0  0  0
    2.3894    0.3572   41.9843 N   0  0  0  0  0  0  0  0  0  0  0  0
    4.9180   -3.0430   44.3829 C   0  0  0  0  0  0  0  0  0  0  0  0
    5.9444   -2.9314   45.3934 C   0  0  0  0  0  0  0  0  0  0  0  0
    4.2808   -4.1329   44.3252 C   0  0  0  0  0  0  0  0  0  0  0  0
    3.1588   -4.4221   43.4852 O   0  0  0  0  0  0  0  0  0  0  0  0
    4.5704   -5.2518   45.1995 C   0  0  0  0  0  0  0  0  0  0  0  0
    1.9853   -3.6792   43.3495 C   0  0  0  0  0  0  0  0  0  0  0  0
    0.9181   -4.3294   43.4638 C   0  0  0  0  0  0  0  0  0  0  0  0
    6.7403   -1.6226   45.5272 C   0  0  2  0  0  0  0  0  0  0  0  0
    0.9752   -1.7845   42.3366 C   0  0  0  0  0  0  0  0  0  0  0  0
    6.2516   -3.7287   46.2722 C   0  0  0  0  0  0  0  0  0  0  0  0
   -0.2404   -2.4179   42.2529 C   0  0  0  0  0  0  0  0  0  0  0  0
   -1.3835   -1.8904   41.6559 N   0  0  0  0  0  0  0  0  0  0  0  0
    3.8706   -6.4216   45.1394 O   0  0  0  0  0  0  0  0  0  0  0  0
    0.9456   -0.2789   41.7649 C   0  0  0  0  0  0  0  0  0  0  0  0
   -0.2678   -3.6969   42.7575 C   0  0  0  0  0  0  0  0  0  0  0  0
    6.3913   -0.7000   44.3807 N   0  0  0  0  0  0  0  0  0  0  0  0
    7.9391   -1.5867   46.0069 C   0  0  0  0  0  0  0  0  0  0  0  0
    8.7787   -0.4879   45.9761 O   0  0  0  0  0  0  0  0  0  0  0  0
    5.3853   -5.1216   46.3780 C   0  0  0  0  0  0  0  0  0  0  0  0
    8.4504   -2.7517   46.6262 N   0  0  0  0  0  0  0  0  0  0  0  0
    7.4807   -3.7374   47.0380 C   0  0  0  0  0  0  0  0  0  0  0  0
    9.7261   -2.6138   47.3732 C   0  0  0  0  0  0  0  0  0  0  0  0
    9.9606   -3.7577   48.0581 C   0  0  0  0  0  0  0  0  0  0  0  0
   11.0999   -4.4648   47.7368 O   0  0  0  0  0  0  0  0  0  0  0  0
   10.9199   -5.0316   46.4526 C   0  0  0  0  0  0  0  0  0  0  0  0
   10.2272   -6.0822   46.3751 C   0  0  0  0  0  0  0  0  0  0  0  0
   11.3454   -4.3181   45.2884 C   0  0  0  0  0  0  0  0  0  0  0  0
    9.6833   -6.6841   47.5703 O   0  0  0  0  0  0  0  0  0  0  0  0
   10.2626   -7.0665   45.3234 C   0  0  0  0  0  0  0  0  0  0  0  0
    9.1410   -7.9540   47.6979 C   0  0  0  0  0  0  0  0  0  0  0  0
   11.9885   -3.0879   45.2862 O   0  0  0  0  0  0  0  0  0  0  0  0
   11.4235   -5.1293   44.1397 C   0  0  0  0  0  0  0  0  0  0  0  0
   10.8358   -6.4033   44.1677 C   0  0  0  0  0  0  0  0  0  0  0  0
  1  2  2  0
  1  3  1  0
  2  4  1  0
  3  5  1  0
  4  5  2  0
  5  6  1  0
  3  7  2  0
  4  8  1  0
  8  9  1  0
  8 10  2  0
 10 11  1  0
 10 12  1  0
  6 13  1  0
 11 13  1  0
 13 14  2  0
  9 15  1  0
  6 16  2  0
  9 17  2  0
 16 18  1  0
 18 19  1  0
 12 20  1  0
  7 21  1  0
 16 21  1  0
 14 22  1  0
 18 22  2  0
  2 23  1  0
 15 23  1  6
 15 24  1  0
 24 25  2  0
 12 26  2  0
 17 26  1  0
 24 27  1  0
 17 28  1  0
 27 28  1  0
 27 29  1  0
 29 30  1  0
 30 31  1  0
 31 32  1  0
 32 33  2  0
 32 34  1  0
 33 35  1  0
 33 36  1  0
 35 37  1  0
 34 38  1  0
 34 39  2  0
 36 40  2  0
 39 40  1  0
M  END
$$$$
O14757_Pocket2Mol_idx-in-all-generaetd-696
     RDKit          3D

 44 51  0  0  0  0  0  0  0  0999 V2000
    5.3420    0.2589   42.8836 O   0  0  0  0  0  0  0  0  0  0  0  0
    5.1627   -0.7554   43.4753 C   0  0  0  0  0  0  0  0  0  0  0  0
    4.0509   -1.4657   43.4177 N   0  0  0  0  0  0  0  0  0  0  0  0
    5.9969   -1.2317   44.6840 C   0  0  0  0  0  0  0  0  0  0  0  0
    2.9618   -1.1021   42.5918 C   0  0  1  0  0  0  0  0  0  0  0  0
    7.3392   -0.8596   44.8412 C   0  0  0  0  0  0  0  0  0  0  0  0
    1.9754   -2.0820   42.2741 C   0  0  0  0  0  0  0  0  0  0  0  0
    5.5910   -2.4282   45.3439 C   0  0  0  0  0  0  0  0  0  0  0  0
    6.5874   -2.9636   46.1581 C   0  0  0  0  0  0  0  0  0  0  0  0
    4.2763   -3.0680   45.0493 N   0  0  0  0  0  0  0  0  0  0  0  0
    3.6188   -2.5886   44.2024 C   0  0  0  0  0  0  0  0  0  0  0  0
    8.1921   -1.4071   45.7505 C   0  0  0  0  0  0  0  0  0  0  0  0
    1.0154   -1.8839   41.2980 C   0  0  0  0  0  0  0  0  0  0  0  0
    2.5720   -3.3564   43.9063 C   0  0  0  0  0  0  0  0  0  0  0  0
    0.2502   -2.8976   41.0751 C   0  0  0  0  0  0  0  0  0  0  0  0
    6.1761   -4.1775   47.0209 C   0  0  0  0  0  0  0  0  0  0  0  0
    1.7266   -3.1047   43.0115 C   0  0  2  0  0  0  0  0  0  0  0  0
    2.3696   -4.5367   44.7536 N   0  0  0  0  0  0  0  0  0  0  0  0
    1.2264   -5.2346   44.4693 C   0  0  0  0  0  0  0  0  0  0  0  0
    0.7187   -3.8955   42.5465 C   0  0  0  0  0  0  0  0  0  0  0  0
    9.4576   -0.8949   46.0327 N   0  0  0  0  0  0  0  0  0  0  0  0
    0.8625   -6.3901   45.2462 C   0  0  0  0  0  0  0  0  0  0  0  0
    7.6467   -2.5139   46.4892 C   0  0  0  0  0  0  0  0  0  0  0  0
   10.4908   -1.5336   45.8242 C   0  0  0  0  0  0  0  0  0  0  0  0
    0.3057   -4.9299   43.2909 C   0  0  0  0  0  0  0  0  0  0  0  0
   11.5916   -1.4291   46.7436 C   0  0  0  0  0  0  0  0  0  0  0  0
   10.5566   -2.3672   44.8649 O   0  0  0  0  0  0  0  0  0  0  0  0
    2.4730    0.2084   42.8389 O   0  0  0  0  0  0  0  0  0  0  0  0
   11.6027   -2.2081   47.7725 N   0  0  0  0  0  0  0  0  0  0  0  0
   12.6189   -0.5862   46.5415 C   0  0  0  0  0  0  0  0  0  0  0  0
   13.6413   -0.4484   47.4129 C   0  0  0  0  0  0  0  0  0  0  0  0
   10.4764   -3.1097   48.1134 C   0  0  0  0  0  0  0  0  0  0  0  0
    9.5762   -2.4717   49.0753 C   0  0  0  0  0  0  0  0  0  0  0  0
    9.7761   -1.2394   49.5167 C   0  0  0  0  0  0  0  0  0  0  0  0
    8.6397   -3.3252   49.7339 C   0  0  0  0  0  0  0  0  0  0  0  0
    8.9861   -0.7034   50.5819 C   0  0  0  0  0  0  0  0  0  0  0  0
   12.7628   -2.0677   48.3467 C   0  0  0  0  0  0  0  0  0  0  0  0
    8.3925   -4.6975   49.1448 C   0  0  0  0  0  0  0  0  0  0  0  0
   13.7449   -1.3168   48.3092 C   0  0  0  0  0  0  0  0  0  0  0  0
    7.9223   -2.7559   50.6680 C   0  0  0  0  0  0  0  0  0  0  0  0
    6.8827   -3.5705   51.3497 F   0  0  0  0  0  0  0  0  0  0  0  0
   13.0769   -3.2878   49.2230 O   0  0  0  0  0  0  0  0  0  0  0  0
    8.1258   -1.5323   51.1669 C   0  0  0  0  0  0  0  0  0  0  0  0
    7.0723   -4.8121   48.4964 N   0  0  0  0  0  0  0  0  0  0  0  0
  1  2  2  0
  2  3  1  0
  2  4  1  0
  3  5  1  0
  4  6  2  0
  5  7  1  0
  4  8  1  0
  8  9  2  0
  8 10  1  0
  3 11  1  0
 10 11  2  0
  6 12  1  0
  7 13  2  0
 11 14  1  0
 13 15  1  0
  9 16  1  0
 17  7  1  6
 14 17  1  0
 14 18  2  0
 18 19  1  0
 15 20  2  0
 17 20  1  0
 12 21  1  0
 19 22  1  0
  9 23  1  0
 12 23  2  0
 21 24  1  0
 19 25  2  0
 20 25  1  0
 24 26  1  0
 24 27  2  0
  5 28  1  1
 26 29  1  0
 26 30  2  0
 30 31  1  0
 29 32  1  0
 32 33  1  0
 33 34  2  0
 33 35  1  0
 34 36  1  0
 29 37  1  0
 35 38  1  0
 31 39  2  0
 37 39  1  0
 35 40  2  0
 40 41  1  0
 37 42  2  0
 36 43  2  0
 40 43  1  0
 16 44  1  0
 38 44  1  0
M  END
$$$$
O14757_Pocket2Mol_idx-in-all-generaetd-697
     RDKit          3D

 42 49  0  0  0  0  0  0  0  0999 V2000
    1.5482   -0.3111   41.9233 C   0  0  0  0  0  0  0  0  0  0  0  0
    2.7284    0.2018   42.1525 N   0  0  0  0  0  0  0  0  0  0  0  0
    3.7893   -0.3016   42.7005 C   0  0  0  0  0  0  0  0  0  0  0  0
    3.3781   -1.7350   43.0000 C   0  0  0  0  0  0  0  0  0  0  0  0
    2.0339   -1.9619   42.6217 C   0  0  0  0  0  0  0  0  0  0  0  0
    4.1166   -2.4997   43.8458 C   0  0  0  0  0  0  0  0  0  0  0  0
    1.1731   -3.0051   42.5773 C   0  0  0  0  0  0  0  0  0  0  0  0
    0.4701   -3.2344   41.4901 C   0  0  0  0  0  0  0  0  0  0  0  0
    5.3799   -1.7814   44.2691 C   0  0  0  0  0  0  0  0  0  0  0  0
    5.0159   -0.0180   43.1201 N   0  0  0  0  0  0  0  0  0  0  0  0
    5.7693   -0.6937   43.8418 C   0  0  0  0  0  0  0  0  0  0  0  0
    0.8078   -3.6166   43.6782 C   0  0  0  0  0  0  0  0  0  0  0  0
    0.0663   -4.7011   43.7415 N   0  0  0  0  0  0  0  0  0  0  0  0
    6.2223   -2.6843   45.1565 C   0  0  0  0  0  0  0  0  0  0  0  0
    6.9599   -0.2351   44.2608 N   0  0  0  0  0  0  0  0  0  0  0  0
    5.9065   -3.9037   45.7499 N   0  0  0  0  0  0  0  0  0  0  0  0
   -0.5459   -5.1185   42.5870 C   0  0  0  0  0  0  0  0  0  0  0  0
    5.7480   -4.0340   46.9810 C   0  0  0  0  0  0  0  0  0  0  0  0
    7.4448   -1.8511   45.4198 C   0  0  0  0  0  0  0  0  0  0  0  0
    7.7572   -0.7827   45.0128 C   0  0  0  0  0  0  0  0  0  0  0  0
    8.4076   -2.7217   46.4541 C   0  0  0  0  0  0  0  0  0  0  0  0
    9.3167   -2.0988   47.1049 N   0  0  0  0  0  0  0  0  0  0  0  0
   -0.4719   -4.3893   41.5406 C   0  0  0  0  0  0  0  0  0  0  0  0
    8.3667   -4.0284   46.5743 N   0  0  0  0  0  0  0  0  0  0  0  0
    9.5309   -4.3147   47.3094 C   0  0  0  0  0  0  0  0  0  0  0  0
    5.3113   -3.3789   47.8005 O   0  0  0  0  0  0  0  0  0  0  0  0
    9.9022   -5.6301   47.7684 C   0  0  0  0  0  0  0  0  0  0  0  0
    5.4470   -5.5868   47.2096 C   0  0  0  0  0  0  0  0  0  0  0  0
   11.2254   -5.8679   48.0402 C   0  0  0  0  0  0  0  0  0  0  0  0
    8.9736   -6.6532   47.8548 C   0  0  0  0  0  0  0  0  0  0  0  0
   10.0616   -3.0670   47.6360 C   0  0  0  0  0  0  0  0  0  0  0  0
    7.5566   -6.3564   47.5477 N   0  0  0  0  0  0  0  0  0  0  0  0
    6.4157   -6.1721   48.0913 C   0  0  0  0  0  0  0  0  0  0  0  0
   12.3275   -4.8510   47.9324 C   0  0  0  0  0  0  0  0  0  0  0  0
    9.4585   -7.9662   48.0726 C   0  0  0  0  0  0  0  0  0  0  0  0
   11.5288   -2.7910   48.1740 C   0  0  0  0  0  0  0  0  0  0  0  0
   10.7288   -8.1991   48.4378 C   0  0  0  0  0  0  0  0  0  0  0  0
   11.2242   -9.5767   48.7434 O   0  0  0  0  0  0  0  0  0  0  0  0
   11.7001   -7.1808   48.3690 C   0  0  0  0  0  0  0  0  0  0  0  0
   12.3453   -3.3800   48.1219 N   0  0  0  0  0  0  0  0  0  0  0  0
   11.7619   -1.3752   48.2684 O   0  0  0  0  0  0  0  0  0  0  0  0
   10.5335  -10.5672   48.3249 C   0  0  0  0  0  0  0  0  0  0  0  0
  1  2  1  0
  2  3  2  0
  3  4  1  0
  1  5  2  0
  4  5  1  0
  4  6  2  0
  5  7  1  0
  7  8  2  0
  6  9  1  0
  3 10  1  0
  9 11  2  0
 10 11  1  0
  7 12  1  0
 12 13  2  0
  9 14  1  0
 11 15  1  0
 14 16  1  0
 13 17  1  0
 16 18  1  0
 14 19  2  0
 15 20  2  0
 19 20  1  0
 19 21  1  0
 21 22  2  0
  8 23  1  0
 17 23  2  0
 21 24  1  0
 24 25  1  0
 18 26  2  0
 25 27  1  0
 18 28  1  0
 27 29  2  0
 27 30  1  0
 22 31  1  0
 25 31  2  0
 30 32  1  0
 28 33  1  0
 32 33  1  0
 29 34  1  0
 30 35  2  0
 31 36  1  0
 35 37  1  0
 37 38  1  0
 29 39  1  0
 37 39  2  0
 34 40  1  0
 36 40  1  0
 36 41  2  0
 38 42  1  0
M  END
$$$$
O14757_Pocket2Mol_idx-in-all-generaetd-698
     RDKit          3D

 32 35  0  0  0  0  0  0  0  0999 V2000
    4.5142    0.3543   42.7132 N   0  0  0  0  0  0  0  0  0  0  0  0
    3.5107   -0.4860   42.6298 C   0  0  0  0  0  0  0  0  0  0  0  0
    3.5891   -1.7637   43.2512 N   0  0  0  0  0  0  0  0  0  0  0  0
    5.5470   -0.0112   43.3539 C   0  0  0  0  0  0  0  0  0  0  0  0
    2.1469   -0.1899   41.9512 C   0  0  0  0  0  0  0  0  0  0  0  0
    4.6725   -2.0734   43.8606 C   0  0  0  0  0  0  0  0  0  0  0  0
    5.7749   -1.1829   43.9325 C   0  0  0  0  0  0  0  0  0  0  0  0
    4.7150   -3.3068   44.6440 C   0  0  0  0  0  0  0  0  0  0  0  0
    6.9086   -1.5797   44.6919 C   0  0  0  0  0  0  0  0  0  0  0  0
    3.5691   -4.2517   44.6407 C   0  0  0  0  0  0  0  0  0  0  0  0
    2.3573   -4.0060   44.5430 C   0  0  0  0  0  0  0  0  0  0  0  0
    6.9170   -2.8018   45.4663 C   0  0  0  0  0  0  0  0  0  0  0  0
    5.8006   -3.6152   45.4297 C   0  0  0  0  0  0  0  0  0  0  0  0
    8.0903   -3.1108   46.2193 C   0  0  0  0  0  0  0  0  0  0  0  0
    4.0064   -5.4798   44.1304 O   0  0  0  0  0  0  0  0  0  0  0  0
    1.3499   -4.4927   43.7488 C   0  0  0  0  0  0  0  0  0  0  0  0
    8.9407   -2.1153   46.7855 N   0  0  0  0  0  0  0  0  0  0  0  0
    9.9131   -2.4307   47.6296 C   0  0  0  0  0  0  0  0  0  0  0  0
    9.9401   -2.1931   48.7722 O   0  0  0  0  0  0  0  0  0  0  0  0
    1.6925   -3.8787   45.7737 C   0  0  0  0  0  0  0  0  0  0  0  0
    0.0956   -4.4506   43.8726 C   0  0  0  0  0  0  0  0  0  0  0  0
   -0.4743   -4.1254   44.9651 C   0  0  0  0  0  0  0  0  0  0  0  0
   11.1474   -2.9718   46.9683 C   0  0  0  0  0  0  0  0  0  0  0  0
    0.1760   -3.8909   45.9333 C   0  0  0  0  0  0  0  0  0  0  0  0
   11.1208   -4.2039   46.7415 C   0  0  0  0  0  0  0  0  0  0  0  0
   10.0412   -5.1887   46.8168 O   0  0  0  0  0  0  0  0  0  0  0  0
   10.4183   -6.3723   46.3087 C   0  0  0  0  0  0  0  0  0  0  0  0
   12.2799   -2.1444   46.8302 C   0  0  0  0  0  0  0  0  0  0  0  0
   12.3720   -4.7295   46.0115 C   0  0  0  0  0  0  0  0  0  0  0  0
   13.5046   -4.0060   45.9809 C   0  0  0  0  0  0  0  0  0  0  0  0
   12.2564   -0.7386   47.1773 O   0  0  0  0  0  0  0  0  0  0  0  0
   13.5174   -2.6073   46.3707 C   0  0  0  0  0  0  0  0  0  0  0  0
  1  2  2  0
  2  3  1  0
  1  4  1  0
  2  5  1  0
  3  6  2  0
  4  7  2  0
  6  7  1  0
  6  8  1  0
  7  9  1  0
  8 10  1  0
 10 11  1  0
  9 12  2  0
  8 13  2  0
 12 13  1  0
 12 14  1  0
 10 15  2  0
 11 16  2  0
 14 17  1  0
 17 18  1  0
 18 19  2  0
 11 20  1  0
 16 21  1  0
 21 22  2  0
 18 23  1  0
 20 24  2  0
 22 24  1  0
 23 25  2  0
 25 26  1  0
 26 27  1  0
 23 28  1  0
 25 29  1  0
 29 30  2  0
 28 31  1  0
 28 32  2  0
 30 32  1  0
M  END
$$$$
O14757_Pocket2Mol_idx-in-all-generaetd-699
     RDKit          3D

 39 47  0  0  0  0  0  0  0  0999 V2000
    4.8037   -0.1366   42.7100 N   0  0  0  0  0  0  0  0  0  0  0  0
    3.6577   -0.7759   42.7186 C   0  0  0  0  0  0  0  0  0  0  0  0
    3.6660   -1.8665   43.4760 C   0  0  0  0  0  0  0  0  0  0  0  0
    2.7271   -2.8718   43.6599 C   0  0  0  0  0  0  0  0  0  0  0  0
    2.4846   -0.2994   42.1254 N   0  0  0  0  0  0  0  0  0  0  0  0
    5.0524   -1.7697   43.9367 C   0  0  0  0  0  0  0  0  0  0  0  0
    1.4917   -2.9000   43.0914 C   0  0  0  0  0  0  0  0  0  0  0  0
    3.1274   -3.9503   44.5163 C   0  0  0  0  0  0  0  0  0  0  0  0
    1.0744   -1.9066   42.1491 C   0  0  2  0  0  0  0  0  0  0  0  0
    5.6624   -0.7003   43.4895 C   0  0  0  0  0  0  0  0  0  0  0  0
    5.5753   -2.5784   45.0324 C   0  0  0  0  0  0  0  0  0  0  0  0
    0.4030   -3.6297   43.4883 N   0  0  0  0  0  0  0  0  0  0  0  0
    1.5052   -0.8077   41.7519 C   0  0  0  0  0  0  0  0  0  0  0  0
   -0.5645   -3.4039   42.5585 N   0  0  0  0  0  0  0  0  0  0  0  0
    2.5059   -5.1012   44.7935 C   0  0  0  0  0  0  0  0  0  0  0  0
    4.4581   -3.8218   45.2947 C   0  0  0  0  0  0  0  0  0  0  0  0
   -0.3089   -2.3979   41.8128 C   0  0  0  0  0  0  0  0  0  0  0  0
    6.6435   -2.6577   45.6991 C   0  0  0  0  0  0  0  0  0  0  0  0
    7.0869   -3.7008   46.4717 C   0  0  0  0  0  0  0  0  0  0  0  0
    7.5912   -1.5296   45.5455 C   0  0  0  0  0  0  0  0  0  0  0  0
    8.7765   -1.4352   46.2248 C   0  0  0  0  0  0  0  0  0  0  0  0
    6.3069   -4.7944   46.6836 O   0  0  0  0  0  0  0  0  0  0  0  0
    4.8984   -4.5252   46.1302 C   0  0  0  0  0  0  0  0  0  0  0  0
    4.2122   -5.9932   46.2216 C   0  0  0  0  0  0  0  0  0  0  0  0
    3.0046   -6.0549   45.6421 C   0  0  0  0  0  0  0  0  0  0  0  0
    8.2374   -3.8078   47.1146 C   0  0  0  0  0  0  0  0  0  0  0  0
    9.1909   -2.6332   47.0292 C   0  0  0  0  0  0  0  0  0  0  0  0
   10.4575   -2.6198   47.6824 O   0  0  0  0  0  0  0  0  0  0  0  0
   11.4873   -2.2059   46.9341 C   0  0  2  0  0  0  0  0  0  0  0  0
   12.2817   -1.4398   47.4308 O   0  0  0  0  0  0  0  0  0  0  0  0
   13.2946   -1.0299   46.6543 C   0  0  0  0  0  0  0  0  0  0  0  0
   13.0925   -1.0831   45.3218 C   0  0  0  0  0  0  0  0  0  0  0  0
   14.1643   -1.0297   44.5680 C   0  0  0  0  0  0  0  0  0  0  0  0
   14.4080   -0.3157   47.2384 C   0  0  0  0  0  0  0  0  0  0  0  0
   11.6411   -2.1027   45.4787 C   0  0  0  0  0  0  0  0  0  0  0  0
   14.4738    0.0661   48.5587 O   0  0  0  0  0  0  0  0  0  0  0  0
   15.4435    0.0306   46.2911 C   0  0  0  0  0  0  0  0  0  0  0  0
   13.9350    1.2882   48.7212 C   0  0  0  0  0  0  0  0  0  0  0  0
   15.2613   -0.3608   44.9373 C   0  0  0  0  0  0  0  0  0  0  0  0
  1  2  2  0
  2  3  1  0
  3  4  2  0
  2  5  1  0
  3  6  1  0
  4  7  1  0
  4  8  1  0
  7  9  1  0
  1 10  1  0
  6 10  1  0
  6 11  2  0
  7 12  2  0
  5 13  2  0
  9 13  1  1
 12 14  1  0
  8 15  2  0
  8 16  1  0
 11 16  1  0
  9 17  1  0
 14 17  2  0
 11 18  1  0
 18 19  2  0
 18 20  1  0
 20 21  2  0
 19 22  1  0
 16 23  2  0
 22 23  1  0
 23 24  1  0
 15 25  1  0
 24 25  2  0
 19 26  1  0
 21 27  1  0
 26 27  2  0
 27 28  1  0
 29 28  1  6
 29 30  1  0
 30 31  1  0
 31 32  2  0
 32 33  1  0
 31 34  1  0
 29 35  1  0
 32 35  1  0
 34 36  1  0
 34 37  2  0
 36 38  1  0
 33 39  2  0
 37 39  1  0
M  END
$$$$
O14757_Pocket2Mol_idx-in-all-generaetd-700
     RDKit          3D

 39 46  0  0  0  0  0  0  0  0999 V2000
    1.5482   -0.3111   41.9233 C   0  0  0  0  0  0  0  0  0  0  0  0
    2.7284    0.2018   42.1525 N   0  0  0  0  0  0  0  0  0  0  0  0
    3.7893   -0.3016   42.7005 C   0  0  0  0  0  0  0  0  0  0  0  0
    3.3781   -1.7350   43.0000 C   0  0  0  0  0  0  0  0  0  0  0  0
    2.0339   -1.9619   42.6217 C   0  0  0  0  0  0  0  0  0  0  0  0
    4.1166   -2.4997   43.8458 C   0  0  0  0  0  0  0  0  0  0  0  0
    1.1731   -3.0051   42.5773 C   0  0  0  0  0  0  0  0  0  0  0  0
    0.4701   -3.2344   41.4901 C   0  0  0  0  0  0  0  0  0  0  0  0
    5.3799   -1.7814   44.2691 C   0  0  0  0  0  0  0  0  0  0  0  0
    5.0159   -0.0180   43.1201 N   0  0  0  0  0  0  0  0  0  0  0  0
    5.7693   -0.6937   43.8418 C   0  0  0  0  0  0  0  0  0  0  0  0
    0.8078   -3.6166   43.6782 C   0  0  0  0  0  0  0  0  0  0  0  0
    0.0663   -4.7011   43.7415 N   0  0  0  0  0  0  0  0  0  0  0  0
    6.2223   -2.6843   45.1565 C   0  0  0  0  0  0  0  0  0  0  0  0
    6.9599   -0.2351   44.2608 N   0  0  0  0  0  0  0  0  0  0  0  0
    5.9065   -3.9037   45.7499 N   0  0  0  0  0  0  0  0  0  0  0  0
   -0.5459   -5.1185   42.5870 C   0  0  0  0  0  0  0  0  0  0  0  0
    5.7480   -4.0340   46.9810 C   0  0  0  0  0  0  0  0  0  0  0  0
    7.4448   -1.8511   45.4198 C   0  0  0  0  0  0  0  0  0  0  0  0
    7.7572   -0.7827   45.0128 C   0  0  0  0  0  0  0  0  0  0  0  0
    8.4076   -2.7217   46.4541 C   0  0  0  0  0  0  0  0  0  0  0  0
    9.3167   -2.0988   47.1049 N   0  0  0  0  0  0  0  0  0  0  0  0
   -0.4719   -4.3893   41.5406 C   0  0  0  0  0  0  0  0  0  0  0  0
    8.3667   -4.0284   46.5743 N   0  0  0  0  0  0  0  0  0  0  0  0
    9.5309   -4.3147   47.3094 C   0  0  0  0  0  0  0  0  0  0  0  0
    5.3113   -3.3789   47.8005 O   0  0  0  0  0  0  0  0  0  0  0  0
    9.9022   -5.6301   47.7684 C   0  0  0  0  0  0  0  0  0  0  0  0
    5.4470   -5.5868   47.2096 C   0  0  0  0  0  0  0  0  0  0  0  0
   11.2254   -5.8679   48.0402 C   0  0  0  0  0  0  0  0  0  0  0  0
    8.9736   -6.6532   47.8548 C   0  0  0  0  0  0  0  0  0  0  0  0
   10.0616   -3.0670   47.6360 C   0  0  0  0  0  0  0  0  0  0  0  0
    7.5566   -6.3564   47.5477 N   0  0  0  0  0  0  0  0  0  0  0  0
    6.4157   -6.1721   48.0913 C   0  0  0  0  0  0  0  0  0  0  0  0
   12.3275   -4.8510   47.9324 C   0  0  0  0  0  0  0  0  0  0  0  0
    9.4585   -7.9662   48.0726 C   0  0  0  0  0  0  0  0  0  0  0  0
   11.5288   -2.7910   48.1740 C   0  0  0  0  0  0  0  0  0  0  0  0
   11.6989   -7.1590   48.3688 C   0  0  0  0  0  0  0  0  0  0  0  0
   12.2755   -3.6526   48.1917 N   0  0  0  0  0  0  0  0  0  0  0  0
   10.7934   -8.1178   48.3989 C   0  0  0  0  0  0  0  0  0  0  0  0
  1  2  1  0
  2  3  2  0
  3  4  1  0
  1  5  2  0
  4  5  1  0
  4  6  2  0
  5  7  1  0
  7  8  2  0
  6  9  1  0
  3 10  1  0
  9 11  2  0
 10 11  1  0
  7 12  1  0
 12 13  2  0
  9 14  1  0
 11 15  1  0
 14 16  1  0
 13 17  1  0
 16 18  1  0
 14 19  2  0
 15 20  2  0
 19 20  1  0
 19 21  1  0
 21 22  2  0
  8 23  1  0
 17 23  2  0
 21 24  1  0
 24 25  1  0
 18 26  2  0
 25 27  1  0
 18 28  1  0
 27 29  2  0
 27 30  1  0
 22 31  1  0
 25 31  2  0
 30 32  1  0
 28 33  1  0
 32 33  1  0
 29 34  1  0
 30 35  2  0
 31 36  1  0
 29 37  1  0
 34 38  1  0
 36 38  2  0
 35 39  1  0
 37 39  2  0
M  END
$$$$
O14757_Pocket2Mol_idx-in-all-generaetd-701
     RDKit          3D

 29 34  0  0  0  0  0  0  0  0999 V2000
    2.2608    0.0351   42.1039 C   0  0  0  0  0  0  0  0  0  0  0  0
    2.7906   -1.0673   42.3987 N   0  0  0  0  0  0  0  0  0  0  0  0
    3.1210    0.9973   42.3040 N   0  0  0  0  0  0  0  0  0  0  0  0
    4.0827   -0.7954   42.9700 C   0  0  0  0  0  0  0  0  0  0  0  0
    4.9955   -1.7234   43.5259 N   0  0  0  0  0  0  0  0  0  0  0  0
    4.5382   -2.7016   44.3398 C   0  0  1  0  0  0  0  0  0  0  0  0
    5.3738   -2.9294   45.5228 C   0  0  2  0  0  0  0  0  0  0  0  0
    6.6133   -2.1566   45.5018 C   0  0  0  0  0  0  0  0  0  0  0  0
    4.2841    0.3926   42.8877 N   0  0  0  0  0  0  0  0  0  0  0  0
    5.4441   -4.2364   45.9837 C   0  0  1  0  0  0  0  0  0  0  0  0
    1.9678   -2.2711   42.4114 C   0  0  0  0  0  0  0  0  0  0  0  0
    7.1399   -1.4316   44.7431 O   0  0  0  0  0  0  0  0  0  0  0  0
    7.4936   -2.5586   46.5441 N   0  0  0  0  0  0  0  0  0  0  0  0
    5.8242   -4.4706   47.3868 C   0  0  0  0  0  0  0  0  0  0  0  0
    1.0261   -2.3754   41.4347 C   0  0  0  0  0  0  0  0  0  0  0  0
    0.1189   -3.5468   41.4614 C   0  0  0  0  0  0  0  0  0  0  0  0
    2.2389   -3.3785   43.2951 C   0  0  0  0  0  0  0  0  0  0  0  0
    3.3150   -3.3216   44.2621 C   0  0  0  0  0  0  0  0  0  0  0  0
   -0.9323   -3.5979   40.4982 O   0  0  0  0  0  0  0  0  0  0  0  0
    8.8055   -2.0091   46.8034 C   0  0  0  0  0  0  0  0  0  0  0  0
    7.0119   -3.4413   47.6500 C   0  0  0  0  0  0  0  0  0  0  0  0
    0.3294   -4.4619   42.4220 C   0  0  0  0  0  0  0  0  0  0  0  0
    3.1995   -4.5605   45.1503 C   0  0  0  0  0  0  0  0  0  0  0  0
    9.6716   -2.6832   47.3986 C   0  0  0  0  0  0  0  0  0  0  0  0
    1.4145   -4.2960   43.3909 C   0  0  0  0  0  0  0  0  0  0  0  0
    1.4730   -5.2995   44.3878 C   0  0  0  0  0  0  0  0  0  0  0  0
    8.6034   -0.6471   47.5395 C   0  0  0  0  0  0  0  0  0  0  0  0
    4.0960   -4.8509   45.9225 O   0  0  0  0  0  0  0  0  0  0  0  0
    2.3394   -5.4225   45.2516 C   0  0  0  0  0  0  0  0  0  0  0  0
  1  2  1  0
  1  3  2  0
  2  4  1  0
  4  5  1  0
  6  5  1  1
  6  7  1  0
  7  8  1  6
  3  9  1  0
  4  9  2  0
  7 10  1  0
  2 11  1  0
  8 12  2  0
  8 13  1  0
 10 14  1  1
 11 15  2  0
 15 16  1  0
 11 17  1  0
  6 18  1  0
 17 18  2  0
 16 19  1  0
 13 20  1  0
 13 21  1  0
 14 21  1  0
 16 22  2  0
 18 23  1  0
 20 24  1  0
 17 25  1  0
 22 25  1  0
 25 26  2  0
 20 27  1  0
 10 28  1  0
 23 28  1  0
 23 29  2  0
 26 29  1  0
M  END
$$$$
O14757_Pocket2Mol_idx-in-all-generaetd-702
     RDKit          3D

 48 56  0  0  0  0  0  0  0  0999 V2000
    5.3420    0.2589   42.8836 O   0  0  0  0  0  0  0  0  0  0  0  0
    5.1627   -0.7554   43.4753 C   0  0  0  0  0  0  0  0  0  0  0  0
    4.0509   -1.4657   43.4177 N   0  0  0  0  0  0  0  0  0  0  0  0
    5.9969   -1.2317   44.6840 C   0  0  0  0  0  0  0  0  0  0  0  0
    2.9618   -1.1021   42.5918 C   0  0  1  0  0  0  0  0  0  0  0  0
    7.3392   -0.8596   44.8412 C   0  0  0  0  0  0  0  0  0  0  0  0
    1.9754   -2.0820   42.2741 C   0  0  0  0  0  0  0  0  0  0  0  0
    5.5910   -2.4282   45.3439 C   0  0  0  0  0  0  0  0  0  0  0  0
    6.5874   -2.9636   46.1581 C   0  0  0  0  0  0  0  0  0  0  0  0
    4.2763   -3.0680   45.0493 N   0  0  0  0  0  0  0  0  0  0  0  0
    3.6188   -2.5886   44.2024 C   0  0  0  0  0  0  0  0  0  0  0  0
    8.1921   -1.4071   45.7505 C   0  0  0  0  0  0  0  0  0  0  0  0
    1.0154   -1.8839   41.2980 C   0  0  0  0  0  0  0  0  0  0  0  0
    2.5720   -3.3564   43.9063 C   0  0  0  0  0  0  0  0  0  0  0  0
    0.2502   -2.8976   41.0751 C   0  0  0  0  0  0  0  0  0  0  0  0
    6.1761   -4.1775   47.0209 C   0  0  0  0  0  0  0  0  0  0  0  0
    1.7266   -3.1047   43.0115 C   0  0  2  0  0  0  0  0  0  0  0  0
    2.3696   -4.5367   44.7536 N   0  0  0  0  0  0  0  0  0  0  0  0
    1.2264   -5.2346   44.4693 C   0  0  0  0  0  0  0  0  0  0  0  0
    0.7187   -3.8955   42.5465 C   0  0  0  0  0  0  0  0  0  0  0  0
    9.4576   -0.8949   46.0327 N   0  0  0  0  0  0  0  0  0  0  0  0
    0.8625   -6.3901   45.2462 C   0  0  0  0  0  0  0  0  0  0  0  0
    7.6467   -2.5139   46.4892 C   0  0  0  0  0  0  0  0  0  0  0  0
   10.4908   -1.5336   45.8242 C   0  0  0  0  0  0  0  0  0  0  0  0
    0.3057   -4.9299   43.2909 C   0  0  0  0  0  0  0  0  0  0  0  0
   11.5916   -1.4291   46.7436 C   0  0  0  0  0  0  0  0  0  0  0  0
   10.5566   -2.3672   44.8649 O   0  0  0  0  0  0  0  0  0  0  0  0
    2.4730    0.2084   42.8389 O   0  0  0  0  0  0  0  0  0  0  0  0
   11.6027   -2.2081   47.7725 N   0  0  0  0  0  0  0  0  0  0  0  0
   12.6189   -0.5862   46.5415 C   0  0  0  0  0  0  0  0  0  0  0  0
   13.6413   -0.4484   47.4129 C   0  0  0  0  0  0  0  0  0  0  0  0
   10.4764   -3.1097   48.1134 C   0  0  0  0  0  0  0  0  0  0  0  0
    9.5762   -2.4717   49.0753 C   0  0  0  0  0  0  0  0  0  0  0  0
    9.7761   -1.2394   49.5167 C   0  0  0  0  0  0  0  0  0  0  0  0
    8.6397   -3.3252   49.7339 C   0  0  0  0  0  0  0  0  0  0  0  0
    8.9861   -0.7034   50.5819 C   0  0  0  0  0  0  0  0  0  0  0  0
   14.7137    0.5128   47.0925 C   0  0  0  0  0  0  0  0  0  0  0  0
    8.1815   -1.5423   51.2387 C   0  0  0  0  0  0  0  0  0  0  0  0
    8.4156   -4.7176   49.2102 O   0  0  0  0  0  0  0  0  0  0  0  0
   13.6915   -1.2597   48.4795 C   0  0  0  0  0  0  0  0  0  0  0  0
   14.7842   -1.1839   49.3622 C   0  0  0  0  0  0  0  0  0  0  0  0
   12.5774   -2.1710   48.6835 C   0  0  0  0  0  0  0  0  0  0  0  0
    7.9848   -2.9066   50.8049 C   0  0  0  0  0  0  0  0  0  0  0  0
   15.8048   -0.2210   49.1389 C   0  0  0  0  0  0  0  0  0  0  0  0
   16.9217   -0.0644   50.0099 O   0  0  0  0  0  0  0  0  0  0  0  0
   15.7311    0.6187   48.0063 C   0  0  0  0  0  0  0  0  0  0  0  0
    7.1839   -5.2252   49.3646 C   0  0  0  0  0  0  0  0  0  0  0  0
    6.6953   -4.9894   47.9749 C   0  0  0  0  0  0  0  0  0  0  0  0
  1  2  2  0
  2  3  1  0
  2  4  1  0
  3  5  1  0
  4  6  2  0
  5  7  1  0
  4  8  1  0
  8  9  2  0
  8 10  1  0
  3 11  1  0
 10 11  2  0
  6 12  1  0
  7 13  2  0
 11 14  1  0
 13 15  1  0
  9 16  1  0
 17  7  1  6
 14 17  1  0
 14 18  2  0
 18 19  1  0
 15 20  2  0
 17 20  1  0
 12 21  1  0
 19 22  1  0
  9 23  1  0
 12 23  2  0
 21 24  1  0
 19 25  2  0
 20 25  1  0
 24 26  1  0
 24 27  2  0
  5 28  1  1
 26 29  1  0
 26 30  2  0
 30 31  1  0
 29 32  1  0
 32 33  1  0
 33 34  1  0
 33 35  2  0
 34 36  2  0
 31 37  2  0
 36 38  1  0
 35 39  1  0
 31 40  1  0
 40 41  2  0
 29 42  1  0
 40 42  1  0
 35 43  1  0
 38 43  2  0
 41 44  1  0
 44 45  1  0
 37 46  1  0
 44 46  2  0
 39 47  1  0
 16 48  2  3
 47 48  1  0
M  END
$$$$
O14757_Pocket2Mol_idx-in-all-generaetd-703
     RDKit          3D

 43 50  0  0  0  0  0  0  0  0999 V2000
    1.5482   -0.3111   41.9233 C   0  0  0  0  0  0  0  0  0  0  0  0
    2.7284    0.2018   42.1525 N   0  0  0  0  0  0  0  0  0  0  0  0
    3.7893   -0.3016   42.7005 C   0  0  0  0  0  0  0  0  0  0  0  0
    3.3781   -1.7350   43.0000 C   0  0  0  0  0  0  0  0  0  0  0  0
    2.0339   -1.9619   42.6217 C   0  0  0  0  0  0  0  0  0  0  0  0
    4.1166   -2.4997   43.8458 C   0  0  0  0  0  0  0  0  0  0  0  0
    1.1731   -3.0051   42.5773 C   0  0  0  0  0  0  0  0  0  0  0  0
    0.4701   -3.2344   41.4901 C   0  0  0  0  0  0  0  0  0  0  0  0
    5.3799   -1.7814   44.2691 C   0  0  0  0  0  0  0  0  0  0  0  0
    5.0159   -0.0180   43.1201 N   0  0  0  0  0  0  0  0  0  0  0  0
    5.7693   -0.6937   43.8418 C   0  0  0  0  0  0  0  0  0  0  0  0
    0.8078   -3.6166   43.6782 C   0  0  0  0  0  0  0  0  0  0  0  0
    0.0663   -4.7011   43.7415 N   0  0  0  0  0  0  0  0  0  0  0  0
    6.2223   -2.6843   45.1565 C   0  0  0  0  0  0  0  0  0  0  0  0
    6.9599   -0.2351   44.2608 N   0  0  0  0  0  0  0  0  0  0  0  0
    5.9065   -3.9037   45.7499 N   0  0  0  0  0  0  0  0  0  0  0  0
   -0.5459   -5.1185   42.5870 C   0  0  0  0  0  0  0  0  0  0  0  0
    5.7480   -4.0340   46.9810 C   0  0  0  0  0  0  0  0  0  0  0  0
    7.4448   -1.8511   45.4198 C   0  0  0  0  0  0  0  0  0  0  0  0
    7.7572   -0.7827   45.0128 C   0  0  0  0  0  0  0  0  0  0  0  0
    8.4076   -2.7217   46.4541 C   0  0  0  0  0  0  0  0  0  0  0  0
    9.3167   -2.0988   47.1049 N   0  0  0  0  0  0  0  0  0  0  0  0
   -0.4719   -4.3893   41.5406 C   0  0  0  0  0  0  0  0  0  0  0  0
    8.3667   -4.0284   46.5743 N   0  0  0  0  0  0  0  0  0  0  0  0
    9.5309   -4.3147   47.3094 C   0  0  0  0  0  0  0  0  0  0  0  0
    5.3113   -3.3789   47.8005 O   0  0  0  0  0  0  0  0  0  0  0  0
    9.9022   -5.6301   47.7684 C   0  0  0  0  0  0  0  0  0  0  0  0
    5.4470   -5.5868   47.2096 C   0  0  0  0  0  0  0  0  0  0  0  0
   11.2254   -5.8679   48.0402 C   0  0  0  0  0  0  0  0  0  0  0  0
    8.9736   -6.6532   47.8548 C   0  0  0  0  0  0  0  0  0  0  0  0
   10.0616   -3.0670   47.6360 C   0  0  0  0  0  0  0  0  0  0  0  0
    7.5566   -6.3564   47.5477 N   0  0  0  0  0  0  0  0  0  0  0  0
    6.4157   -6.1721   48.0913 C   0  0  0  0  0  0  0  0  0  0  0  0
    9.3646   -7.8782   48.1671 C   0  0  0  0  0  0  0  0  0  0  0  0
   12.3073   -4.8526   47.9155 O   0  0  0  0  0  0  0  0  0  0  0  0
    8.3867   -8.9995   48.3228 O   0  0  0  0  0  0  0  0  0  0  0  0
   10.6917   -8.2049   48.5433 C   0  0  0  0  0  0  0  0  0  0  0  0
   12.7968   -4.6411   46.6392 C   0  0  0  0  0  0  0  0  0  0  0  0
    8.8401  -10.2441   47.9995 C   0  0  2  0  0  0  0  0  0  0  0  0
   11.1416   -9.5354   48.9384 O   0  0  0  0  0  0  0  0  0  0  0  0
   11.7867   -7.1776   48.4840 C   0  0  0  0  0  0  0  0  0  0  0  0
    7.7980  -11.1727   48.1892 C   0  0  0  0  0  0  0  0  0  0  0  0
   10.1316  -10.5012   48.9513 C   0  0  0  0  0  0  0  0  0  0  0  0
  1  2  1  0
  2  3  2  0
  3  4  1  0
  1  5  2  0
  4  5  1  0
  4  6  2  0
  5  7  1  0
  7  8  2  0
  6  9  1  0
  3 10  1  0
  9 11  2  0
 10 11  1  0
  7 12  1  0
 12 13  2  0
  9 14  1  0
 11 15  1  0
 14 16  1  0
 13 17  1  0
 16 18  1  0
 14 19  2  0
 15 20  2  0
 19 20  1  0
 19 21  1  0
 21 22  2  0
  8 23  1  0
 17 23  2  0
 21 24  1  0
 24 25  1  0
 18 26  2  0
 25 27  1  0
 18 28  1  0
 27 29  2  0
 27 30  1  0
 22 31  1  0
 25 31  2  0
 30 32  1  0
 28 33  1  0
 32 33  1  0
 30 34  2  0
 29 35  1  0
 34 36  1  0
 34 37  1  0
 35 38  1  0
 36 39  1  0
 37 40  1  0
 29 41  1  0
 37 41  2  0
 39 42  1  1
 39 43  1  0
 40 43  1  0
M  END
$$$$
O14757_Pocket2Mol_idx-in-all-generaetd-704
     RDKit          3D

 45 53  0  0  0  0  0  0  0  0999 V2000
    1.5482   -0.3111   41.9233 C   0  0  0  0  0  0  0  0  0  0  0  0
    2.7284    0.2018   42.1525 N   0  0  0  0  0  0  0  0  0  0  0  0
    3.7893   -0.3016   42.7005 C   0  0  0  0  0  0  0  0  0  0  0  0
    3.3781   -1.7350   43.0000 C   0  0  0  0  0  0  0  0  0  0  0  0
    2.0339   -1.9619   42.6217 C   0  0  0  0  0  0  0  0  0  0  0  0
    5.0090    0.1219   42.9340 N   0  0  0  0  0  0  0  0  0  0  0  0
    4.2895   -2.4979   43.6707 C   0  0  0  0  0  0  0  0  0  0  0  0
    5.8391   -0.6675   43.6343 C   0  0  0  0  0  0  0  0  0  0  0  0
    6.9849   -0.2377   44.0028 N   0  0  0  0  0  0  0  0  0  0  0  0
    4.0426   -3.8794   44.0832 C   0  0  0  0  0  0  0  0  0  0  0  0
    7.6796   -0.8734   44.9326 C   0  0  0  0  0  0  0  0  0  0  0  0
    1.1064   -2.9576   42.4211 C   0  0  0  0  0  0  0  0  0  0  0  0
    5.5298   -1.9496   44.0315 C   0  0  0  0  0  0  0  0  0  0  0  0
    3.8954   -4.1817   45.4718 C   0  0  0  0  0  0  0  0  0  0  0  0
    0.6765   -3.5480   43.4006 C   0  0  1  0  0  0  0  0  0  0  0  0
    0.5804   -3.2191   41.1635 C   0  0  0  0  0  0  0  0  0  0  0  0
    2.8083   -4.8227   45.9203 N   0  0  0  0  0  0  0  0  0  0  0  0
   -0.1574   -4.5754   42.9329 N   0  0  0  0  0  0  0  0  0  0  0  0
    6.5271   -2.5531   44.9677 C   0  0  0  0  0  0  0  0  0  0  0  0
   -0.2272   -4.3703   41.5137 C   0  0  0  0  0  0  0  0  0  0  0  0
    7.5095   -2.0029   45.3993 C   0  0  0  0  0  0  0  0  0  0  0  0
    8.2550   -2.6982   46.3988 C   0  0  2  0  0  0  0  0  0  0  0  0
    8.8975   -0.3029   45.3267 O   0  0  0  0  0  0  0  0  0  0  0  0
    4.8299   -4.4637   46.4212 C   0  0  0  0  0  0  0  0  0  0  0  0
    4.2707   -4.9248   47.6295 N   0  0  0  0  0  0  0  0  0  0  0  0
    3.2045   -5.2092   47.1521 C   0  0  0  0  0  0  0  0  0  0  0  0
    1.4482   -4.6186   45.4134 C   0  0  2  0  0  0  0  0  0  0  0  0
    1.2398   -3.5043   44.6236 O   0  0  0  0  0  0  0  0  0  0  0  0
    6.3317   -3.9297   46.0870 C   0  0  2  0  0  0  0  0  0  0  0  0
    9.5296   -2.5449   46.9776 C   0  0  0  0  0  0  0  0  0  0  0  0
    9.7921   -1.7530   47.9018 O   0  0  0  0  0  0  0  0  0  0  0  0
    7.4454   -3.8344   46.8035 C   0  0  0  0  0  0  0  0  0  0  0  0
   10.5010   -3.0847   46.3190 O   0  0  0  0  0  0  0  0  0  0  0  0
    0.5569   -4.7693   46.5649 C   0  0  0  0  0  0  0  0  0  0  0  0
   11.7452   -2.8462   46.6234 C   0  0  0  0  0  0  0  0  0  0  0  0
   12.4344   -1.8951   45.7393 C   0  0  0  0  0  0  0  0  0  0  0  0
   12.4612   -3.5429   47.5581 C   0  0  0  0  0  0  0  0  0  0  0  0
   11.7737   -4.5216   48.4115 C   0  0  0  0  0  0  0  0  0  0  0  0
   11.7935   -5.7538   48.0263 C   0  0  0  0  0  0  0  0  0  0  0  0
   13.8063   -3.2053   47.6588 C   0  0  0  0  0  0  0  0  0  0  0  0
   13.7637   -1.6546   45.8843 C   0  0  0  0  0  0  0  0  0  0  0  0
   14.4057   -0.6923   45.0481 C   0  0  0  0  0  0  0  0  0  0  0  0
   14.6389   -3.8708   48.7315 O   0  0  0  0  0  0  0  0  0  0  0  0
   14.4703   -2.3101   46.8961 C   0  0  0  0  0  0  0  0  0  0  0  0
   11.6093   -6.0133   46.7730 O   0  0  0  0  0  0  0  0  0  0  0  0
  1  2  1  0
  2  3  2  0
  3  4  1  0
  1  5  2  0
  4  5  1  0
  3  6  1  0
  4  7  2  0
  6  8  1  0
  8  9  1  0
  7 10  1  0
  9 11  1  0
  5 12  1  0
  7 13  1  0
  8 13  2  0
 10 14  1  0
 12 15  1  0
 12 16  2  0
 14 17  1  0
 15 18  1  0
 13 19  1  0
 16 20  1  0
 18 20  2  0
 11 21  1  0
 19 21  2  0
 21 22  1  0
 11 23  2  0
 14 24  2  0
 24 25  1  0
 17 26  1  0
 25 26  2  0
 17 27  1  0
 15 28  1  6
 27 28  1  0
 19 29  1  0
 24 29  1  0
 22 30  1  6
 30 31  2  0
 22 32  1  0
 29 32  1  1
 30 33  1  0
 27 34  1  1
 33 35  1  0
 35 36  2  0
 35 37  1  0
 37 38  1  0
 38 39  1  0
 37 40  2  0
 36 41  1  0
 41 42  1  0
 40 43  1  0
 40 44  1  0
 41 44  2  0
 39 45  1  0
M  END
$$$$
O14757_Pocket2Mol_idx-in-all-generaetd-705
     RDKit          3D

 31 36  0  0  0  0  0  0  0  0999 V2000
    5.3420    0.2589   42.8836 N   0  0  0  0  0  0  0  0  0  0  0  0
    5.6740   -0.8311   43.5645 C   0  0  0  0  0  0  0  0  0  0  0  0
    6.8416   -0.9240   44.3627 N   0  0  0  0  0  0  0  0  0  0  0  0
    4.1141    0.2821   42.2689 C   0  0  0  0  0  0  0  0  0  0  0  0
    3.2237   -0.7484   42.3921 N   0  0  0  0  0  0  0  0  0  0  0  0
    6.8097   -1.9585   45.3182 C   0  0  0  0  0  0  0  0  0  0  0  0
    3.5007   -1.8060   43.1511 C   0  0  0  0  0  0  0  0  0  0  0  0
    4.7020   -1.8573   43.8328 C   0  0  0  0  0  0  0  0  0  0  0  0
    5.4887   -2.6670   44.9856 C   0  0  0  0  0  0  0  0  0  0  0  0
    2.5208   -2.8458   43.2671 C   0  0  0  0  0  0  0  0  0  0  0  0
    2.6558   -3.8570   44.2541 C   0  0  0  0  0  0  0  0  0  0  0  0
    7.6468   -2.3589   46.2854 C   0  0  0  0  0  0  0  0  0  0  0  0
    3.8579   -4.1296   44.9532 N   0  0  0  0  0  0  0  0  0  0  0  0
    1.3096   -2.7520   42.6410 C   0  0  0  0  0  0  0  0  0  0  0  0
    4.9776   -3.8402   45.4939 C   0  0  0  0  0  0  0  0  0  0  0  0
    8.7023   -1.6088   46.4743 C   0  0  0  0  0  0  0  0  0  0  0  0
    9.5984   -1.8433   47.5139 C   0  0  0  0  0  0  0  0  0  0  0  0
    7.3782   -3.4221   47.2077 C   0  0  0  0  0  0  0  0  0  0  0  0
    1.5977   -4.7338   44.4801 C   0  0  0  0  0  0  0  0  0  0  0  0
    1.0668   -1.7644   41.4981 C   0  0  0  0  0  0  0  0  0  0  0  0
   10.8175   -0.9959   47.6882 O   0  0  0  0  0  0  0  0  0  0  0  0
   11.6053   -1.2371   48.6095 C   0  0  0  0  0  0  0  0  0  0  0  0
    0.3244   -3.6976   42.8655 C   0  0  0  0  0  0  0  0  0  0  0  0
   -0.8593   -3.6685   42.0130 N   0  0  0  0  0  0  0  0  0  0  0  0
    1.8517   -5.8131   45.4828 O   0  0  0  0  0  0  0  0  0  0  0  0
    0.4775   -4.6810   43.7729 C   0  0  0  0  0  0  0  0  0  0  0  0
    0.8739   -6.6382   45.6662 C   0  0  0  0  0  0  0  0  0  0  0  0
   -1.0916   -2.5994   41.2602 C   0  0  0  0  0  0  0  0  0  0  0  0
    9.4106   -2.8763   48.3313 C   0  0  0  0  0  0  0  0  0  0  0  0
    8.3602   -3.6255   48.2808 C   0  0  0  0  0  0  0  0  0  0  0  0
    0.0105   -1.5794   41.1168 C   0  0  0  0  0  0  0  0  0  0  0  0
  1  2  2  0
  2  3  1  0
  1  4  1  0
  4  5  2  0
  3  6  1  0
  5  7  1  0
  2  8  1  0
  7  8  2  0
  6  9  2  0
  8  9  1  0
  7 10  1  0
 10 11  2  0
  6 12  1  0
 11 13  1  0
 10 14  1  0
  9 15  1  0
 13 15  1  0
 12 16  2  0
 16 17  1  0
 12 18  1  0
 11 19  1  0
 14 20  1  0
 17 21  1  0
 21 22  1  0
 14 23  2  0
 23 24  1  0
 19 25  1  0
 19 26  2  0
 23 26  1  0
 25 27  1  0
 24 28  1  0
 17 29  2  0
 18 30  2  0
 29 30  1  0
 20 31  1  0
 28 31  2  0
M  END
$$$$
O14757_Pocket2Mol_idx-in-all-generaetd-706
     RDKit          3D

 36 41  0  0  0  0  0  0  0  0999 V2000
    1.5482   -0.3111   41.9233 C   0  0  0  0  0  0  0  0  0  0  0  0
    2.7284    0.2018   42.1525 N   0  0  0  0  0  0  0  0  0  0  0  0
    3.7893   -0.3016   42.7005 C   0  0  0  0  0  0  0  0  0  0  0  0
    3.3781   -1.7350   43.0000 C   0  0  0  0  0  0  0  0  0  0  0  0
    2.0339   -1.9619   42.6217 C   0  0  0  0  0  0  0  0  0  0  0  0
    4.1166   -2.4997   43.8458 C   0  0  0  0  0  0  0  0  0  0  0  0
    1.1731   -3.0051   42.5773 C   0  0  0  0  0  0  0  0  0  0  0  0
    0.4701   -3.2344   41.4901 C   0  0  0  0  0  0  0  0  0  0  0  0
    5.3799   -1.7814   44.2691 C   0  0  0  0  0  0  0  0  0  0  0  0
    5.0159   -0.0180   43.1201 N   0  0  0  0  0  0  0  0  0  0  0  0
    5.7693   -0.6937   43.8418 C   0  0  0  0  0  0  0  0  0  0  0  0
    0.8078   -3.6166   43.6782 C   0  0  0  0  0  0  0  0  0  0  0  0
    0.0663   -4.7011   43.7415 N   0  0  0  0  0  0  0  0  0  0  0  0
    6.2223   -2.6843   45.1565 C   0  0  0  0  0  0  0  0  0  0  0  0
    6.9599   -0.2351   44.2608 N   0  0  0  0  0  0  0  0  0  0  0  0
    5.9065   -3.9037   45.7499 N   0  0  0  0  0  0  0  0  0  0  0  0
   -0.5459   -5.1185   42.5870 C   0  0  0  0  0  0  0  0  0  0  0  0
    5.7480   -4.0340   46.9810 C   0  0  0  0  0  0  0  0  0  0  0  0
    7.4448   -1.8511   45.4198 C   0  0  0  0  0  0  0  0  0  0  0  0
    7.7572   -0.7827   45.0128 C   0  0  0  0  0  0  0  0  0  0  0  0
    8.4076   -2.7217   46.4541 C   0  0  0  0  0  0  0  0  0  0  0  0
    9.3167   -2.0988   47.1049 N   0  0  0  0  0  0  0  0  0  0  0  0
   -0.4719   -4.3893   41.5406 C   0  0  0  0  0  0  0  0  0  0  0  0
    8.3667   -4.0284   46.5743 N   0  0  0  0  0  0  0  0  0  0  0  0
   10.1532   -2.5726   47.9567 C   0  0  0  0  0  0  0  0  0  0  0  0
   11.0726   -1.7892   48.6998 C   0  0  0  0  0  0  0  0  0  0  0  0
   10.4886   -0.9372   49.4584 C   0  0  0  0  0  0  0  0  0  0  0  0
   10.2139   -3.8947   48.0407 C   0  0  0  0  0  0  0  0  0  0  0  0
    6.6188   -4.9855   47.3969 N   0  0  0  0  0  0  0  0  0  0  0  0
    5.1401   -3.1961   47.7242 O   0  0  0  0  0  0  0  0  0  0  0  0
    9.2230   -4.6492   47.2923 C   0  0  0  0  0  0  0  0  0  0  0  0
   11.2455   -0.1560   50.3763 C   0  0  0  0  0  0  0  0  0  0  0  0
   12.4527   -1.8809   48.5193 C   0  0  0  0  0  0  0  0  0  0  0  0
   13.2628   -1.1157   49.2635 C   0  0  0  0  0  0  0  0  0  0  0  0
   14.7128   -1.1773   49.1753 C   0  0  0  0  0  0  0  0  0  0  0  0
   12.7788   -0.2706   50.2544 C   0  0  0  0  0  0  0  0  0  0  0  0
  1  2  1  0
  2  3  2  0
  3  4  1  0
  1  5  2  0
  4  5  1  0
  4  6  2  0
  5  7  1  0
  7  8  2  0
  6  9  1  0
  3 10  1  0
  9 11  2  0
 10 11  1  0
  7 12  1  0
 12 13  2  0
  9 14  1  0
 11 15  1  0
 14 16  1  0
 13 17  1  0
 16 18  1  0
 14 19  2  0
 15 20  2  0
 19 20  1  0
 19 21  1  0
 21 22  2  0
  8 23  1  0
 17 23  2  0
 21 24  1  0
 22 25  1  0
 25 26  1  0
 26 27  2  0
 25 28  2  0
 18 29  1  0
 18 30  2  0
 24 31  2  0
 28 31  1  0
 27 32  1  0
 26 33  1  0
 33 34  2  0
 34 35  1  0
 32 36  2  0
 34 36  1  0
M  END
$$$$
O14757_Pocket2Mol_idx-in-all-generaetd-707
     RDKit          3D

 50 58  0  0  0  0  0  0  0  0999 V2000
    5.3420    0.2589   42.8836 O   0  0  0  0  0  0  0  0  0  0  0  0
    5.1627   -0.7554   43.4753 C   0  0  0  0  0  0  0  0  0  0  0  0
    4.0509   -1.4657   43.4177 N   0  0  0  0  0  0  0  0  0  0  0  0
    5.9969   -1.2317   44.6840 C   0  0  0  0  0  0  0  0  0  0  0  0
    2.9618   -1.1021   42.5918 C   0  0  1  0  0  0  0  0  0  0  0  0
    7.3392   -0.8596   44.8412 C   0  0  0  0  0  0  0  0  0  0  0  0
    1.9754   -2.0820   42.2741 C   0  0  0  0  0  0  0  0  0  0  0  0
    5.5910   -2.4282   45.3439 C   0  0  0  0  0  0  0  0  0  0  0  0
    6.5874   -2.9636   46.1581 C   0  0  0  0  0  0  0  0  0  0  0  0
    4.2763   -3.0680   45.0493 N   0  0  0  0  0  0  0  0  0  0  0  0
    3.6188   -2.5886   44.2024 C   0  0  0  0  0  0  0  0  0  0  0  0
    8.1921   -1.4071   45.7505 C   0  0  0  0  0  0  0  0  0  0  0  0
    1.0154   -1.8839   41.2980 C   0  0  0  0  0  0  0  0  0  0  0  0
    2.5720   -3.3564   43.9063 C   0  0  0  0  0  0  0  0  0  0  0  0
    0.2502   -2.8976   41.0751 C   0  0  0  0  0  0  0  0  0  0  0  0
    6.1761   -4.1775   47.0209 C   0  0  0  0  0  0  0  0  0  0  0  0
    1.7266   -3.1047   43.0115 C   0  0  2  0  0  0  0  0  0  0  0  0
    2.3696   -4.5367   44.7536 N   0  0  0  0  0  0  0  0  0  0  0  0
    1.2264   -5.2346   44.4693 C   0  0  0  0  0  0  0  0  0  0  0  0
    0.7187   -3.8955   42.5465 C   0  0  0  0  0  0  0  0  0  0  0  0
    9.4576   -0.8949   46.0327 N   0  0  0  0  0  0  0  0  0  0  0  0
    0.8625   -6.3901   45.2462 C   0  0  0  0  0  0  0  0  0  0  0  0
    7.6467   -2.5139   46.4892 C   0  0  0  0  0  0  0  0  0  0  0  0
   10.4908   -1.5336   45.8242 C   0  0  0  0  0  0  0  0  0  0  0  0
    0.3057   -4.9299   43.2909 C   0  0  0  0  0  0  0  0  0  0  0  0
   11.5916   -1.4291   46.7436 C   0  0  0  0  0  0  0  0  0  0  0  0
   10.5566   -2.3672   44.8649 O   0  0  0  0  0  0  0  0  0  0  0  0
    2.4730    0.2084   42.8389 O   0  0  0  0  0  0  0  0  0  0  0  0
   11.6027   -2.2081   47.7725 N   0  0  0  0  0  0  0  0  0  0  0  0
   12.6189   -0.5862   46.5415 C   0  0  0  0  0  0  0  0  0  0  0  0
   13.6413   -0.4484   47.4129 C   0  0  0  0  0  0  0  0  0  0  0  0
   10.4764   -3.1097   48.1134 C   0  0  0  0  0  0  0  0  0  0  0  0
    9.5762   -2.4717   49.0753 C   0  0  0  0  0  0  0  0  0  0  0  0
    9.7761   -1.2394   49.5167 C   0  0  0  0  0  0  0  0  0  0  0  0
    8.6397   -3.3252   49.7339 C   0  0  0  0  0  0  0  0  0  0  0  0
    8.9861   -0.7034   50.5819 C   0  0  0  0  0  0  0  0  0  0  0  0
   14.7137    0.5128   47.0925 C   0  0  0  0  0  0  0  0  0  0  0  0
    8.3536   -4.6815   49.2042 C   0  0  0  0  0  0  0  0  0  0  0  0
    7.9034   -2.7594   50.6763 C   0  0  0  0  0  0  0  0  0  0  0  0
    6.9327   -5.0150   49.0248 N   0  0  0  0  0  0  0  0  0  0  0  0
    8.1305   -1.4992   51.1482 C   0  0  0  0  0  0  0  0  0  0  0  0
    6.3852   -3.9495   48.3951 C   0  0  0  0  0  0  0  0  0  0  0  0
   13.6768   -1.2836   48.4696 C   0  0  0  0  0  0  0  0  0  0  0  0
   14.7714   -1.2324   49.3357 C   0  0  0  0  0  0  0  0  0  0  0  0
   14.6039    1.3613   46.0092 O   0  0  0  0  0  0  0  0  0  0  0  0
   15.6148    0.5183   47.8553 C   0  0  0  0  0  0  0  0  0  0  0  0
   16.7444    1.4655   47.6782 O   0  0  0  0  0  0  0  0  0  0  0  0
   14.9105   -2.0232   50.5582 O   0  0  0  0  0  0  0  0  0  0  0  0
   12.5783   -2.3703   48.7761 C   0  0  0  0  0  0  0  0  0  0  0  0
   15.8592   -0.2927   49.1837 C   0  0  0  0  0  0  0  0  0  0  0  0
  1  2  2  0
  2  3  1  0
  2  4  1  0
  3  5  1  0
  4  6  2  0
  5  7  1  0
  4  8  1  0
  8  9  2  0
  8 10  1  0
  3 11  1  0
 10 11  2  0
  6 12  1  0
  7 13  2  0
 11 14  1  0
 13 15  1  0
  9 16  1  0
 17  7  1  6
 14 17  1  0
 14 18  2  0
 18 19  1  0
 15 20  2  0
 17 20  1  0
 12 21  1  0
 19 22  1  0
  9 23  1  0
 12 23  2  0
 21 24  1  0
 19 25  2  0
 20 25  1  0
 24 26  1  0
 24 27  2  0
  5 28  1  1
 26 29  1  0
 26 30  2  0
 30 31  1  0
 29 32  1  0
 32 33  1  0
 33 34  1  0
 33 35  2  0
 34 36  2  0
 31 37  2  0
 35 38  1  0
 35 39  1  0
 38 40  1  0
 36 41  1  0
 39 41  2  0
 16 42  1  0
 40 42  1  0
 31 43  1  0
 43 44  2  0
 37 45  1  0
 37 46  1  0
 46 47  1  0
 44 48  1  0
 29 49  1  0
 43 49  1  0
 44 50  1  0
 46 50  2  0
M  END
$$$$
O14757_Pocket2Mol_idx-in-all-generaetd-708
     RDKit          3D

 32 38  0  0  0  0  0  0  0  0999 V2000
    5.3420    0.2589   42.8836 O   0  0  0  0  0  0  0  0  0  0  0  0
    5.1627   -0.7554   43.4753 C   0  0  0  0  0  0  0  0  0  0  0  0
    4.0509   -1.4657   43.4177 N   0  0  0  0  0  0  0  0  0  0  0  0
    5.9969   -1.2317   44.6840 C   0  0  0  0  0  0  0  0  0  0  0  0
    2.9618   -1.1021   42.5918 C   0  0  1  0  0  0  0  0  0  0  0  0
    7.3392   -0.8596   44.8412 C   0  0  0  0  0  0  0  0  0  0  0  0
    1.9754   -2.0820   42.2741 C   0  0  0  0  0  0  0  0  0  0  0  0
    5.5910   -2.4282   45.3439 C   0  0  0  0  0  0  0  0  0  0  0  0
    6.5874   -2.9636   46.1581 C   0  0  0  0  0  0  0  0  0  0  0  0
    4.2763   -3.0680   45.0493 N   0  0  0  0  0  0  0  0  0  0  0  0
    3.6188   -2.5886   44.2024 C   0  0  0  0  0  0  0  0  0  0  0  0
    8.1921   -1.4071   45.7505 C   0  0  0  0  0  0  0  0  0  0  0  0
    1.0154   -1.8839   41.2980 C   0  0  0  0  0  0  0  0  0  0  0  0
    2.5720   -3.3564   43.9063 C   0  0  0  0  0  0  0  0  0  0  0  0
    0.2502   -2.8976   41.0751 C   0  0  0  0  0  0  0  0  0  0  0  0
    6.1761   -4.1775   47.0209 C   0  0  0  0  0  0  0  0  0  0  0  0
    1.7266   -3.1047   43.0115 C   0  0  2  0  0  0  0  0  0  0  0  0
    2.3696   -4.5367   44.7536 N   0  0  0  0  0  0  0  0  0  0  0  0
    1.2264   -5.2346   44.4693 C   0  0  0  0  0  0  0  0  0  0  0  0
    0.7187   -3.8955   42.5465 C   0  0  0  0  0  0  0  0  0  0  0  0
    9.4576   -0.8949   46.0327 N   0  0  0  0  0  0  0  0  0  0  0  0
    2.4628    0.2076   42.7867 C   0  0  0  0  0  0  0  0  0  0  0  0
    0.9064   -6.4149   45.2248 C   0  0  0  0  0  0  0  0  0  0  0  0
    0.3107   -5.0600   43.3630 C   0  0  0  0  0  0  0  0  0  0  0  0
    7.8349   -2.4469   46.4709 C   0  0  0  0  0  0  0  0  0  0  0  0
   10.1474   -1.4478   46.9669 C   0  0  0  0  0  0  0  0  0  0  0  0
    9.6325   -2.5356   47.5734 C   0  0  0  0  0  0  0  0  0  0  0  0
    8.6297   -3.0621   47.3869 N   0  0  0  0  0  0  0  0  0  0  0  0
   10.6287   -3.1664   48.5942 C   0  0  0  0  0  0  0  0  0  0  0  0
   11.4696   -1.0741   47.0540 C   0  0  0  0  0  0  0  0  0  0  0  0
   12.3064   -1.6106   48.0138 C   0  0  0  0  0  0  0  0  0  0  0  0
   11.8578   -2.6596   48.7685 C   0  0  0  0  0  0  0  0  0  0  0  0
  1  2  2  0
  2  3  1  0
  2  4  1  0
  3  5  1  0
  4  6  2  0
  5  7  1  0
  4  8  1  0
  8  9  2  0
  8 10  1  0
  3 11  1  0
 10 11  2  0
  6 12  1  0
  7 13  2  0
 11 14  1  0
 13 15  1  0
  9 16  1  0
 17  7  1  6
 14 17  1  0
 14 18  2  0
 18 19  1  0
 15 20  2  0
 17 20  1  0
 12 21  1  0
  5 22  1  1
 19 23  1  0
 19 24  2  0
 20 24  1  0
  9 25  1  0
 12 25  2  0
 21 26  1  0
 26 27  1  0
 25 28  1  0
 27 28  2  0
 27 29  1  0
 26 30  2  0
 30 31  1  0
 29 32  1  0
 31 32  2  0
M  END
$$$$
O14757_Pocket2Mol_idx-in-all-generaetd-709
     RDKit          3D

 32 38  0  0  0  0  0  0  0  0999 V2000
    4.8173    0.2791   42.6993 N   0  0  0  0  0  0  0  0  0  0  0  0
    5.3297   -0.7477   43.3688 C   0  0  0  0  0  0  0  0  0  0  0  0
    3.4732   -0.2235   42.4530 C   0  0  0  0  0  0  0  0  0  0  0  0
    4.4984   -1.7876   43.6214 C   0  0  0  0  0  0  0  0  0  0  0  0
    3.3438   -1.5190   42.9379 C   0  0  0  0  0  0  0  0  0  0  0  0
    2.1381   -2.3401   42.8254 C   0  0  0  0  0  0  0  0  0  0  0  0
    2.3894    0.3572   41.9843 N   0  0  0  0  0  0  0  0  0  0  0  0
    4.9180   -3.0430   44.3829 C   0  0  0  0  0  0  0  0  0  0  0  0
    5.9444   -2.9314   45.3934 C   0  0  0  0  0  0  0  0  0  0  0  0
    4.2808   -4.1329   44.3252 C   0  0  0  0  0  0  0  0  0  0  0  0
    3.1588   -4.4221   43.4852 O   0  0  0  0  0  0  0  0  0  0  0  0
    4.5704   -5.2518   45.1995 C   0  0  0  0  0  0  0  0  0  0  0  0
    1.9853   -3.6792   43.3495 C   0  0  0  0  0  0  0  0  0  0  0  0
    0.9181   -4.3294   43.4638 C   0  0  0  0  0  0  0  0  0  0  0  0
    6.1667   -3.9106   46.0813 C   0  0  0  0  0  0  0  0  0  0  0  0
    0.9627   -1.7613   42.3940 C   0  0  0  0  0  0  0  0  0  0  0  0
    3.8296   -6.4325   45.0544 F   0  0  0  0  0  0  0  0  0  0  0  0
   -0.2646   -3.7780   42.9121 C   0  0  0  0  0  0  0  0  0  0  0  0
    5.4599   -5.1112   46.0385 C   0  0  0  0  0  0  0  0  0  0  0  0
    7.3541   -3.7011   47.1652 C   0  0  0  0  0  0  0  0  0  0  0  0
    8.4146   -3.0196   46.7433 C   0  0  0  0  0  0  0  0  0  0  0  0
   -0.2418   -2.6477   42.2606 C   0  0  0  0  0  0  0  0  0  0  0  0
    9.4363   -2.8670   47.5537 N   0  0  0  0  0  0  0  0  0  0  0  0
    7.1888   -3.9373   48.4854 C   0  0  0  0  0  0  0  0  0  0  0  0
    1.1532   -0.4164   41.8064 C   0  0  0  0  0  0  0  0  0  0  0  0
    5.9821   -4.5777   49.0534 C   0  0  0  0  0  0  0  0  0  0  0  0
    8.4188   -3.6387   49.1878 C   0  0  0  0  0  0  0  0  0  0  0  0
    8.2890   -4.0529   50.6903 N   0  0  0  0  0  0  0  0  0  0  0  0
    9.3498   -3.1752   48.8138 C   0  0  0  0  0  0  0  0  0  0  0  0
   10.5701   -2.8776   49.6029 C   0  0  0  0  0  0  0  0  0  0  0  0
    9.3649   -3.7635   51.4339 C   0  0  0  0  0  0  0  0  0  0  0  0
   10.4895   -3.1710   50.9403 C   0  0  0  0  0  0  0  0  0  0  0  0
  1  2  2  0
  1  3  1  0
  2  4  1  0
  3  5  1  0
  4  5  2  0
  5  6  1  0
  3  7  2  0
  4  8  1  0
  8  9  1  0
  8 10  2  0
 10 11  1  0
 10 12  1  0
  6 13  1  0
 11 13  1  0
 13 14  2  0
  9 15  2  0
  6 16  2  0
 12 17  1  0
 14 18  1  0
 12 19  2  0
 15 19  1  0
 15 20  1  0
 20 21  2  0
 16 22  1  0
 18 22  2  0
 21 23  1  0
 20 24  1  0
  7 25  1  0
 16 25  1  0
 24 26  1  0
 24 27  2  0
 27 28  1  0
 23 29  2  0
 27 29  1  0
 29 30  1  0
 28 31  2  0
 30 32  2  0
 31 32  1  0
M  END
$$$$
O14757_Pocket2Mol_idx-in-all-generaetd-710
     RDKit          3D

 48 57  0  0  0  0  0  0  0  0999 V2000
    1.5482   -0.3111   41.9233 C   0  0  0  0  0  0  0  0  0  0  0  0
    2.7284    0.2018   42.1525 N   0  0  0  0  0  0  0  0  0  0  0  0
    3.7893   -0.3016   42.7005 C   0  0  0  0  0  0  0  0  0  0  0  0
    3.3781   -1.7350   43.0000 C   0  0  0  0  0  0  0  0  0  0  0  0
    2.0339   -1.9619   42.6217 C   0  0  0  0  0  0  0  0  0  0  0  0
    5.0090    0.1219   42.9340 N   0  0  0  0  0  0  0  0  0  0  0  0
    4.2895   -2.4979   43.6707 C   0  0  0  0  0  0  0  0  0  0  0  0
    5.8391   -0.6675   43.6343 C   0  0  0  0  0  0  0  0  0  0  0  0
    6.9849   -0.2377   44.0028 N   0  0  0  0  0  0  0  0  0  0  0  0
    4.0426   -3.8794   44.0832 C   0  0  0  0  0  0  0  0  0  0  0  0
    7.6796   -0.8734   44.9326 C   0  0  0  0  0  0  0  0  0  0  0  0
    1.1064   -2.9576   42.4211 C   0  0  0  0  0  0  0  0  0  0  0  0
    5.5298   -1.9496   44.0315 C   0  0  0  0  0  0  0  0  0  0  0  0
    3.8954   -4.1817   45.4718 C   0  0  0  0  0  0  0  0  0  0  0  0
    0.6765   -3.5480   43.4006 C   0  0  1  0  0  0  0  0  0  0  0  0
    0.5804   -3.2191   41.1635 C   0  0  0  0  0  0  0  0  0  0  0  0
    2.8083   -4.8227   45.9203 N   0  0  0  0  0  0  0  0  0  0  0  0
   -0.1574   -4.5754   42.9329 N   0  0  0  0  0  0  0  0  0  0  0  0
    6.5271   -2.5531   44.9677 C   0  0  0  0  0  0  0  0  0  0  0  0
   -0.2272   -4.3703   41.5137 C   0  0  0  0  0  0  0  0  0  0  0  0
    7.5095   -2.0029   45.3993 C   0  0  0  0  0  0  0  0  0  0  0  0
    8.2550   -2.6982   46.3988 C   0  0  0  0  0  0  0  0  0  0  0  0
    8.8975   -0.3029   45.3267 O   0  0  0  0  0  0  0  0  0  0  0  0
    4.8299   -4.4637   46.4212 C   0  0  0  0  0  0  0  0  0  0  0  0
    4.2707   -4.9248   47.6295 N   0  0  0  0  0  0  0  0  0  0  0  0
    3.2045   -5.2092   47.1521 C   0  0  0  0  0  0  0  0  0  0  0  0
    1.4482   -4.6186   45.4134 C   0  0  1  0  0  0  0  0  0  0  0  0
    1.2398   -3.5043   44.6236 O   0  0  0  0  0  0  0  0  0  0  0  0
    6.3317   -3.9297   46.0870 C   0  0  2  0  0  0  0  0  0  0  0  0
    9.5296   -2.5449   46.9776 C   0  0  0  0  0  0  0  0  0  0  0  0
    9.7921   -1.7530   47.9018 O   0  0  0  0  0  0  0  0  0  0  0  0
    7.3972   -3.8130   46.7939 C   0  0  0  0  0  0  0  0  0  0  0  0
    1.2392   -5.7793   44.5610 C   0  0  0  0  0  0  0  0  0  0  0  0
   10.4982   -3.2564   46.4837 N   0  0  0  0  0  0  0  0  0  0  0  0
   10.3664   -4.3024   45.6489 C   0  0  0  0  0  0  0  0  0  0  0  0
   11.8563   -2.7253   46.7001 C   0  0  0  0  0  0  0  0  0  0  0  0
   12.5920   -2.4093   45.4967 C   0  0  0  0  0  0  0  0  0  0  0  0
   10.3017   -5.6302   46.4426 C   0  0  0  0  0  0  0  0  0  0  0  0
   13.9027   -1.9790   45.6656 C   0  0  0  0  0  0  0  0  0  0  0  0
   14.7333   -1.6417   44.4234 C   0  0  0  0  0  0  0  0  0  0  0  0
   14.3053   -1.7239   46.9264 C   0  0  0  0  0  0  0  0  0  0  0  0
   12.4281   -2.5370   47.7507 C   0  0  0  0  0  0  0  0  0  0  0  0
   15.7043   -1.1830   47.0302 C   0  0  0  0  0  0  0  0  0  0  0  0
   14.1084   -1.5720   43.2247 O   0  0  0  0  0  0  0  0  0  0  0  0
   15.9854   -1.3507   44.5478 N   0  0  0  0  0  0  0  0  0  0  0  0
   13.7246   -2.0564   47.9443 C   0  0  0  0  0  0  0  0  0  0  0  0
   16.5280   -1.0514   45.8384 C   0  0  0  0  0  0  0  0  0  0  0  0
   16.7909   -1.0237   43.3701 C   0  0  0  0  0  0  0  0  0  0  0  0
  1  2  1  0
  2  3  2  0
  3  4  1  0
  1  5  2  0
  4  5  1  0
  3  6  1  0
  4  7  2  0
  6  8  1  0
  8  9  1  0
  7 10  1  0
  9 11  1  0
  5 12  1  0
  7 13  1  0
  8 13  2  0
 10 14  1  0
 12 15  1  0
 12 16  2  0
 14 17  1  0
 15 18  1  0
 13 19  1  0
 16 20  1  0
 18 20  2  0
 11 21  1  0
 19 21  2  0
 21 22  1  0
 11 23  2  0
 14 24  2  0
 24 25  1  0
 17 26  1  0
 25 26  2  0
 17 27  1  0
 15 28  1  6
 27 28  1  0
 19 29  1  0
 24 29  1  0
 22 30  1  0
 30 31  2  0
 22 32  2  0
 29 32  1  1
 27 33  1  6
 30 34  1  0
 34 35  1  0
 34 36  1  0
 36 37  2  0
 35 38  1  0
 37 39  1  0
 39 40  1  0
 39 41  2  0
 36 42  1  0
 41 43  1  0
 40 44  2  0
 40 45  1  0
 41 46  1  0
 42 46  2  0
 43 47  2  0
 45 47  1  0
 45 48  1  0
M  END
$$$$
O14757_Pocket2Mol_idx-in-all-generaetd-711
     RDKit          3D

 47 56  0  0  0  0  0  0  0  0999 V2000
    1.5482   -0.3111   41.9233 C   0  0  0  0  0  0  0  0  0  0  0  0
    2.7284    0.2018   42.1525 N   0  0  0  0  0  0  0  0  0  0  0  0
    3.7893   -0.3016   42.7005 C   0  0  0  0  0  0  0  0  0  0  0  0
    3.3781   -1.7350   43.0000 C   0  0  0  0  0  0  0  0  0  0  0  0
    2.0339   -1.9619   42.6217 C   0  0  0  0  0  0  0  0  0  0  0  0
    5.0090    0.1219   42.9340 N   0  0  0  0  0  0  0  0  0  0  0  0
    4.2895   -2.4979   43.6707 C   0  0  0  0  0  0  0  0  0  0  0  0
    5.8391   -0.6675   43.6343 C   0  0  0  0  0  0  0  0  0  0  0  0
    6.9849   -0.2377   44.0028 N   0  0  0  0  0  0  0  0  0  0  0  0
    4.0426   -3.8794   44.0832 C   0  0  0  0  0  0  0  0  0  0  0  0
    7.6796   -0.8734   44.9326 C   0  0  0  0  0  0  0  0  0  0  0  0
    1.1064   -2.9576   42.4211 C   0  0  0  0  0  0  0  0  0  0  0  0
    5.5298   -1.9496   44.0315 C   0  0  0  0  0  0  0  0  0  0  0  0
    3.8954   -4.1817   45.4718 C   0  0  0  0  0  0  0  0  0  0  0  0
    0.6765   -3.5480   43.4006 C   0  0  1  0  0  0  0  0  0  0  0  0
    0.5804   -3.2191   41.1635 C   0  0  0  0  0  0  0  0  0  0  0  0
    2.8083   -4.8227   45.9203 N   0  0  0  0  0  0  0  0  0  0  0  0
   -0.1574   -4.5754   42.9329 N   0  0  0  0  0  0  0  0  0  0  0  0
    6.5271   -2.5531   44.9677 C   0  0  0  0  0  0  0  0  0  0  0  0
   -0.2272   -4.3703   41.5137 C   0  0  0  0  0  0  0  0  0  0  0  0
    7.5095   -2.0029   45.3993 C   0  0  0  0  0  0  0  0  0  0  0  0
    8.2550   -2.6982   46.3988 C   0  0  1  0  0  0  0  0  0  0  0  0
    8.8975   -0.3029   45.3267 O   0  0  0  0  0  0  0  0  0  0  0  0
    4.8299   -4.4637   46.4212 C   0  0  0  0  0  0  0  0  0  0  0  0
    4.2707   -4.9248   47.6295 N   0  0  0  0  0  0  0  0  0  0  0  0
    3.2045   -5.2092   47.1521 C   0  0  0  0  0  0  0  0  0  0  0  0
    1.4482   -4.6186   45.4134 C   0  0  0  0  0  0  0  0  0  0  0  0
    1.3256   -3.7660   44.6394 N   0  0  0  0  0  0  0  0  0  0  0  0
    9.2816   -2.1418   47.1273 N   0  0  0  0  0  0  0  0  0  0  0  0
   10.0629   -3.1324   47.8508 C   0  0  0  0  0  0  0  0  0  0  0  0
    6.3491   -3.8960   46.0844 C   0  0  2  0  0  0  0  0  0  0  0  0
    7.4349   -3.5889   46.9054 C   0  0  0  0  0  0  0  0  0  0  0  0
   10.3145   -2.7271   49.0818 O   0  0  0  0  0  0  0  0  0  0  0  0
   11.0221   -3.8171   47.1052 C   0  0  0  0  0  0  0  0  0  0  0  0
    0.8710   -5.7412   45.2074 O   0  0  0  0  0  0  0  0  0  0  0  0
   12.1654   -3.3890   46.7468 C   0  0  0  0  0  0  0  0  0  0  0  0
   13.1016   -4.1184   46.0003 C   0  0  0  0  0  0  0  0  0  0  0  0
   14.3410   -3.6031   45.7839 C   0  0  0  0  0  0  0  0  0  0  0  0
   12.7386   -5.2783   45.5019 C   0  0  0  0  0  0  0  0  0  0  0  0
   10.5019   -5.1787   46.6888 C   0  0  0  0  0  0  0  0  0  0  0  0
   11.4219   -5.8282   45.8667 C   0  0  0  0  0  0  0  0  0  0  0  0
   14.5762   -2.3044   45.3325 C   0  0  0  0  0  0  0  0  0  0  0  0
   15.6298   -1.8216   45.0706 C   0  0  0  0  0  0  0  0  0  0  0  0
   16.8172   -2.4093   45.2185 C   0  0  0  0  0  0  0  0  0  0  0  0
   15.5319   -4.3398   45.8997 C   0  0  0  0  0  0  0  0  0  0  0  0
   18.0815   -1.8719   44.8542 O   0  0  0  0  0  0  0  0  0  0  0  0
   16.9003   -3.7466   45.6296 C   0  0  0  0  0  0  0  0  0  0  0  0
  1  2  1  0
  2  3  2  0
  3  4  1  0
  1  5  2  0
  4  5  1  0
  3  6  1  0
  4  7  2  0
  6  8  1  0
  8  9  1  0
  7 10  1  0
  9 11  1  0
  5 12  1  0
  7 13  1  0
  8 13  2  0
 10 14  1  0
 12 15  1  0
 12 16  2  0
 14 17  1  0
 15 18  1  0
 13 19  1  0
 16 20  1  0
 18 20  2  0
 11 21  1  0
 19 21  2  0
 21 22  1  0
 11 23  2  0
 14 24  2  0
 24 25  1  0
 17 26  1  0
 25 26  2  0
 17 27  1  0
 15 28  1  6
 27 28  1  0
 22 29  1  1
 29 30  1  0
 19 31  1  0
 24 31  1  0
 22 32  1  0
 31 32  1  1
 30 33  2  0
 30 34  1  0
 27 35  2  0
 34 36  2  0
 36 37  1  0
 37 38  1  0
 37 39  2  0
 34 40  1  0
 39 41  1  0
 40 41  2  0
 38 42  2  0
 42 43  1  0
 43 44  2  0
 38 45  1  0
 44 46  1  0
 44 47  1  0
 45 47  2  0
M  END
$$$$
O14757_Pocket2Mol_idx-in-all-generaetd-712
     RDKit          3D

 38 44  0  0  0  0  0  0  0  0999 V2000
    5.1775    0.2381   42.7925 N   0  0  0  0  0  0  0  0  0  0  0  0
    3.8485    0.3515   42.4285 N   0  0  0  0  0  0  0  0  0  0  0  0
    5.5201   -0.8216   43.5188 C   0  0  0  0  0  0  0  0  0  0  0  0
    4.5575   -1.7838   43.9113 C   0  0  0  0  0  0  0  0  0  0  0  0
    2.9777   -0.5504   42.6073 C   0  0  0  0  0  0  0  0  0  0  0  0
    4.8521   -2.9209   44.7316 C   0  0  0  0  0  0  0  0  0  0  0  0
    3.2351   -1.5675   43.1903 C   0  0  0  0  0  0  0  0  0  0  0  0
    1.6955   -0.2711   41.8967 C   0  0  0  0  0  0  0  0  0  0  0  0
    0.8864   -1.3663   42.0618 C   0  0  0  0  0  0  0  0  0  0  0  0
    2.3187   -2.7500   43.4543 C   0  0  0  0  0  0  0  0  0  0  0  0
    1.1071   -2.5907   42.7445 C   0  0  0  0  0  0  0  0  0  0  0  0
    6.0979   -2.8249   45.5633 C   0  0  0  0  0  0  0  0  0  0  0  0
    0.0423   -3.6939   42.8205 C   0  0  0  0  0  0  0  0  0  0  0  0
    4.2011   -4.0423   44.9363 C   0  0  0  0  0  0  0  0  0  0  0  0
    4.5424   -5.0339   45.7893 C   0  0  0  0  0  0  0  0  0  0  0  0
   -0.0110   -4.4040   41.6463 N   0  0  0  0  0  0  0  0  0  0  0  0
    2.8431   -3.9954   44.0809 C   0  0  0  0  0  0  0  0  0  0  0  0
    7.0703   -1.6758   45.5388 C   0  0  0  0  0  0  0  0  0  0  0  0
    6.5324   -3.6602   46.4424 C   0  0  0  0  0  0  0  0  0  0  0  0
    5.6842   -4.8828   46.5405 C   0  0  0  0  0  0  0  0  0  0  0  0
    6.7957   -0.7421   44.3455 N   0  0  0  0  0  0  0  0  0  0  0  0
   -0.5371   -3.9067   43.6730 O   0  0  0  0  0  0  0  0  0  0  0  0
    8.1253   -1.3380   46.2529 C   0  0  0  0  0  0  0  0  0  0  0  0
    8.4826   -2.3424   47.1646 C   0  0  0  0  0  0  0  0  0  0  0  0
    7.6160   -3.5262   47.3486 C   0  0  0  0  0  0  0  0  0  0  0  0
    9.6963   -2.1931   47.9970 C   0  0  0  0  0  0  0  0  0  0  0  0
    9.5527   -1.4028   48.9318 O   0  0  0  0  0  0  0  0  0  0  0  0
   10.7595   -2.8202   47.7301 O   0  0  0  0  0  0  0  0  0  0  0  0
   11.5009   -2.2828   46.6278 C   0  0  0  0  0  0  0  0  0  0  0  0
   12.6280   -1.6044   46.9222 C   0  0  0  0  0  0  0  0  0  0  0  0
   11.2344   -2.7160   45.2873 C   0  0  0  0  0  0  0  0  0  0  0  0
   11.9824   -2.2802   44.2730 C   0  0  0  0  0  0  0  0  0  0  0  0
   12.9544   -1.2252   48.3084 C   0  0  0  0  0  0  0  0  0  0  0  0
   12.6947   -0.0468   48.6551 O   0  0  0  0  0  0  0  0  0  0  0  0
   13.4095   -1.0886   45.8761 C   0  0  0  0  0  0  0  0  0  0  0  0
   14.5529   -0.3268   46.1682 O   0  0  0  0  0  0  0  0  0  0  0  0
   13.1307   -1.3944   44.6064 C   0  0  0  0  0  0  0  0  0  0  0  0
   13.2254   -2.1365   49.1488 O   0  0  0  0  0  0  0  0  0  0  0  0
  1  2  2  0
  1  3  1  0
  3  4  2  0
  2  5  1  0
  4  6  1  0
  4  7  1  0
  5  7  2  0
  5  8  1  0
  8  9  2  0
  7 10  1  0
  9 11  1  0
 10 11  2  0
  6 12  2  0
 11 13  1  0
  6 14  1  0
 14 15  2  0
 13 16  1  0
 10 17  1  0
 14 17  1  0
 12 18  1  0
 12 19  1  0
 15 20  1  0
 19 20  2  0
  3 21  1  0
 18 21  2  0
 13 22  2  0
 18 23  1  0
 23 24  2  0
 19 25  1  0
 24 25  1  0
 24 26  1  0
 26 27  2  0
 26 28  1  0
 28 29  1  0
 29 30  2  0
 29 31  1  0
 31 32  2  0
 30 33  1  0
 33 34  2  0
 30 35  1  0
 35 36  1  0
 32 37  1  0
 35 37  2  0
 33 38  1  0
M  END
$$$$
O14757_Pocket2Mol_idx-in-all-generaetd-713
     RDKit          3D

 27 31  0  0  0  0  0  0  0  0999 V2000
    5.3420    0.2589   42.8836 N   0  0  0  0  0  0  0  0  0  0  0  0
    5.6740   -0.8311   43.5645 C   0  0  0  0  0  0  0  0  0  0  0  0
    4.6589   -1.7043   43.6799 C   0  0  0  0  0  0  0  0  0  0  0  0
    3.6286   -1.0900   42.8577 C   0  0  0  0  0  0  0  0  0  0  0  0
    4.0610    0.1743   42.5227 N   0  0  0  0  0  0  0  0  0  0  0  0
    2.2711   -1.4200   42.4728 C   0  0  0  0  0  0  0  0  0  0  0  0
    4.3843   -2.8218   44.3745 C   0  0  0  0  0  0  0  0  0  0  0  0
    1.4505   -0.5265   41.9137 C   0  0  0  0  0  0  0  0  0  0  0  0
    1.9236   -2.8327   42.4366 C   0  0  0  0  0  0  0  0  0  0  0  0
    0.5317   -2.7729   41.9287 C   0  0  0  0  0  0  0  0  0  0  0  0
    6.8587   -1.2119   44.3293 C   0  0  0  0  0  0  0  0  0  0  0  0
    0.2175   -1.3031   41.4860 C   0  0  0  0  0  0  0  0  0  0  0  0
   -0.3459   -3.9057   41.6978 C   0  0  0  0  0  0  0  0  0  0  0  0
    7.8877   -0.5486   44.6088 N   0  0  0  0  0  0  0  0  0  0  0  0
    6.7301   -2.3898   45.2144 C   0  0  0  0  0  0  0  0  0  0  0  0
    5.5335   -3.2051   45.1511 C   0  0  0  0  0  0  0  0  0  0  0  0
    7.9111   -2.4568   45.9191 C   0  0  0  0  0  0  0  0  0  0  0  0
    8.6956   -1.2139   45.6145 C   0  0  0  0  0  0  0  0  0  0  0  0
    8.4387   -3.4065   46.9399 C   0  0  0  0  0  0  0  0  0  0  0  0
    9.6434   -3.2081   47.4488 C   0  0  0  0  0  0  0  0  0  0  0  0
   10.1454   -4.1698   48.4457 C   0  0  0  0  0  0  0  0  0  0  0  0
    9.9571   -1.0853   46.2999 C   0  0  0  0  0  0  0  0  0  0  0  0
   10.3696   -2.0115   47.1904 C   0  0  0  0  0  0  0  0  0  0  0  0
   10.5141   -5.3875   47.9390 N   0  0  0  0  0  0  0  0  0  0  0  0
   11.5759   -5.4913   47.1327 C   0  0  0  0  0  0  0  0  0  0  0  0
   11.4810   -5.3696   45.7723 C   0  0  0  0  0  0  0  0  0  0  0  0
   12.7545   -5.8609   47.4417 O   0  0  0  0  0  0  0  0  0  0  0  0
  1  2  2  0
  2  3  1  0
  3  4  2  0
  1  5  1  0
  4  5  1  0
  4  6  1  0
  3  7  1  0
  6  8  2  0
  6  9  1  0
  9 10  2  0
  2 11  1  0
  8 12  1  0
 10 12  1  0
 10 13  1  0
 11 14  1  0
 11 15  2  0
  7 16  2  0
 15 16  1  0
 15 17  1  0
 14 18  1  0
 17 18  2  0
 17 19  1  0
 19 20  2  0
 20 21  1  0
 18 22  1  0
 20 23  1  0
 22 23  2  0
 21 24  1  0
 24 25  1  0
 25 26  1  0
 25 27  2  0
M  END
$$$$
O14757_Pocket2Mol_idx-in-all-generaetd-714
     RDKit          3D

 42 48  0  0  0  0  0  0  0  0999 V2000
    5.3420    0.2589   42.8836 O   0  0  0  0  0  0  0  0  0  0  0  0
    5.1627   -0.7554   43.4753 C   0  0  0  0  0  0  0  0  0  0  0  0
    4.0509   -1.4657   43.4177 N   0  0  0  0  0  0  0  0  0  0  0  0
    5.9969   -1.2317   44.6840 C   0  0  0  0  0  0  0  0  0  0  0  0
    2.9618   -1.1021   42.5918 C   0  0  1  0  0  0  0  0  0  0  0  0
    7.3392   -0.8596   44.8412 C   0  0  0  0  0  0  0  0  0  0  0  0
    1.9754   -2.0820   42.2741 C   0  0  0  0  0  0  0  0  0  0  0  0
    5.5910   -2.4282   45.3439 C   0  0  0  0  0  0  0  0  0  0  0  0
    6.5874   -2.9636   46.1581 C   0  0  0  0  0  0  0  0  0  0  0  0
    4.2763   -3.0680   45.0493 N   0  0  0  0  0  0  0  0  0  0  0  0
    3.6188   -2.5886   44.2024 C   0  0  0  0  0  0  0  0  0  0  0  0
    8.1921   -1.4071   45.7505 C   0  0  0  0  0  0  0  0  0  0  0  0
    1.0154   -1.8839   41.2980 C   0  0  0  0  0  0  0  0  0  0  0  0
    2.5720   -3.3564   43.9063 C   0  0  0  0  0  0  0  0  0  0  0  0
    0.2502   -2.8976   41.0751 C   0  0  0  0  0  0  0  0  0  0  0  0
    6.1761   -4.1775   47.0209 C   0  0  0  0  0  0  0  0  0  0  0  0
    1.7266   -3.1047   43.0115 C   0  0  2  0  0  0  0  0  0  0  0  0
    2.3696   -4.5367   44.7536 N   0  0  0  0  0  0  0  0  0  0  0  0
    1.2264   -5.2346   44.4693 C   0  0  0  0  0  0  0  0  0  0  0  0
    0.7187   -3.8955   42.5465 C   0  0  0  0  0  0  0  0  0  0  0  0
    9.4576   -0.8949   46.0327 N   0  0  0  0  0  0  0  0  0  0  0  0
    0.8625   -6.3901   45.2462 C   0  0  0  0  0  0  0  0  0  0  0  0
    7.6467   -2.5139   46.4892 C   0  0  0  0  0  0  0  0  0  0  0  0
   10.4908   -1.5336   45.8242 C   0  0  0  0  0  0  0  0  0  0  0  0
    0.3057   -4.9299   43.2909 C   0  0  0  0  0  0  0  0  0  0  0  0
   11.5916   -1.4291   46.7436 C   0  0  0  0  0  0  0  0  0  0  0  0
   10.5566   -2.3672   44.8649 O   0  0  0  0  0  0  0  0  0  0  0  0
    2.4730    0.2084   42.8389 O   0  0  0  0  0  0  0  0  0  0  0  0
   11.6027   -2.2081   47.7725 N   0  0  0  0  0  0  0  0  0  0  0  0
   12.6189   -0.5862   46.5415 C   0  0  0  0  0  0  0  0  0  0  0  0
   13.6413   -0.4484   47.4129 C   0  0  0  0  0  0  0  0  0  0  0  0
   10.4764   -3.1097   48.1134 C   0  0  0  0  0  0  0  0  0  0  0  0
    9.5762   -2.4717   49.0753 C   0  0  0  0  0  0  0  0  0  0  0  0
    9.7761   -1.2394   49.5167 C   0  0  0  0  0  0  0  0  0  0  0  0
    8.6397   -3.3252   49.7339 C   0  0  0  0  0  0  0  0  0  0  0  0
    8.9861   -0.7034   50.5819 C   0  0  0  0  0  0  0  0  0  0  0  0
   12.7628   -2.0677   48.3467 C   0  0  0  0  0  0  0  0  0  0  0  0
    7.9358   -2.7396   50.7350 C   0  0  0  0  0  0  0  0  0  0  0  0
    8.2255   -1.3976   51.1817 C   0  0  0  0  0  0  0  0  0  0  0  0
   14.6427    0.5279   47.1222 O   0  0  0  0  0  0  0  0  0  0  0  0
   13.7518   -1.3149   48.3164 C   0  0  0  0  0  0  0  0  0  0  0  0
   12.8840   -3.0525   49.4915 O   0  0  0  0  0  0  0  0  0  0  0  0
  1  2  2  0
  2  3  1  0
  2  4  1  0
  3  5  1  0
  4  6  2  0
  5  7  1  0
  4  8  1  0
  8  9  2  0
  8 10  1  0
  3 11  1  0
 10 11  2  0
  6 12  1  0
  7 13  2  0
 11 14  1  0
 13 15  1  0
  9 16  1  0
 17  7  1  6
 14 17  1  0
 14 18  2  0
 18 19  1  0
 15 20  2  0
 17 20  1  0
 12 21  1  0
 19 22  1  0
  9 23  1  0
 12 23  2  0
 21 24  1  0
 19 25  2  0
 20 25  1  0
 24 26  1  0
 24 27  2  0
  5 28  1  1
 26 29  1  0
 26 30  2  0
 30 31  1  0
 29 32  1  0
 32 33  1  0
 33 34  2  0
 33 35  1  0
 34 36  1  0
 29 37  1  0
 35 38  2  0
 36 39  2  0
 38 39  1  0
 31 40  1  0
 31 41  2  0
 37 41  1  0
 37 42  2  0
M  END
$$$$
O14757_Pocket2Mol_idx-in-all-generaetd-715
     RDKit          3D

 23 26  0  0  0  0  0  0  0  0999 V2000
    2.2688    0.3052   42.1942 N   0  0  0  0  0  0  0  0  0  0  0  0
    1.5681   -0.5985   42.0391 C   0  0  0  0  0  0  0  0  0  0  0  0
    0.2713   -0.6749   41.4483 C   0  0  0  0  0  0  0  0  0  0  0  0
    3.6365    0.2703   42.6880 C   0  0  0  0  0  0  0  0  0  0  0  0
    3.8321   -1.1348   42.9762 C   0  0  0  0  0  0  0  0  0  0  0  0
    2.8260   -2.0201   42.8203 C   0  0  0  0  0  0  0  0  0  0  0  0
    1.7444   -1.8415   42.3318 N   0  0  0  0  0  0  0  0  0  0  0  0
    3.2538   -3.3101   43.4270 N   0  0  0  0  0  0  0  0  0  0  0  0
    2.4413   -4.3420   43.6264 C   0  0  0  0  0  0  0  0  0  0  0  0
    4.5709   -3.0849   43.9583 C   0  0  0  0  0  0  0  0  0  0  0  0
    4.9539   -1.7198   43.6718 C   0  0  0  0  0  0  0  0  0  0  0  0
    1.7950   -4.3815   44.9098 C   0  0  0  0  0  0  0  0  0  0  0  0
    6.2203   -1.1385   44.0326 C   0  0  0  0  0  0  0  0  0  0  0  0
    2.4006   -4.9997   45.9013 O   0  0  0  0  0  0  0  0  0  0  0  0
    6.9025   -1.6501   45.0796 C   0  0  0  0  0  0  0  0  0  0  0  0
    5.4101   -3.6941   45.0229 C   0  0  0  0  0  0  0  0  0  0  0  0
    5.0219   -4.9002   45.5161 O   0  0  0  0  0  0  0  0  0  0  0  0
    6.6083   -3.0238   45.5442 C   0  0  0  0  0  0  0  0  0  0  0  0
    7.4531   -3.6409   46.5606 C   0  0  0  0  0  0  0  0  0  0  0  0
    8.0146   -0.9691   45.5874 C   0  0  0  0  0  0  0  0  0  0  0  0
    7.1412   -4.8399   47.0721 O   0  0  0  0  0  0  0  0  0  0  0  0
    8.5485   -2.8812   47.0742 C   0  0  0  0  0  0  0  0  0  0  0  0
    8.8231   -1.6361   46.5774 C   0  0  0  0  0  0  0  0  0  0  0  0
  1  2  2  0
  2  3  1  0
  1  4  1  0
  4  5  1  0
  5  6  2  0
  2  7  1  0
  6  7  1  0
  6  8  1  0
  8  9  1  0
  8 10  1  0
  5 11  1  0
 10 11  2  0
  9 12  1  0
 11 13  1  0
 12 14  1  0
 13 15  2  0
 10 16  1  0
 16 17  1  0
 15 18  1  0
 16 18  2  0
 18 19  1  0
 15 20  1  0
 19 21  1  0
 19 22  2  0
 20 23  2  0
 22 23  1  0
M  END
$$$$
O14757_Pocket2Mol_idx-in-all-generaetd-716
     RDKit          3D

 32 38  0  0  0  0  0  0  0  0999 V2000
    4.8173    0.2791   42.6993 N   0  0  0  0  0  0  0  0  0  0  0  0
    5.3297   -0.7477   43.3688 C   0  0  0  0  0  0  0  0  0  0  0  0
    3.4732   -0.2235   42.4530 C   0  0  0  0  0  0  0  0  0  0  0  0
    4.4984   -1.7876   43.6214 C   0  0  0  0  0  0  0  0  0  0  0  0
    3.3438   -1.5190   42.9379 C   0  0  0  0  0  0  0  0  0  0  0  0
    2.1381   -2.3401   42.8254 C   0  0  0  0  0  0  0  0  0  0  0  0
    2.3894    0.3572   41.9843 N   0  0  0  0  0  0  0  0  0  0  0  0
    4.9180   -3.0430   44.3829 C   0  0  0  0  0  0  0  0  0  0  0  0
    5.9444   -2.9314   45.3934 C   0  0  0  0  0  0  0  0  0  0  0  0
    4.2808   -4.1329   44.3252 C   0  0  0  0  0  0  0  0  0  0  0  0
    3.1588   -4.4221   43.4852 O   0  0  0  0  0  0  0  0  0  0  0  0
    4.5704   -5.2518   45.1995 C   0  0  0  0  0  0  0  0  0  0  0  0
    1.9853   -3.6792   43.3495 C   0  0  0  0  0  0  0  0  0  0  0  0
    0.9181   -4.3294   43.4638 C   0  0  0  0  0  0  0  0  0  0  0  0
    6.7403   -1.6226   45.5272 C   0  0  2  0  0  0  0  0  0  0  0  0
    0.9752   -1.7845   42.3366 C   0  0  0  0  0  0  0  0  0  0  0  0
    6.2516   -3.7287   46.2722 C   0  0  0  0  0  0  0  0  0  0  0  0
   -0.2404   -2.4179   42.2529 C   0  0  0  0  0  0  0  0  0  0  0  0
   -1.3835   -1.8904   41.6559 N   0  0  0  0  0  0  0  0  0  0  0  0
    3.8706   -6.4216   45.1394 O   0  0  0  0  0  0  0  0  0  0  0  0
    0.9456   -0.2789   41.7649 C   0  0  0  0  0  0  0  0  0  0  0  0
   -0.2678   -3.6969   42.7575 C   0  0  0  0  0  0  0  0  0  0  0  0
    6.3913   -0.7000   44.3807 N   0  0  0  0  0  0  0  0  0  0  0  0
    7.9391   -1.5867   46.0069 C   0  0  0  0  0  0  0  0  0  0  0  0
    8.7787   -0.4879   45.9761 O   0  0  0  0  0  0  0  0  0  0  0  0
    5.3853   -5.1216   46.3780 C   0  0  0  0  0  0  0  0  0  0  0  0
    8.4504   -2.7517   46.6262 N   0  0  0  0  0  0  0  0  0  0  0  0
    7.4807   -3.7374   47.0380 C   0  0  0  0  0  0  0  0  0  0  0  0
    9.7861   -2.6616   47.2863 C   0  0  0  0  0  0  0  0  0  0  0  0
   10.0358   -3.7697   48.0129 C   0  0  0  0  0  0  0  0  0  0  0  0
   10.0595   -1.3885   48.0325 C   0  0  0  0  0  0  0  0  0  0  0  0
   10.8276   -2.5752   46.2370 C   0  0  0  0  0  0  0  0  0  0  0  0
  1  2  2  0
  1  3  1  0
  2  4  1  0
  3  5  1  0
  4  5  2  0
  5  6  1  0
  3  7  2  0
  4  8  1  0
  8  9  1  0
  8 10  2  0
 10 11  1  0
 10 12  1  0
  6 13  1  0
 11 13  1  0
 13 14  2  0
  9 15  1  0
  6 16  2  0
  9 17  2  0
 16 18  1  0
 18 19  1  0
 12 20  1  0
  7 21  1  0
 16 21  1  0
 14 22  1  0
 18 22  2  0
  2 23  1  0
 15 23  1  6
 15 24  1  0
 24 25  2  0
 12 26  2  0
 17 26  1  0
 24 27  1  0
 17 28  1  0
 27 28  1  0
 27 29  1  0
 29 30  1  0
 29 31  1  0
 29 32  1  0
M  END
$$$$
O14757_Pocket2Mol_idx-in-all-generaetd-717
     RDKit          3D

 24 27  0  0  0  0  0  0  0  0999 V2000
    4.5156    0.0550   42.9895 N   0  0  0  0  0  0  0  0  0  0  0  0
    5.0618   -0.8645   43.5295 C   0  0  0  0  0  0  0  0  0  0  0  0
    4.4350   -2.0604   43.7783 C   0  0  0  0  0  0  0  0  0  0  0  0
    3.1949   -1.8657   43.0982 C   0  0  0  0  0  0  0  0  0  0  0  0
    4.9542   -3.1463   44.5335 C   0  0  0  0  0  0  0  0  0  0  0  0
    6.4558   -0.5585   44.1886 N   0  0  0  0  0  0  0  0  0  0  0  0
    4.2721   -4.3244   44.6685 C   0  0  0  0  0  0  0  0  0  0  0  0
    2.1703   -2.7509   42.8781 C   0  0  0  0  0  0  0  0  0  0  0  0
    5.9828   -2.9133   45.5213 C   0  0  0  0  0  0  0  0  0  0  0  0
    6.9086   -1.5074   45.1325 C   0  0  0  0  0  0  0  0  0  0  0  0
    3.2765   -0.4576   42.4761 C   0  0  0  0  0  0  0  0  0  0  0  0
    6.4419   -3.9195   46.2207 C   0  0  0  0  0  0  0  0  0  0  0  0
    5.7479   -5.0350   46.3913 C   0  0  0  0  0  0  0  0  0  0  0  0
    4.5713   -5.2600   45.5036 C   0  0  0  0  0  0  0  0  0  0  0  0
    7.9587   -1.3446   46.0046 C   0  0  0  0  0  0  0  0  0  0  0  0
    8.0130   -1.1133   47.1866 O   0  0  0  0  0  0  0  0  0  0  0  0
    1.1275   -2.3081   42.0295 C   0  0  0  0  0  0  0  0  0  0  0  0
    9.1998   -1.3426   45.3272 O   0  0  0  0  0  0  0  0  0  0  0  0
    2.2171   -0.0794   41.7777 C   0  0  0  0  0  0  0  0  0  0  0  0
    1.0857   -0.9631   41.5496 C   0  0  0  0  0  0  0  0  0  0  0  0
   10.3910   -1.5302   46.0228 C   0  0  0  0  0  0  0  0  0  0  0  0
   -0.0582   -3.1090   41.8072 C   0  0  0  0  0  0  0  0  0  0  0  0
   -0.6672   -3.1658   40.7418 O   0  0  0  0  0  0  0  0  0  0  0  0
   -0.6528   -3.6269   42.8460 O   0  0  0  0  0  0  0  0  0  0  0  0
  1  2  2  0
  2  3  1  0
  3  4  2  0
  3  5  1  0
  2  6  1  0
  5  7  2  0
  4  8  1  0
  5  9  1  0
  6 10  2  0
  9 10  1  0
  1 11  1  0
  4 11  1  0
  9 12  2  0
 12 13  1  0
  7 14  1  0
 13 14  2  0
 10 15  1  0
 15 16  2  0
  8 17  2  0
 15 18  1  0
 11 19  2  0
 17 20  1  0
 19 20  1  0
 18 21  1  0
 17 22  1  0
 22 23  2  0
 22 24  1  0
M  END
$$$$
O14757_Pocket2Mol_idx-in-all-generaetd-718
     RDKit          3D

 44 50  0  0  0  0  0  0  0  0999 V2000
    5.3420    0.2589   42.8836 O   0  0  0  0  0  0  0  0  0  0  0  0
    5.1627   -0.7554   43.4753 C   0  0  0  0  0  0  0  0  0  0  0  0
    4.0509   -1.4657   43.4177 N   0  0  0  0  0  0  0  0  0  0  0  0
    5.9969   -1.2317   44.6840 C   0  0  0  0  0  0  0  0  0  0  0  0
    2.9618   -1.1021   42.5918 C   0  0  1  0  0  0  0  0  0  0  0  0
    7.3392   -0.8596   44.8412 C   0  0  0  0  0  0  0  0  0  0  0  0
    1.9754   -2.0820   42.2741 C   0  0  0  0  0  0  0  0  0  0  0  0
    5.5910   -2.4282   45.3439 C   0  0  0  0  0  0  0  0  0  0  0  0
    6.5874   -2.9636   46.1581 C   0  0  0  0  0  0  0  0  0  0  0  0
    4.2763   -3.0680   45.0493 N   0  0  0  0  0  0  0  0  0  0  0  0
    3.6188   -2.5886   44.2024 C   0  0  0  0  0  0  0  0  0  0  0  0
    8.1921   -1.4071   45.7505 C   0  0  0  0  0  0  0  0  0  0  0  0
    1.0154   -1.8839   41.2980 C   0  0  0  0  0  0  0  0  0  0  0  0
    2.5720   -3.3564   43.9063 C   0  0  0  0  0  0  0  0  0  0  0  0
    0.2502   -2.8976   41.0751 C   0  0  0  0  0  0  0  0  0  0  0  0
    6.1761   -4.1775   47.0209 C   0  0  0  0  0  0  0  0  0  0  0  0
    1.7266   -3.1047   43.0115 C   0  0  2  0  0  0  0  0  0  0  0  0
    2.3696   -4.5367   44.7536 N   0  0  0  0  0  0  0  0  0  0  0  0
    1.2264   -5.2346   44.4693 C   0  0  0  0  0  0  0  0  0  0  0  0
    0.7187   -3.8955   42.5465 C   0  0  0  0  0  0  0  0  0  0  0  0
    9.4576   -0.8949   46.0327 N   0  0  0  0  0  0  0  0  0  0  0  0
    0.8625   -6.3901   45.2462 C   0  0  0  0  0  0  0  0  0  0  0  0
    7.6467   -2.5139   46.4892 C   0  0  0  0  0  0  0  0  0  0  0  0
   10.4908   -1.5336   45.8242 C   0  0  0  0  0  0  0  0  0  0  0  0
    0.3057   -4.9299   43.2909 C   0  0  0  0  0  0  0  0  0  0  0  0
   11.5916   -1.4291   46.7436 C   0  0  0  0  0  0  0  0  0  0  0  0
   10.5566   -2.3672   44.8649 O   0  0  0  0  0  0  0  0  0  0  0  0
   12.8421   -1.9355   46.2823 C   0  0  0  0  0  0  0  0  0  0  0  0
   13.4833   -2.8582   46.9841 C   0  0  0  0  0  0  0  0  0  0  0  0
   11.4002   -1.1447   48.0540 C   0  0  0  0  0  0  0  0  0  0  0  0
   10.2867   -0.4569   48.4999 O   0  0  0  0  0  0  0  0  0  0  0  0
   12.3327   -1.4798   48.9564 C   0  0  0  0  0  0  0  0  0  0  0  0
   14.7901   -3.3162   46.6439 C   0  0  0  0  0  0  0  0  0  0  0  0
   12.1651   -1.3050   50.3239 O   0  0  0  0  0  0  0  0  0  0  0  0
   15.6765   -2.5740   46.0979 C   0  0  0  0  0  0  0  0  0  0  0  0
   13.4417   -2.4710   48.5369 C   0  0  0  0  0  0  0  0  0  0  0  0
   15.5553   -1.2853   45.8338 C   0  0  0  0  0  0  0  0  0  0  0  0
   15.4119   -0.8806   44.5116 C   0  0  0  0  0  0  0  0  0  0  0  0
    2.4631    0.2112   42.8539 C   0  0  0  0  0  0  0  0  0  0  0  0
   14.8794    0.3049   44.1896 C   0  0  0  0  0  0  0  0  0  0  0  0
   14.8812    1.3969   44.9836 C   0  0  0  0  0  0  0  0  0  0  0  0
   14.2613    2.6741   44.5877 C   0  0  0  0  0  0  0  0  0  0  0  0
   15.1975    1.1397   46.3308 C   0  0  0  0  0  0  0  0  0  0  0  0
   15.6315   -0.1526   46.7654 C   0  0  0  0  0  0  0  0  0  0  0  0
  1  2  2  0
  2  3  1  0
  2  4  1  0
  3  5  1  0
  4  6  2  0
  5  7  1  0
  4  8  1  0
  8  9  2  0
  8 10  1  0
  3 11  1  0
 10 11  2  0
  6 12  1  0
  7 13  2  0
 11 14  1  0
 13 15  1  0
  9 16  1  0
 17  7  1  6
 14 17  1  0
 14 18  2  0
 18 19  1  0
 15 20  2  0
 17 20  1  0
 12 21  1  0
 19 22  1  0
  9 23  1  0
 12 23  2  0
 21 24  1  0
 19 25  2  0
 20 25  1  0
 24 26  1  0
 24 27  2  0
 26 28  2  0
 28 29  1  0
 26 30  1  0
 30 31  1  0
 30 32  2  0
 29 33  1  0
 32 34  1  0
 33 35  2  3
 29 36  2  0
 32 36  1  0
 35 37  1  0
 37 38  2  0
  5 39  1  1
 38 40  1  0
 40 41  2  0
 41 42  1  0
 41 43  1  0
 37 44  1  0
 43 44  2  0
M  END
$$$$
O14757_Pocket2Mol_idx-in-all-generaetd-719
     RDKit          3D

 32 37  0  0  0  0  0  0  0  0999 V2000
    4.5156    0.0550   42.9895 N   0  0  0  0  0  0  0  0  0  0  0  0
    5.0618   -0.8645   43.5295 C   0  0  0  0  0  0  0  0  0  0  0  0
    4.4350   -2.0604   43.7783 C   0  0  0  0  0  0  0  0  0  0  0  0
    4.9987   -3.0994   44.5839 C   0  0  0  0  0  0  0  0  0  0  0  0
    3.2714   -1.8664   43.0632 C   0  0  0  0  0  0  0  0  0  0  0  0
    6.4064   -0.5942   44.3204 N   0  0  0  0  0  0  0  0  0  0  0  0
    4.3422   -4.3256   44.7203 C   0  0  0  0  0  0  0  0  0  0  0  0
    2.1845   -2.6668   42.8270 N   0  0  0  0  0  0  0  0  0  0  0  0
    3.3305   -0.5395   42.5465 N   0  0  0  0  0  0  0  0  0  0  0  0
    1.9502   -3.8972   43.4076 C   0  0  0  0  0  0  0  0  0  0  0  0
    2.7156   -4.1184   44.6954 N   0  0  0  0  0  0  0  0  0  0  0  0
    6.8581   -1.5862   45.1101 C   0  0  0  0  0  0  0  0  0  0  0  0
    6.1801   -2.8430   45.2383 C   0  0  0  0  0  0  0  0  0  0  0  0
    2.1454   -5.1901   45.5771 C   0  0  0  0  0  0  0  0  0  0  0  0
    8.0137   -1.3946   45.8526 C   0  0  0  0  0  0  0  0  0  0  0  0
    0.9733   -4.5725   43.2066 O   0  0  0  0  0  0  0  0  0  0  0  0
    2.2437    0.0035   41.8733 C   0  0  0  0  0  0  0  0  0  0  0  0
    1.0849   -2.2139   41.9643 C   0  0  0  0  0  0  0  0  0  0  0  0
    1.0706   -0.9449   41.7082 C   0  0  0  0  0  0  0  0  0  0  0  0
    8.6144   -2.2842   46.6846 C   0  0  0  0  0  0  0  0  0  0  0  0
    6.9178   -3.7546   46.3085 C   0  0  0  0  0  0  0  0  0  0  0  0
    8.0358   -3.4919   46.8779 C   0  0  0  0  0  0  0  0  0  0  0  0
    9.8639   -1.9680   47.3567 O   0  0  0  0  0  0  0  0  0  0  0  0
   10.9341   -1.6111   46.5548 C   0  0  0  0  0  0  0  0  0  0  0  0
   11.9178   -1.1355   47.1416 C   0  0  0  0  0  0  0  0  0  0  0  0
   13.0127   -0.7189   46.2705 C   0  0  0  0  0  0  0  0  0  0  0  0
   13.2455   -1.5194   45.1269 C   0  0  0  0  0  0  0  0  0  0  0  0
   14.5207   -1.2990   44.3913 C   0  0  0  0  0  0  0  0  0  0  0  0
   11.0465   -2.4276   45.3258 C   0  0  0  0  0  0  0  0  0  0  0  0
   12.2628   -2.2243   44.6033 C   0  0  0  0  0  0  0  0  0  0  0  0
   15.6175   -1.8390   44.8293 O   0  0  0  0  0  0  0  0  0  0  0  0
   14.6323   -0.4110   43.4923 O   0  0  0  0  0  0  0  0  0  0  0  0
  1  2  2  0
  2  3  1  0
  3  4  1  0
  3  5  2  0
  2  6  1  0
  4  7  1  0
  5  8  1  0
  1  9  1  0
  5  9  1  0
  8 10  1  0
  7 11  1  0
 10 11  1  0
  6 12  2  0
  4 13  2  0
 12 13  1  0
 11 14  1  0
 12 15  1  0
 10 16  2  0
  9 17  1  0
  8 18  1  0
 17 19  1  0
 18 19  1  0
 15 20  2  0
 13 21  1  0
 20 22  1  0
 21 22  2  0
 20 23  1  0
 23 24  1  0
 24 25  2  0
 25 26  1  0
 26 27  2  0
 27 28  1  0
 24 29  1  0
 27 30  1  0
 29 30  2  0
 28 31  1  0
 28 32  2  0
M  END
$$$$
O14757_Pocket2Mol_idx-in-all-generaetd-720
     RDKit          3D

 37 44  0  0  0  0  0  0  0  0999 V2000
    4.8173    0.2791   42.6993 N   0  0  0  0  0  0  0  0  0  0  0  0
    5.3297   -0.7477   43.3688 C   0  0  0  0  0  0  0  0  0  0  0  0
    3.4732   -0.2235   42.4530 C   0  0  0  0  0  0  0  0  0  0  0  0
    4.4984   -1.7876   43.6214 C   0  0  0  0  0  0  0  0  0  0  0  0
    3.3438   -1.5190   42.9379 C   0  0  0  0  0  0  0  0  0  0  0  0
    2.1381   -2.3401   42.8254 C   0  0  0  0  0  0  0  0  0  0  0  0
    2.3894    0.3572   41.9843 N   0  0  0  0  0  0  0  0  0  0  0  0
    4.9180   -3.0430   44.3829 C   0  0  0  0  0  0  0  0  0  0  0  0
    5.9444   -2.9314   45.3934 C   0  0  0  0  0  0  0  0  0  0  0  0
    4.2808   -4.1329   44.3252 C   0  0  0  0  0  0  0  0  0  0  0  0
    3.1588   -4.4221   43.4852 O   0  0  0  0  0  0  0  0  0  0  0  0
    4.5704   -5.2518   45.1995 C   0  0  0  0  0  0  0  0  0  0  0  0
    1.9853   -3.6792   43.3495 C   0  0  0  0  0  0  0  0  0  0  0  0
    0.9181   -4.3294   43.4638 C   0  0  0  0  0  0  0  0  0  0  0  0
    6.7403   -1.6226   45.5272 C   0  0  2  0  0  0  0  0  0  0  0  0
    0.9752   -1.7845   42.3366 C   0  0  0  0  0  0  0  0  0  0  0  0
    6.2516   -3.7287   46.2722 C   0  0  0  0  0  0  0  0  0  0  0  0
   -0.2404   -2.4179   42.2529 C   0  0  0  0  0  0  0  0  0  0  0  0
   -1.3835   -1.8904   41.6559 N   0  0  0  0  0  0  0  0  0  0  0  0
    3.8706   -6.4216   45.1394 O   0  0  0  0  0  0  0  0  0  0  0  0
    0.9456   -0.2789   41.7649 C   0  0  0  0  0  0  0  0  0  0  0  0
   -0.2678   -3.6969   42.7575 C   0  0  0  0  0  0  0  0  0  0  0  0
    6.3913   -0.7000   44.3807 N   0  0  0  0  0  0  0  0  0  0  0  0
    7.9391   -1.5867   46.0069 C   0  0  0  0  0  0  0  0  0  0  0  0
    8.7787   -0.4879   45.9761 O   0  0  0  0  0  0  0  0  0  0  0  0
    5.3853   -5.1216   46.3780 C   0  0  0  0  0  0  0  0  0  0  0  0
    8.4504   -2.7517   46.6262 N   0  0  0  0  0  0  0  0  0  0  0  0
    7.4807   -3.7374   47.0380 C   0  0  0  0  0  0  0  0  0  0  0  0
    9.7442   -2.7944   46.9091 C   0  0  0  0  0  0  0  0  0  0  0  0
   10.5425   -3.4426   45.9689 C   0  0  0  0  0  0  0  0  0  0  0  0
   10.3017   -2.2524   47.9671 C   0  0  0  0  0  0  0  0  0  0  0  0
    9.4843   -1.5208   48.9551 C   0  0  0  0  0  0  0  0  0  0  0  0
   11.9725   -3.4596   46.1303 C   0  0  0  0  0  0  0  0  0  0  0  0
   11.7296   -2.3286   48.1612 C   0  0  0  0  0  0  0  0  0  0  0  0
   12.2963   -1.7544   49.3978 O   0  0  0  0  0  0  0  0  0  0  0  0
   12.5592   -2.9761   47.3323 C   0  0  0  0  0  0  0  0  0  0  0  0
   13.8231   -3.0170   47.3844 O   0  0  0  0  0  0  0  0  0  0  0  0
  1  2  2  0
  1  3  1  0
  2  4  1  0
  3  5  1  0
  4  5  2  0
  5  6  1  0
  3  7  2  0
  4  8  1  0
  8  9  1  0
  8 10  2  0
 10 11  1  0
 10 12  1  0
  6 13  1  0
 11 13  1  0
 13 14  2  0
  9 15  1  0
  6 16  2  0
  9 17  2  0
 16 18  1  0
 18 19  1  0
 12 20  1  0
  7 21  1  0
 16 21  1  0
 14 22  1  0
 18 22  2  0
  2 23  1  0
 15 23  1  6
 15 24  1  0
 24 25  2  0
 12 26  2  0
 17 26  1  0
 24 27  1  0
 17 28  1  0
 27 28  1  0
 27 29  1  0
 29 30  2  0
 29 31  1  0
 31 32  1  0
 30 33  1  0
 31 34  2  0
 34 35  1  0
 33 36  2  0
 34 36  1  0
 36 37  1  0
M  END
$$$$
O14757_Pocket2Mol_idx-in-all-generaetd-721
     RDKit          3D

 48 56  0  0  0  0  0  0  0  0999 V2000
    5.3420    0.2589   42.8836 O   0  0  0  0  0  0  0  0  0  0  0  0
    5.1627   -0.7554   43.4753 C   0  0  0  0  0  0  0  0  0  0  0  0
    4.0509   -1.4657   43.4177 N   0  0  0  0  0  0  0  0  0  0  0  0
    5.9969   -1.2317   44.6840 C   0  0  0  0  0  0  0  0  0  0  0  0
    2.9618   -1.1021   42.5918 C   0  0  1  0  0  0  0  0  0  0  0  0
    7.3392   -0.8596   44.8412 C   0  0  0  0  0  0  0  0  0  0  0  0
    1.9754   -2.0820   42.2741 C   0  0  0  0  0  0  0  0  0  0  0  0
    5.5910   -2.4282   45.3439 C   0  0  0  0  0  0  0  0  0  0  0  0
    6.5874   -2.9636   46.1581 C   0  0  0  0  0  0  0  0  0  0  0  0
    4.2763   -3.0680   45.0493 N   0  0  0  0  0  0  0  0  0  0  0  0
    3.6188   -2.5886   44.2024 C   0  0  0  0  0  0  0  0  0  0  0  0
    8.1921   -1.4071   45.7505 C   0  0  0  0  0  0  0  0  0  0  0  0
    1.0154   -1.8839   41.2980 C   0  0  0  0  0  0  0  0  0  0  0  0
    2.5720   -3.3564   43.9063 C   0  0  0  0  0  0  0  0  0  0  0  0
    0.2502   -2.8976   41.0751 C   0  0  0  0  0  0  0  0  0  0  0  0
    6.1761   -4.1775   47.0209 C   0  0  0  0  0  0  0  0  0  0  0  0
    1.7266   -3.1047   43.0115 C   0  0  2  0  0  0  0  0  0  0  0  0
    2.3696   -4.5367   44.7536 N   0  0  0  0  0  0  0  0  0  0  0  0
    1.2264   -5.2346   44.4693 C   0  0  0  0  0  0  0  0  0  0  0  0
    0.7187   -3.8955   42.5465 C   0  0  0  0  0  0  0  0  0  0  0  0
    9.4576   -0.8949   46.0327 N   0  0  0  0  0  0  0  0  0  0  0  0
    0.8625   -6.3901   45.2462 C   0  0  0  0  0  0  0  0  0  0  0  0
    7.6467   -2.5139   46.4892 C   0  0  0  0  0  0  0  0  0  0  0  0
   10.4908   -1.5336   45.8242 C   0  0  0  0  0  0  0  0  0  0  0  0
    0.3057   -4.9299   43.2909 C   0  0  0  0  0  0  0  0  0  0  0  0
   11.5916   -1.4291   46.7436 C   0  0  0  0  0  0  0  0  0  0  0  0
   10.5566   -2.3672   44.8649 O   0  0  0  0  0  0  0  0  0  0  0  0
    2.4730    0.2084   42.8389 O   0  0  0  0  0  0  0  0  0  0  0  0
   11.6027   -2.2081   47.7725 N   0  0  0  0  0  0  0  0  0  0  0  0
   12.6189   -0.5862   46.5415 C   0  0  0  0  0  0  0  0  0  0  0  0
   13.6413   -0.4484   47.4129 C   0  0  0  0  0  0  0  0  0  0  0  0
   10.4764   -3.1097   48.1134 C   0  0  0  0  0  0  0  0  0  0  0  0
    9.5762   -2.4717   49.0753 C   0  0  0  0  0  0  0  0  0  0  0  0
    9.7761   -1.2394   49.5167 C   0  0  0  0  0  0  0  0  0  0  0  0
    8.6397   -3.3252   49.7339 C   0  0  0  0  0  0  0  0  0  0  0  0
    8.9861   -0.7034   50.5819 C   0  0  0  0  0  0  0  0  0  0  0  0
   14.7137    0.5128   47.0925 C   0  0  0  0  0  0  0  0  0  0  0  0
    8.1815   -1.5423   51.2387 C   0  0  0  0  0  0  0  0  0  0  0  0
    8.4156   -4.7176   49.2102 O   0  0  0  0  0  0  0  0  0  0  0  0
   13.6915   -1.2597   48.4795 C   0  0  0  0  0  0  0  0  0  0  0  0
   14.7842   -1.1839   49.3622 C   0  0  0  0  0  0  0  0  0  0  0  0
   15.7412    0.6156   47.9897 C   0  0  0  0  0  0  0  0  0  0  0  0
    7.9330   -2.9111   50.8466 C   0  0  0  0  0  0  0  0  0  0  0  0
   15.8090   -0.2044   49.1005 C   0  0  0  0  0  0  0  0  0  0  0  0
   12.6706   -2.2024   48.6763 C   0  0  0  0  0  0  0  0  0  0  0  0
    7.1846   -5.2372   49.3767 C   0  0  0  0  0  0  0  0  0  0  0  0
    5.0366   -4.4384   47.4248 O   0  0  0  0  0  0  0  0  0  0  0  0
    7.0946   -5.1459   47.5279 N   0  0  0  0  0  0  0  0  0  0  0  0
  1  2  2  0
  2  3  1  0
  2  4  1  0
  3  5  1  0
  4  6  2  0
  5  7  1  0
  4  8  1  0
  8  9  2  0
  8 10  1  0
  3 11  1  0
 10 11  2  0
  6 12  1  0
  7 13  2  0
 11 14  1  0
 13 15  1  0
  9 16  1  0
 17  7  1  6
 14 17  1  0
 14 18  2  0
 18 19  1  0
 15 20  2  0
 17 20  1  0
 12 21  1  0
 19 22  1  0
  9 23  1  0
 12 23  2  0
 21 24  1  0
 19 25  2  0
 20 25  1  0
 24 26  1  0
 24 27  2  0
  5 28  1  1
 26 29  1  0
 26 30  2  0
 30 31  1  0
 29 32  1  0
 32 33  1  0
 33 34  1  0
 33 35  2  0
 34 36  2  0
 31 37  2  0
 36 38  1  0
 35 39  1  0
 31 40  1  0
 40 41  2  0
 37 42  1  0
 35 43  1  0
 38 43  2  0
 41 44  1  0
 42 44  2  0
 29 45  1  0
 40 45  1  0
 39 46  1  0
 16 47  2  0
 16 48  1  0
 46 48  1  0
M  END
$$$$
O14757_Pocket2Mol_idx-in-all-generaetd-722
     RDKit          3D

 25 28  0  0  0  0  0  0  0  0999 V2000
    5.5575   -0.4055   43.2321 N   0  0  0  0  0  0  0  0  0  0  0  0
    4.5233    0.0727   42.5988 N   0  0  0  0  0  0  0  0  0  0  0  0
    5.5185   -1.4416   44.0420 C   0  0  0  0  0  0  0  0  0  0  0  0
    4.3875   -2.2245   44.1531 C   0  0  0  0  0  0  0  0  0  0  0  0
    3.2861   -1.8496   43.3848 C   0  0  0  0  0  0  0  0  0  0  0  0
    3.4114   -0.6332   42.6207 C   0  0  0  0  0  0  0  0  0  0  0  0
    2.0148   -2.5286   43.3349 C   0  0  0  0  0  0  0  0  0  0  0  0
    2.2040   -0.1772   41.8915 C   0  0  0  0  0  0  0  0  0  0  0  0
    6.7404   -1.7719   44.8313 C   0  0  0  0  0  0  0  0  0  0  0  0
    4.4493   -3.3769   44.9530 C   0  0  0  0  0  0  0  0  0  0  0  0
    0.9770   -2.1010   42.5872 C   0  0  0  0  0  0  0  0  0  0  0  0
    7.8435   -0.9501   44.8922 C   0  0  0  0  0  0  0  0  0  0  0  0
    8.8174   -1.2323   45.8656 C   0  0  0  0  0  0  0  0  0  0  0  0
    6.6450   -2.9978   45.6522 C   0  0  0  0  0  0  0  0  0  0  0  0
    9.9746   -0.4271   45.9704 O   0  0  0  0  0  0  0  0  0  0  0  0
    5.5292   -3.7498   45.6783 C   0  0  0  0  0  0  0  0  0  0  0  0
    1.1920   -0.9070   41.7693 C   0  0  0  0  0  0  0  0  0  0  0  0
   -0.3843   -2.8698   42.4939 C   0  0  2  0  0  0  0  0  0  0  0  0
    8.7251   -2.4823   46.6768 C   0  0  0  0  0  0  0  0  0  0  0  0
    7.7029   -3.2957   46.6249 C   0  0  0  0  0  0  0  0  0  0  0  0
    9.8614   -2.7430   47.5101 O   0  0  0  0  0  0  0  0  0  0  0  0
   -0.2015   -4.0106   42.6788 O   0  0  0  0  0  0  0  0  0  0  0  0
   -1.0944   -2.5505   41.3157 O   0  0  0  0  0  0  0  0  0  0  0  0
   10.8697   -3.2285   46.9719 C   0  0  0  0  0  0  0  0  0  0  0  0
   -2.2803   -2.8979   41.2954 C   0  0  0  0  0  0  0  0  0  0  0  0
  1  2  2  0
  1  3  1  0
  3  4  2  0
  4  5  1  0
  2  6  1  0
  5  6  2  0
  5  7  1  0
  6  8  1  0
  3  9  1  0
  4 10  1  0
  7 11  2  0
  9 12  2  0
 12 13  1  0
  9 14  1  0
 13 15  1  0
 10 16  2  0
 14 16  1  0
  8 17  2  0
 11 17  1  0
 11 18  1  0
 13 19  2  0
 14 20  2  0
 19 20  1  0
 19 21  1  0
 18 22  1  6
 18 23  1  0
 21 24  1  0
 23 25  1  0
M  END
$$$$
O14757_Pocket2Mol_idx-in-all-generaetd-723
     RDKit          3D

 32 35  0  0  0  0  0  0  0  0999 V2000
    4.5142    0.3543   42.7132 N   0  0  0  0  0  0  0  0  0  0  0  0
    3.5107   -0.4860   42.6298 C   0  0  0  0  0  0  0  0  0  0  0  0
    3.5891   -1.7637   43.2512 N   0  0  0  0  0  0  0  0  0  0  0  0
    5.5470   -0.0112   43.3539 C   0  0  0  0  0  0  0  0  0  0  0  0
    2.1469   -0.1899   41.9512 C   0  0  0  0  0  0  0  0  0  0  0  0
    4.6725   -2.0734   43.8606 C   0  0  0  0  0  0  0  0  0  0  0  0
    5.7749   -1.1829   43.9325 C   0  0  0  0  0  0  0  0  0  0  0  0
    4.7150   -3.3068   44.6440 C   0  0  0  0  0  0  0  0  0  0  0  0
    6.9086   -1.5797   44.6919 C   0  0  0  0  0  0  0  0  0  0  0  0
    3.5691   -4.2517   44.6407 C   0  0  0  0  0  0  0  0  0  0  0  0
    2.3573   -4.0060   44.5430 C   0  0  0  0  0  0  0  0  0  0  0  0
    6.9170   -2.8018   45.4663 C   0  0  0  0  0  0  0  0  0  0  0  0
    5.8006   -3.6152   45.4297 C   0  0  0  0  0  0  0  0  0  0  0  0
    8.0903   -3.1108   46.2193 C   0  0  0  0  0  0  0  0  0  0  0  0
    4.0064   -5.4798   44.1304 O   0  0  0  0  0  0  0  0  0  0  0  0
    1.3499   -4.4927   43.7488 C   0  0  0  0  0  0  0  0  0  0  0  0
    8.9407   -2.1153   46.7855 N   0  0  0  0  0  0  0  0  0  0  0  0
    9.9131   -2.4307   47.6296 C   0  0  0  0  0  0  0  0  0  0  0  0
    9.9401   -2.1931   48.7722 O   0  0  0  0  0  0  0  0  0  0  0  0
    1.6925   -3.8787   45.7737 C   0  0  0  0  0  0  0  0  0  0  0  0
    0.0956   -4.4506   43.8726 C   0  0  0  0  0  0  0  0  0  0  0  0
   -0.4743   -4.1254   44.9651 C   0  0  0  0  0  0  0  0  0  0  0  0
   11.1474   -2.9718   46.9683 C   0  0  0  0  0  0  0  0  0  0  0  0
    0.1760   -3.8909   45.9333 C   0  0  0  0  0  0  0  0  0  0  0  0
   11.1208   -4.2039   46.7415 C   0  0  0  0  0  0  0  0  0  0  0  0
   12.2252   -2.1376   46.6926 C   0  0  0  0  0  0  0  0  0  0  0  0
   12.2265   -0.6255   46.8102 C   0  0  0  0  0  0  0  0  0  0  0  0
   12.3000   -4.8926   46.1733 C   0  0  0  0  0  0  0  0  0  0  0  0
   13.1584   -0.0728   46.0706 O   0  0  0  0  0  0  0  0  0  0  0  0
   13.4242   -4.1385   46.0333 C   0  0  0  0  0  0  0  0  0  0  0  0
   11.1564   -0.0997   47.0747 O   0  0  0  0  0  0  0  0  0  0  0  0
   13.4169   -2.7650   46.1651 C   0  0  0  0  0  0  0  0  0  0  0  0
  1  2  2  0
  2  3  1  0
  1  4  1  0
  2  5  1  0
  3  6  2  0
  4  7  2  0
  6  7  1  0
  6  8  1  0
  7  9  1  0
  8 10  1  0
 10 11  1  0
  9 12  2  0
  8 13  2  0
 12 13  1  0
 12 14  1  0
 10 15  2  0
 11 16  2  0
 14 17  1  0
 17 18  1  0
 18 19  2  0
 11 20  1  0
 16 21  1  0
 21 22  2  0
 18 23  1  0
 20 24  2  0
 22 24  1  0
 23 25  2  0
 23 26  1  0
 26 27  1  0
 25 28  1  0
 27 29  2  0
 28 30  2  0
 27 31  1  0
 26 32  2  0
 30 32  1  0
M  END
$$$$
O14757_Pocket2Mol_idx-in-all-generaetd-724
     RDKit          3D

 28 31  0  0  0  0  0  0  0  0999 V2000
    0.3497   -2.5592   41.5321 C   0  0  0  0  0  0  0  0  0  0  0  0
    0.7059   -1.3065   41.4152 C   0  0  0  0  0  0  0  0  0  0  0  0
    2.0121   -0.9206   42.0074 C   0  0  0  0  0  0  0  0  0  0  0  0
    2.8273   -1.8583   42.7096 C   0  0  0  0  0  0  0  0  0  0  0  0
   -0.9158   -2.9896   41.0259 O   0  0  0  0  0  0  0  0  0  0  0  0
    2.1785   -3.2182   42.8202 C   0  0  0  0  0  0  0  0  0  0  0  0
    2.9957   -4.0364   43.6549 N   0  0  0  0  0  0  0  0  0  0  0  0
    1.0381   -3.5102   42.3147 C   0  0  0  0  0  0  0  0  0  0  0  0
    4.0501   -1.4436   43.3296 C   0  0  0  0  0  0  0  0  0  0  0  0
    4.2345   -3.7127   44.1966 C   0  0  0  0  0  0  0  0  0  0  0  0
    4.9099   -4.6363   45.0387 N   0  0  0  0  0  0  0  0  0  0  0  0
    4.7563   -2.4299   44.0678 C   0  0  0  0  0  0  0  0  0  0  0  0
    6.0306   -2.0532   44.6670 C   0  0  0  0  0  0  0  0  0  0  0  0
    4.6111   -0.1656   43.0716 N   0  0  0  0  0  0  0  0  0  0  0  0
    6.7834   -2.7598   45.5925 N   0  0  0  0  0  0  0  0  0  0  0  0
    8.0062   -2.3962   46.0654 C   0  0  0  0  0  0  0  0  0  0  0  0
    8.3845   -1.1262   46.4117 C   0  0  0  0  0  0  0  0  0  0  0  0
    6.3026   -0.6817   44.5619 N   0  0  0  0  0  0  0  0  0  0  0  0
    9.7158   -1.1202   46.5501 C   0  0  0  0  0  0  0  0  0  0  0  0
    8.4022   -3.1552   47.2051 C   0  0  0  0  0  0  0  0  0  0  0  0
   -2.1369   -2.6089   41.5214 C   0  0  0  0  0  0  0  0  0  0  0  0
    5.5171    0.0680   43.6112 N   0  0  0  0  0  0  0  0  0  0  0  0
    9.8951   -3.1296   47.3739 C   0  0  0  0  0  0  0  0  0  0  0  0
   10.1642   -1.8158   47.6740 N   0  0  0  0  0  0  0  0  0  0  0  0
   11.6310   -1.7072   48.0642 C   0  0  1  0  0  0  0  0  0  0  0  0
   12.3741   -1.5906   47.0005 O   0  0  0  0  0  0  0  0  0  0  0  0
   11.8562   -0.8870   49.1550 C   0  0  0  0  0  0  0  0  0  0  0  0
   13.6174   -2.2847   47.0596 C   0  0  0  0  0  0  0  0  0  0  0  0
  1  2  2  0
  2  3  1  0
  3  4  2  0
  1  5  1  0
  4  6  1  0
  6  7  1  0
  1  8  1  0
  6  8  2  0
  4  9  1  0
  7 10  2  0
 10 11  1  0
  9 12  2  0
 10 12  1  0
 12 13  1  0
  9 14  1  0
 13 15  1  0
 15 16  1  0
 16 17  1  0
 13 18  2  0
 17 19  1  0
 16 20  1  0
  5 21  1  0
 14 22  2  0
 18 22  1  0
 20 23  1  0
 19 24  1  0
 23 24  1  0
 24 25  1  0
 25 26  1  0
 25 27  1  1
 26 28  1  0
M  END
$$$$
O14757_Pocket2Mol_idx-in-all-generaetd-725
     RDKit          3D

 23 26  0  0  0  0  0  0  0  0999 V2000
    5.5575   -0.4055   43.2321 N   0  0  0  0  0  0  0  0  0  0  0  0
    4.5233    0.0727   42.5988 N   0  0  0  0  0  0  0  0  0  0  0  0
    5.5185   -1.4416   44.0420 C   0  0  0  0  0  0  0  0  0  0  0  0
    4.3875   -2.2245   44.1531 C   0  0  0  0  0  0  0  0  0  0  0  0
    3.2861   -1.8496   43.3848 C   0  0  0  0  0  0  0  0  0  0  0  0
    3.4114   -0.6332   42.6207 C   0  0  0  0  0  0  0  0  0  0  0  0
    2.0148   -2.5286   43.3349 C   0  0  0  0  0  0  0  0  0  0  0  0
    2.2040   -0.1772   41.8915 C   0  0  0  0  0  0  0  0  0  0  0  0
    6.7404   -1.7719   44.8313 C   0  0  0  0  0  0  0  0  0  0  0  0
    4.4493   -3.3769   44.9530 C   0  0  0  0  0  0  0  0  0  0  0  0
    0.9770   -2.1010   42.5872 C   0  0  0  0  0  0  0  0  0  0  0  0
    7.8435   -0.9501   44.8922 C   0  0  0  0  0  0  0  0  0  0  0  0
    8.8174   -1.2323   45.8656 C   0  0  0  0  0  0  0  0  0  0  0  0
    6.6450   -2.9978   45.6522 C   0  0  0  0  0  0  0  0  0  0  0  0
    9.9746   -0.4271   45.9704 O   0  0  0  0  0  0  0  0  0  0  0  0
    5.5292   -3.7498   45.6783 C   0  0  0  0  0  0  0  0  0  0  0  0
    1.1920   -0.9070   41.7693 C   0  0  0  0  0  0  0  0  0  0  0  0
   -0.3843   -2.8698   42.4939 C   0  0  0  0  0  0  0  0  0  0  0  0
    8.7251   -2.4823   46.6768 C   0  0  0  0  0  0  0  0  0  0  0  0
    7.7029   -3.2957   46.6249 C   0  0  0  0  0  0  0  0  0  0  0  0
    9.8614   -2.7430   47.5101 O   0  0  0  0  0  0  0  0  0  0  0  0
   10.0686   -2.2601   48.6242 C   0  0  0  0  0  0  0  0  0  0  0  0
   -0.4418   -3.6843   41.3652 C   0  0  0  0  0  0  0  0  0  0  0  0
  1  2  2  0
  1  3  1  0
  3  4  2  0
  4  5  1  0
  2  6  1  0
  5  6  2  0
  5  7  1  0
  6  8  1  0
  3  9  1  0
  4 10  1  0
  7 11  2  0
  9 12  2  0
 12 13  1  0
  9 14  1  0
 13 15  1  0
 10 16  2  0
 14 16  1  0
  8 17  2  0
 11 17  1  0
 11 18  1  0
 13 19  2  0
 14 20  2  0
 19 20  1  0
 19 21  1  0
 21 22  1  0
 18 23  1  0
M  END
$$$$
O14757_Pocket2Mol_idx-in-all-generaetd-726
     RDKit          3D

 41 48  0  0  0  0  0  0  0  0999 V2000
    4.8037   -0.1366   42.7100 N   0  0  0  0  0  0  0  0  0  0  0  0
    3.6577   -0.7759   42.7186 C   0  0  0  0  0  0  0  0  0  0  0  0
    3.6660   -1.8665   43.4760 C   0  0  0  0  0  0  0  0  0  0  0  0
    2.7271   -2.8718   43.6599 C   0  0  0  0  0  0  0  0  0  0  0  0
    2.4846   -0.2994   42.1254 N   0  0  0  0  0  0  0  0  0  0  0  0
    5.0524   -1.7697   43.9367 C   0  0  0  0  0  0  0  0  0  0  0  0
    1.4917   -2.9000   43.0914 C   0  0  0  0  0  0  0  0  0  0  0  0
    3.1274   -3.9503   44.5163 C   0  0  0  0  0  0  0  0  0  0  0  0
    1.0744   -1.9066   42.1491 C   0  0  2  0  0  0  0  0  0  0  0  0
    5.6624   -0.7003   43.4895 C   0  0  0  0  0  0  0  0  0  0  0  0
    5.5753   -2.5784   45.0324 C   0  0  0  0  0  0  0  0  0  0  0  0
    0.4030   -3.6297   43.4883 N   0  0  0  0  0  0  0  0  0  0  0  0
    1.5052   -0.8077   41.7519 C   0  0  0  0  0  0  0  0  0  0  0  0
   -0.5645   -3.4039   42.5585 N   0  0  0  0  0  0  0  0  0  0  0  0
    2.5059   -5.1012   44.7935 C   0  0  0  0  0  0  0  0  0  0  0  0
    4.4581   -3.8218   45.2947 C   0  0  0  0  0  0  0  0  0  0  0  0
   -0.3089   -2.3979   41.8128 C   0  0  0  0  0  0  0  0  0  0  0  0
    6.6435   -2.6577   45.6991 C   0  0  0  0  0  0  0  0  0  0  0  0
    7.0869   -3.7008   46.4717 C   0  0  0  0  0  0  0  0  0  0  0  0
    7.5912   -1.5296   45.5455 C   0  0  0  0  0  0  0  0  0  0  0  0
    8.7765   -1.4352   46.2248 C   0  0  0  0  0  0  0  0  0  0  0  0
    6.3069   -4.7944   46.6836 O   0  0  0  0  0  0  0  0  0  0  0  0
    4.8984   -4.5252   46.1302 C   0  0  0  0  0  0  0  0  0  0  0  0
    4.2122   -5.9932   46.2216 C   0  0  0  0  0  0  0  0  0  0  0  0
    8.3395   -3.6608   47.2172 C   0  0  0  0  0  0  0  0  0  0  0  0
    4.6690   -6.8778   47.1549 O   0  0  0  0  0  0  0  0  0  0  0  0
    9.1822   -2.5745   47.1243 C   0  0  0  0  0  0  0  0  0  0  0  0
   10.4419   -2.3733   47.8332 C   0  0  0  0  0  0  0  0  0  0  0  0
   10.5277   -1.5655   48.7043 O   0  0  0  0  0  0  0  0  0  0  0  0
    2.9373   -6.0805   45.7037 C   0  0  0  0  0  0  0  0  0  0  0  0
   11.4886   -2.8791   47.1590 O   0  0  0  0  0  0  0  0  0  0  0  0
   12.5752   -2.3359   47.1530 C   0  0  0  0  0  0  0  0  0  0  0  0
   12.9193   -1.9090   45.7253 C   0  0  0  0  0  0  0  0  0  0  0  0
   14.0461   -1.3819   45.4309 C   0  0  0  0  0  0  0  0  0  0  0  0
   15.2160   -1.4809   46.2066 C   0  0  0  0  0  0  0  0  0  0  0  0
   13.7799   -2.7485   47.7604 C   0  0  0  0  0  0  0  0  0  0  0  0
   13.6598   -3.4228   49.0595 C   0  0  0  0  0  0  0  0  0  0  0  0
   13.5409   -4.6430   49.1659 O   0  0  0  0  0  0  0  0  0  0  0  0
   15.0097   -2.2191   47.4071 C   0  0  0  0  0  0  0  0  0  0  0  0
   14.1873   -0.7071   44.1888 O   0  0  0  0  0  0  0  0  0  0  0  0
   13.3781   -2.7280   50.1565 O   0  0  0  0  0  0  0  0  0  0  0  0
  1  2  2  0
  2  3  1  0
  3  4  2  0
  2  5  1  0
  3  6  1  0
  4  7  1  0
  4  8  1  0
  7  9  1  0
  1 10  1  0
  6 10  1  0
  6 11  2  0
  7 12  2  0
  5 13  2  0
  9 13  1  1
 12 14  1  0
  8 15  2  0
  8 16  1  0
 11 16  1  0
  9 17  1  0
 14 17  2  0
 11 18  1  0
 18 19  2  0
 18 20  1  0
 20 21  2  0
 19 22  1  0
 16 23  2  0
 22 23  1  0
 23 24  1  0
 19 25  1  0
 24 26  1  0
 21 27  1  0
 25 27  2  0
 27 28  1  0
 28 29  2  0
 15 30  1  0
 24 30  2  0
 28 31  1  0
 31 32  1  0
 32 33  2  0
 33 34  1  0
 34 35  2  0
 32 36  1  0
 36 37  1  0
 37 38  2  0
 35 39  1  0
 36 39  2  0
 34 40  1  0
 37 41  1  0
M  END
$$$$
O14757_Pocket2Mol_idx-in-all-generaetd-727
     RDKit          3D

 39 47  0  0  0  0  0  0  0  0999 V2000
    4.8173    0.2791   42.6993 N   0  0  0  0  0  0  0  0  0  0  0  0
    5.3297   -0.7477   43.3688 C   0  0  0  0  0  0  0  0  0  0  0  0
    3.4732   -0.2235   42.4530 C   0  0  0  0  0  0  0  0  0  0  0  0
    4.4984   -1.7876   43.6214 C   0  0  0  0  0  0  0  0  0  0  0  0
    3.3438   -1.5190   42.9379 C   0  0  0  0  0  0  0  0  0  0  0  0
    2.1381   -2.3401   42.8254 C   0  0  0  0  0  0  0  0  0  0  0  0
    2.3894    0.3572   41.9843 N   0  0  0  0  0  0  0  0  0  0  0  0
    4.9180   -3.0430   44.3829 C   0  0  0  0  0  0  0  0  0  0  0  0
    5.9444   -2.9314   45.3934 C   0  0  0  0  0  0  0  0  0  0  0  0
    4.2808   -4.1329   44.3252 C   0  0  0  0  0  0  0  0  0  0  0  0
    3.1588   -4.4221   43.4852 O   0  0  0  0  0  0  0  0  0  0  0  0
    4.5704   -5.2518   45.1995 C   0  0  0  0  0  0  0  0  0  0  0  0
    1.9853   -3.6792   43.3495 C   0  0  0  0  0  0  0  0  0  0  0  0
    0.9181   -4.3294   43.4638 C   0  0  0  0  0  0  0  0  0  0  0  0
    6.7403   -1.6226   45.5272 C   0  0  2  0  0  0  0  0  0  0  0  0
    0.9752   -1.7845   42.3366 C   0  0  0  0  0  0  0  0  0  0  0  0
    6.2516   -3.7287   46.2722 C   0  0  0  0  0  0  0  0  0  0  0  0
   -0.2404   -2.4179   42.2529 C   0  0  0  0  0  0  0  0  0  0  0  0
   -1.3835   -1.8904   41.6559 N   0  0  0  0  0  0  0  0  0  0  0  0
    3.8706   -6.4216   45.1394 O   0  0  0  0  0  0  0  0  0  0  0  0
    0.9456   -0.2789   41.7649 C   0  0  0  0  0  0  0  0  0  0  0  0
   -0.2678   -3.6969   42.7575 C   0  0  0  0  0  0  0  0  0  0  0  0
    6.3913   -0.7000   44.3807 N   0  0  0  0  0  0  0  0  0  0  0  0
    7.9391   -1.5867   46.0069 C   0  0  0  0  0  0  0  0  0  0  0  0
    8.7787   -0.4879   45.9761 O   0  0  0  0  0  0  0  0  0  0  0  0
    5.3853   -5.1216   46.3780 C   0  0  0  0  0  0  0  0  0  0  0  0
    8.4504   -2.7517   46.6262 N   0  0  0  0  0  0  0  0  0  0  0  0
    7.4807   -3.7374   47.0380 C   0  0  0  0  0  0  0  0  0  0  0  0
    9.7442   -2.7944   46.9091 C   0  0  0  0  0  0  0  0  0  0  0  0
   10.5425   -3.4426   45.9689 C   0  0  0  0  0  0  0  0  0  0  0  0
   10.3017   -2.2524   47.9671 C   0  0  0  0  0  0  0  0  0  0  0  0
    9.4843   -1.5208   48.9551 C   0  0  0  0  0  0  0  0  0  0  0  0
   11.9725   -3.4596   46.1303 C   0  0  0  0  0  0  0  0  0  0  0  0
   11.7296   -2.3286   48.1612 C   0  0  0  0  0  0  0  0  0  0  0  0
   12.2963   -1.7544   49.3978 O   0  0  0  0  0  0  0  0  0  0  0  0
   12.5592   -2.9761   47.3323 C   0  0  0  0  0  0  0  0  0  0  0  0
   11.5359   -0.8340   49.9214 C   0  0  2  0  0  0  0  0  0  0  0  0
   12.2527   -0.4583   51.2093 O   0  0  0  0  0  0  0  0  0  0  0  0
   10.1625   -1.2451   50.2671 C   0  0  0  0  0  0  0  0  0  0  0  0
  1  2  2  0
  1  3  1  0
  2  4  1  0
  3  5  1  0
  4  5  2  0
  5  6  1  0
  3  7  2  0
  4  8  1  0
  8  9  1  0
  8 10  2  0
 10 11  1  0
 10 12  1  0
  6 13  1  0
 11 13  1  0
 13 14  2  0
  9 15  1  0
  6 16  2  0
  9 17  2  0
 16 18  1  0
 18 19  1  0
 12 20  1  0
  7 21  1  0
 16 21  1  0
 14 22  1  0
 18 22  2  0
  2 23  1  0
 15 23  1  6
 15 24  1  0
 24 25  2  0
 12 26  2  0
 17 26  1  0
 24 27  1  0
 17 28  1  0
 27 28  1  0
 27 29  1  0
 29 30  2  0
 29 31  1  0
 31 32  1  0
 30 33  1  0
 31 34  2  0
 34 35  1  0
 33 36  2  0
 34 36  1  0
 35 37  1  0
 37 38  1  1
 32 39  1  0
 37 39  1  0
M  END
$$$$
O14757_Pocket2Mol_idx-in-all-generaetd-728
     RDKit          3D

 19 21  0  0  0  0  0  0  0  0999 V2000
    5.3420    0.2589   42.8836 N   0  0  0  0  0  0  0  0  0  0  0  0
    5.6740   -0.8311   43.5645 C   0  0  0  0  0  0  0  0  0  0  0  0
    3.9899   -0.0458   42.5141 N   0  0  0  0  0  0  0  0  0  0  0  0
    4.6606   -1.7163   43.6337 C   0  0  0  0  0  0  0  0  0  0  0  0
    3.6244   -1.2025   42.8928 C   0  0  0  0  0  0  0  0  0  0  0  0
    2.3780   -1.7713   42.6359 C   0  0  0  0  0  0  0  0  0  0  0  0
    4.5721   -3.0267   44.2590 C   0  0  0  0  0  0  0  0  0  0  0  0
    1.3110   -1.1954   41.9273 C   0  0  0  0  0  0  0  0  0  0  0  0
    2.2543   -3.0870   43.2441 C   0  0  0  0  0  0  0  0  0  0  0  0
    3.1715   -3.6328   44.0301 C   0  0  0  0  0  0  0  0  0  0  0  0
    6.9681   -1.0792   44.3218 C   0  0  0  0  0  0  0  0  0  0  0  0
    1.0910   -3.7907   43.0243 C   0  0  0  0  0  0  0  0  0  0  0  0
    1.4564    0.1117   41.5157 O   0  0  0  0  0  0  0  0  0  0  0  0
    0.0846   -3.1773   42.2837 C   0  0  0  0  0  0  0  0  0  0  0  0
    0.1999   -1.8539   41.7241 C   0  0  0  0  0  0  0  0  0  0  0  0
    7.0981   -1.0417   45.7118 C   0  0  0  0  0  0  0  0  0  0  0  0
    8.3774   -1.3040   46.3140 C   0  0  0  0  0  0  0  0  0  0  0  0
    9.2752   -1.8110   45.7256 O   0  0  0  0  0  0  0  0  0  0  0  0
    8.5396   -0.9699   47.5173 O   0  0  0  0  0  0  0  0  0  0  0  0
  1  2  2  0
  1  3  1  0
  2  4  1  0
  3  5  1  0
  4  5  2  0
  5  6  1  0
  4  7  1  0
  6  8  2  0
  6  9  1  0
  7 10  2  0
  9 10  1  0
  2 11  1  0
  9 12  2  0
  8 13  1  0
 12 14  1  0
  8 15  1  0
 14 15  2  0
 11 16  1  0
 16 17  1  0
 17 18  2  0
 17 19  1  0
M  END
$$$$
O14757_Pocket2Mol_idx-in-all-generaetd-729
     RDKit          3D

 35 43  0  0  0  0  0  0  0  0999 V2000
    1.5482   -0.3111   41.9233 C   0  0  0  0  0  0  0  0  0  0  0  0
    2.7284    0.2018   42.1525 N   0  0  0  0  0  0  0  0  0  0  0  0
    3.7893   -0.3016   42.7005 C   0  0  0  0  0  0  0  0  0  0  0  0
    3.3781   -1.7350   43.0000 C   0  0  0  0  0  0  0  0  0  0  0  0
    2.0339   -1.9619   42.6217 C   0  0  0  0  0  0  0  0  0  0  0  0
    5.0090    0.1219   42.9340 N   0  0  0  0  0  0  0  0  0  0  0  0
    4.2895   -2.4979   43.6707 C   0  0  0  0  0  0  0  0  0  0  0  0
    5.8391   -0.6675   43.6343 C   0  0  0  0  0  0  0  0  0  0  0  0
    6.9849   -0.2377   44.0028 N   0  0  0  0  0  0  0  0  0  0  0  0
    4.0426   -3.8794   44.0832 C   0  0  0  0  0  0  0  0  0  0  0  0
    7.6796   -0.8734   44.9326 C   0  0  0  0  0  0  0  0  0  0  0  0
    1.1064   -2.9576   42.4211 C   0  0  0  0  0  0  0  0  0  0  0  0
    5.5298   -1.9496   44.0315 C   0  0  0  0  0  0  0  0  0  0  0  0
    3.8954   -4.1817   45.4718 C   0  0  0  0  0  0  0  0  0  0  0  0
    0.6765   -3.5480   43.4006 C   0  0  1  0  0  0  0  0  0  0  0  0
    0.5804   -3.2191   41.1635 C   0  0  0  0  0  0  0  0  0  0  0  0
    2.8083   -4.8227   45.9203 N   0  0  0  0  0  0  0  0  0  0  0  0
   -0.1574   -4.5754   42.9329 N   0  0  0  0  0  0  0  0  0  0  0  0
    6.5271   -2.5531   44.9677 C   0  0  0  0  0  0  0  0  0  0  0  0
   -0.2272   -4.3703   41.5137 C   0  0  0  0  0  0  0  0  0  0  0  0
    7.5095   -2.0029   45.3993 C   0  0  0  0  0  0  0  0  0  0  0  0
    8.2550   -2.6982   46.3988 C   0  0  0  0  0  0  0  0  0  0  0  0
    8.8975   -0.3029   45.3267 O   0  0  0  0  0  0  0  0  0  0  0  0
    4.8299   -4.4637   46.4212 C   0  0  0  0  0  0  0  0  0  0  0  0
    4.2707   -4.9248   47.6295 N   0  0  0  0  0  0  0  0  0  0  0  0
    3.2045   -5.2092   47.1521 C   0  0  0  0  0  0  0  0  0  0  0  0
    1.4482   -4.6186   45.4134 C   0  0  0  0  0  0  0  0  0  0  0  0
    1.2398   -3.5043   44.6236 O   0  0  0  0  0  0  0  0  0  0  0  0
    7.8521   -3.9584   46.8773 C   0  0  0  0  0  0  0  0  0  0  0  0
    8.4079   -4.7553   47.7407 C   0  0  0  0  0  0  0  0  0  0  0  0
    6.2843   -3.8191   46.0063 C   0  0  2  0  0  0  0  0  0  0  0  0
    9.5033   -2.3185   47.0499 C   0  0  0  0  0  0  0  0  0  0  0  0
    9.5307   -4.4087   48.2956 C   0  0  0  0  0  0  0  0  0  0  0  0
   10.1671   -3.1855   47.9402 C   0  0  0  0  0  0  0  0  0  0  0  0
    0.5356   -5.2821   45.8428 O   0  0  0  0  0  0  0  0  0  0  0  0
  1  2  1  0
  2  3  2  0
  3  4  1  0
  1  5  2  0
  4  5  1  0
  3  6  1  0
  4  7  2  0
  6  8  1  0
  8  9  1  0
  7 10  1  0
  9 11  1  0
  5 12  1  0
  7 13  1  0
  8 13  2  0
 10 14  1  0
 12 15  1  0
 12 16  2  0
 14 17  1  0
 15 18  1  0
 13 19  1  0
 16 20  1  0
 18 20  2  0
 11 21  1  0
 19 21  2  0
 21 22  1  0
 11 23  2  0
 14 24  2  0
 24 25  1  0
 17 26  1  0
 25 26  2  0
 17 27  1  0
 15 28  1  6
 27 28  1  0
 22 29  2  0
 29 30  1  0
 19 31  1  0
 31 24  1  1
 29 31  1  0
 22 32  1  0
 30 33  2  0
 32 34  2  0
 33 34  1  0
 27 35  2  0
M  END
$$$$
O14757_Pocket2Mol_idx-in-all-generaetd-730
     RDKit          3D

 40 46  0  0  0  0  0  0  0  0999 V2000
    1.5482   -0.3111   41.9233 C   0  0  0  0  0  0  0  0  0  0  0  0
    2.7284    0.2018   42.1525 N   0  0  0  0  0  0  0  0  0  0  0  0
    3.7893   -0.3016   42.7005 C   0  0  0  0  0  0  0  0  0  0  0  0
    3.3781   -1.7350   43.0000 C   0  0  0  0  0  0  0  0  0  0  0  0
    2.0339   -1.9619   42.6217 C   0  0  0  0  0  0  0  0  0  0  0  0
    4.1166   -2.4997   43.8458 C   0  0  0  0  0  0  0  0  0  0  0  0
    1.1731   -3.0051   42.5773 C   0  0  0  0  0  0  0  0  0  0  0  0
    0.4701   -3.2344   41.4901 C   0  0  0  0  0  0  0  0  0  0  0  0
    5.3799   -1.7814   44.2691 C   0  0  0  0  0  0  0  0  0  0  0  0
    5.0159   -0.0180   43.1201 N   0  0  0  0  0  0  0  0  0  0  0  0
    5.7693   -0.6937   43.8418 C   0  0  0  0  0  0  0  0  0  0  0  0
    0.8078   -3.6166   43.6782 C   0  0  0  0  0  0  0  0  0  0  0  0
    0.0663   -4.7011   43.7415 N   0  0  0  0  0  0  0  0  0  0  0  0
    6.2223   -2.6843   45.1565 C   0  0  0  0  0  0  0  0  0  0  0  0
    6.9599   -0.2351   44.2608 N   0  0  0  0  0  0  0  0  0  0  0  0
    5.9065   -3.9037   45.7499 N   0  0  0  0  0  0  0  0  0  0  0  0
   -0.5459   -5.1185   42.5870 C   0  0  0  0  0  0  0  0  0  0  0  0
    5.7480   -4.0340   46.9810 C   0  0  0  0  0  0  0  0  0  0  0  0
    7.4448   -1.8511   45.4198 C   0  0  0  0  0  0  0  0  0  0  0  0
    7.7572   -0.7827   45.0128 C   0  0  0  0  0  0  0  0  0  0  0  0
    8.4076   -2.7217   46.4541 C   0  0  0  0  0  0  0  0  0  0  0  0
    9.3167   -2.0988   47.1049 N   0  0  0  0  0  0  0  0  0  0  0  0
   -0.4719   -4.3893   41.5406 C   0  0  0  0  0  0  0  0  0  0  0  0
    8.3667   -4.0284   46.5743 N   0  0  0  0  0  0  0  0  0  0  0  0
   10.1532   -2.5726   47.9567 C   0  0  0  0  0  0  0  0  0  0  0  0
   11.0726   -1.7892   48.6998 C   0  0  0  0  0  0  0  0  0  0  0  0
   10.4886   -0.9372   49.4584 C   0  0  0  0  0  0  0  0  0  0  0  0
    8.9772   -4.5617   47.6013 C   0  0  0  0  0  0  0  0  0  0  0  0
    9.9765   -3.9922   48.2636 C   0  0  0  0  0  0  0  0  0  0  0  0
   11.3393   -0.1462   50.3539 C   0  0  0  0  0  0  0  0  0  0  0  0
   12.4892   -1.8956   48.4941 C   0  0  0  0  0  0  0  0  0  0  0  0
   12.8930   -0.3809   50.0834 C   0  0  0  0  0  0  0  0  0  0  0  0
   12.9994   -2.9244   47.4139 C   0  0  0  0  0  0  0  0  0  0  0  0
   13.2804   -1.1960   49.2234 C   0  0  0  0  0  0  0  0  0  0  0  0
   13.2158   -2.3419   46.2078 C   0  0  0  0  0  0  0  0  0  0  0  0
   12.1688   -2.0557   45.4064 C   0  0  0  0  0  0  0  0  0  0  0  0
   12.3247   -1.4555   44.0967 C   0  0  0  0  0  0  0  0  0  0  0  0
   14.5018   -2.1953   45.5059 C   0  0  0  0  0  0  0  0  0  0  0  0
   14.6975   -1.6869   44.3429 C   0  0  0  0  0  0  0  0  0  0  0  0
   13.6060   -1.3275   43.6028 C   0  0  0  0  0  0  0  0  0  0  0  0
  1  2  1  0
  2  3  2  0
  3  4  1  0
  1  5  2  0
  4  5  1  0
  4  6  2  0
  5  7  1  0
  7  8  2  0
  6  9  1  0
  3 10  1  0
  9 11  2  0
 10 11  1  0
  7 12  1  0
 12 13  2  0
  9 14  1  0
 11 15  1  0
 14 16  1  0
 13 17  1  0
 16 18  1  0
 14 19  2  0
 15 20  2  0
 19 20  1  0
 19 21  1  0
 21 22  2  0
  8 23  1  0
 17 23  2  0
 21 24  1  0
 22 25  1  0
 25 26  1  0
 26 27  2  0
 24 28  2  0
 25 29  2  0
 28 29  1  0
 27 30  1  0
 26 31  1  0
 30 32  2  0
 31 33  1  0
 31 34  2  0
 32 34  1  0
 33 35  1  0
 35 36  2  0
 36 37  1  0
 35 38  1  0
 38 39  2  0
 37 40  2  0
 39 40  1  0
M  END
$$$$
O14757_Pocket2Mol_idx-in-all-generaetd-731
     RDKit          3D

 48 57  0  0  0  0  0  0  0  0999 V2000
    1.5482   -0.3111   41.9233 C   0  0  0  0  0  0  0  0  0  0  0  0
    2.7284    0.2018   42.1525 N   0  0  0  0  0  0  0  0  0  0  0  0
    3.7893   -0.3016   42.7005 C   0  0  0  0  0  0  0  0  0  0  0  0
    3.3781   -1.7350   43.0000 C   0  0  0  0  0  0  0  0  0  0  0  0
    2.0339   -1.9619   42.6217 C   0  0  0  0  0  0  0  0  0  0  0  0
    5.0090    0.1219   42.9340 N   0  0  0  0  0  0  0  0  0  0  0  0
    4.2895   -2.4979   43.6707 C   0  0  0  0  0  0  0  0  0  0  0  0
    5.8391   -0.6675   43.6343 C   0  0  0  0  0  0  0  0  0  0  0  0
    6.9849   -0.2377   44.0028 N   0  0  0  0  0  0  0  0  0  0  0  0
    4.0426   -3.8794   44.0832 C   0  0  0  0  0  0  0  0  0  0  0  0
    7.6796   -0.8734   44.9326 C   0  0  0  0  0  0  0  0  0  0  0  0
    1.1064   -2.9576   42.4211 C   0  0  0  0  0  0  0  0  0  0  0  0
    5.5298   -1.9496   44.0315 C   0  0  0  0  0  0  0  0  0  0  0  0
    3.8954   -4.1817   45.4718 C   0  0  0  0  0  0  0  0  0  0  0  0
    0.6765   -3.5480   43.4006 C   0  0  1  0  0  0  0  0  0  0  0  0
    0.5804   -3.2191   41.1635 C   0  0  0  0  0  0  0  0  0  0  0  0
    2.8083   -4.8227   45.9203 N   0  0  0  0  0  0  0  0  0  0  0  0
   -0.1574   -4.5754   42.9329 N   0  0  0  0  0  0  0  0  0  0  0  0
    6.5271   -2.5531   44.9677 C   0  0  0  0  0  0  0  0  0  0  0  0
   -0.2272   -4.3703   41.5137 C   0  0  0  0  0  0  0  0  0  0  0  0
    7.5095   -2.0029   45.3993 C   0  0  0  0  0  0  0  0  0  0  0  0
    8.2550   -2.6982   46.3988 C   0  0  1  0  0  0  0  0  0  0  0  0
    8.8975   -0.3029   45.3267 O   0  0  0  0  0  0  0  0  0  0  0  0
    4.8299   -4.4637   46.4212 C   0  0  0  0  0  0  0  0  0  0  0  0
    4.2707   -4.9248   47.6295 N   0  0  0  0  0  0  0  0  0  0  0  0
    3.2045   -5.2092   47.1521 C   0  0  0  0  0  0  0  0  0  0  0  0
    1.4482   -4.6186   45.4134 C   0  0  0  0  0  0  0  0  0  0  0  0
    1.3256   -3.7660   44.6394 N   0  0  0  0  0  0  0  0  0  0  0  0
    9.2816   -2.1418   47.1273 N   0  0  0  0  0  0  0  0  0  0  0  0
   10.0629   -3.1324   47.8508 C   0  0  0  0  0  0  0  0  0  0  0  0
    6.3491   -3.8960   46.0844 C   0  0  2  0  0  0  0  0  0  0  0  0
    7.4349   -3.5889   46.9054 C   0  0  0  0  0  0  0  0  0  0  0  0
   10.3145   -2.7271   49.0818 O   0  0  0  0  0  0  0  0  0  0  0  0
    0.6213   -5.4445   45.7455 O   0  0  0  0  0  0  0  0  0  0  0  0
   11.0262   -3.8136   47.1050 C   0  0  0  0  0  0  0  0  0  0  0  0
   12.1704   -3.3854   46.7547 C   0  0  0  0  0  0  0  0  0  0  0  0
   13.1080   -4.1111   46.0053 C   0  0  0  0  0  0  0  0  0  0  0  0
   14.3489   -3.5966   45.7888 C   0  0  0  0  0  0  0  0  0  0  0  0
   12.7430   -5.2725   45.5056 C   0  0  0  0  0  0  0  0  0  0  0  0
   14.6935   -2.2816   45.3353 C   0  0  0  0  0  0  0  0  0  0  0  0
   15.8828   -1.9964   44.9887 C   0  0  0  0  0  0  0  0  0  0  0  0
   15.4347   -4.4529   45.9716 C   0  0  0  0  0  0  0  0  0  0  0  0
   16.1869   -0.5957   44.4528 O   0  0  0  0  0  0  0  0  0  0  0  0
   16.7870   -3.8955   45.6256 C   0  0  0  0  0  0  0  0  0  0  0  0
   16.9850   -2.7386   45.1642 C   0  0  0  0  0  0  0  0  0  0  0  0
   10.5485   -5.0663   46.6528 C   0  0  0  0  0  0  0  0  0  0  0  0
   15.6948   -0.3235   43.2383 C   0  0  0  0  0  0  0  0  0  0  0  0
   11.4168   -5.7814   45.8330 C   0  0  0  0  0  0  0  0  0  0  0  0
  1  2  1  0
  2  3  2  0
  3  4  1  0
  1  5  2  0
  4  5  1  0
  3  6  1  0
  4  7  2  0
  6  8  1  0
  8  9  1  0
  7 10  1  0
  9 11  1  0
  5 12  1  0
  7 13  1  0
  8 13  2  0
 10 14  1  0
 12 15  1  0
 12 16  2  0
 14 17  1  0
 15 18  1  0
 13 19  1  0
 16 20  1  0
 18 20  2  0
 11 21  1  0
 19 21  2  0
 21 22  1  0
 11 23  2  0
 14 24  2  0
 24 25  1  0
 17 26  1  0
 25 26  2  0
 17 27  1  0
 15 28  1  6
 27 28  1  0
 22 29  1  1
 29 30  1  0
 19 31  1  0
 24 31  1  0
 22 32  1  0
 31 32  1  1
 30 33  2  0
 27 34  2  0
 30 35  1  0
 35 36  2  0
 36 37  1  0
 37 38  1  0
 37 39  2  0
 38 40  2  0
 40 41  1  0
 38 42  1  0
 41 43  1  0
 42 44  2  0
 41 45  2  0
 44 45  1  0
 35 46  1  0
 43 47  1  0
 39 48  1  0
 46 48  2  0
M  END
$$$$
O14757_Pocket2Mol_idx-in-all-generaetd-732
     RDKit          3D

 33 39  0  0  0  0  0  0  0  0999 V2000
    4.8173    0.2791   42.6993 N   0  0  0  0  0  0  0  0  0  0  0  0
    5.3297   -0.7477   43.3688 C   0  0  0  0  0  0  0  0  0  0  0  0
    3.4732   -0.2235   42.4530 C   0  0  0  0  0  0  0  0  0  0  0  0
    4.4984   -1.7876   43.6214 C   0  0  0  0  0  0  0  0  0  0  0  0
    3.3438   -1.5190   42.9379 C   0  0  0  0  0  0  0  0  0  0  0  0
    2.1381   -2.3401   42.8254 C   0  0  0  0  0  0  0  0  0  0  0  0
    2.3894    0.3572   41.9843 N   0  0  0  0  0  0  0  0  0  0  0  0
    4.9180   -3.0430   44.3829 C   0  0  0  0  0  0  0  0  0  0  0  0
    5.9444   -2.9314   45.3934 C   0  0  0  0  0  0  0  0  0  0  0  0
    4.2808   -4.1329   44.3252 C   0  0  0  0  0  0  0  0  0  0  0  0
    3.1588   -4.4221   43.4852 O   0  0  0  0  0  0  0  0  0  0  0  0
    4.5704   -5.2518   45.1995 C   0  0  0  0  0  0  0  0  0  0  0  0
    1.9853   -3.6792   43.3495 C   0  0  0  0  0  0  0  0  0  0  0  0
    0.9181   -4.3294   43.4638 C   0  0  0  0  0  0  0  0  0  0  0  0
    6.7403   -1.6226   45.5272 C   0  0  0  0  0  0  0  0  0  0  0  0
    0.9752   -1.7845   42.3366 C   0  0  0  0  0  0  0  0  0  0  0  0
    5.5543   -5.1294   46.1078 C   0  0  0  0  0  0  0  0  0  0  0  0
    7.9772   -1.5901   46.1526 C   0  0  0  0  0  0  0  0  0  0  0  0
    8.6171   -2.7180   46.2255 N   0  0  0  0  0  0  0  0  0  0  0  0
    6.5160   -0.7262   44.3482 C   0  0  0  0  0  0  0  0  0  0  0  0
    5.8670   -6.1665   47.0241 O   0  0  0  0  0  0  0  0  0  0  0  0
   -0.2437   -2.4672   42.2827 C   0  0  0  0  0  0  0  0  0  0  0  0
   -0.2692   -3.7414   42.8178 C   0  0  0  0  0  0  0  0  0  0  0  0
    6.3047   -3.9815   46.2287 C   0  0  0  0  0  0  0  0  0  0  0  0
    8.0291   -3.5777   47.1715 C   0  0  0  0  0  0  0  0  0  0  0  0
    7.2074   -4.2766   47.0234 C   0  0  0  0  0  0  0  0  0  0  0  0
    1.1879   -0.4281   41.8692 C   0  0  0  0  0  0  0  0  0  0  0  0
   10.1009   -2.3306   46.5895 C   0  0  0  0  0  0  0  0  0  0  0  0
   10.5049   -1.2887   46.4663 O   0  0  0  0  0  0  0  0  0  0  0  0
   10.9227   -3.5335   46.4365 C   0  0  0  0  0  0  0  0  0  0  0  0
   12.1079   -3.3365   45.9512 O   0  0  0  0  0  0  0  0  0  0  0  0
   10.5583   -4.6483   46.8220 O   0  0  0  0  0  0  0  0  0  0  0  0
   11.3676   -5.2758   47.7152 C   0  0  0  0  0  0  0  0  0  0  0  0
  1  2  2  0
  1  3  1  0
  2  4  1  0
  3  5  1  0
  4  5  2  0
  5  6  1  0
  3  7  2  0
  4  8  1  0
  8  9  2  0
  8 10  1  0
 10 11  1  0
 10 12  2  0
  6 13  2  0
 11 13  1  0
 13 14  1  0
  9 15  1  0
  6 16  1  0
 12 17  1  0
 15 18  1  0
 18 19  1  0
  2 20  1  0
 15 20  2  0
 17 21  1  0
 16 22  2  0
 14 23  2  0
 22 23  1  0
  9 24  1  0
 17 24  2  0
 19 25  1  0
 24 26  1  0
 25 26  2  0
  7 27  1  0
 16 27  1  0
 19 28  1  0
 28 29  2  0
 28 30  1  0
 30 31  2  0
 30 32  1  0
 32 33  1  0
M  END
$$$$
O14757_Pocket2Mol_idx-in-all-generaetd-733
     RDKit          3D

 49 58  0  0  0  0  0  0  0  0999 V2000
    1.5482   -0.3111   41.9233 C   0  0  0  0  0  0  0  0  0  0  0  0
    2.7284    0.2018   42.1525 N   0  0  0  0  0  0  0  0  0  0  0  0
    3.7893   -0.3016   42.7005 C   0  0  0  0  0  0  0  0  0  0  0  0
    3.3781   -1.7350   43.0000 C   0  0  0  0  0  0  0  0  0  0  0  0
    2.0339   -1.9619   42.6217 C   0  0  0  0  0  0  0  0  0  0  0  0
    5.0090    0.1219   42.9340 N   0  0  0  0  0  0  0  0  0  0  0  0
    4.2895   -2.4979   43.6707 C   0  0  0  0  0  0  0  0  0  0  0  0
    5.8391   -0.6675   43.6343 C   0  0  0  0  0  0  0  0  0  0  0  0
    6.9849   -0.2377   44.0028 N   0  0  0  0  0  0  0  0  0  0  0  0
    4.0426   -3.8794   44.0832 C   0  0  0  0  0  0  0  0  0  0  0  0
    7.6796   -0.8734   44.9326 C   0  0  0  0  0  0  0  0  0  0  0  0
    1.1064   -2.9576   42.4211 C   0  0  0  0  0  0  0  0  0  0  0  0
    5.5298   -1.9496   44.0315 C   0  0  0  0  0  0  0  0  0  0  0  0
    3.8954   -4.1817   45.4718 C   0  0  0  0  0  0  0  0  0  0  0  0
    0.6765   -3.5480   43.4006 C   0  0  1  0  0  0  0  0  0  0  0  0
    0.5804   -3.2191   41.1635 C   0  0  0  0  0  0  0  0  0  0  0  0
    2.8083   -4.8227   45.9203 N   0  0  0  0  0  0  0  0  0  0  0  0
   -0.1574   -4.5754   42.9329 N   0  0  0  0  0  0  0  0  0  0  0  0
    6.5271   -2.5531   44.9677 C   0  0  0  0  0  0  0  0  0  0  0  0
   -0.2272   -4.3703   41.5137 C   0  0  0  0  0  0  0  0  0  0  0  0
    7.5095   -2.0029   45.3993 C   0  0  0  0  0  0  0  0  0  0  0  0
    8.2550   -2.6982   46.3988 C   0  0  0  0  0  0  0  0  0  0  0  0
    8.8975   -0.3029   45.3267 O   0  0  0  0  0  0  0  0  0  0  0  0
    4.8299   -4.4637   46.4212 C   0  0  0  0  0  0  0  0  0  0  0  0
    4.2707   -4.9248   47.6295 N   0  0  0  0  0  0  0  0  0  0  0  0
    3.2045   -5.2092   47.1521 C   0  0  0  0  0  0  0  0  0  0  0  0
    1.4482   -4.6186   45.4134 C   0  0  2  0  0  0  0  0  0  0  0  0
    1.2398   -3.5043   44.6236 O   0  0  0  0  0  0  0  0  0  0  0  0
    6.3317   -3.9297   46.0870 C   0  0  2  0  0  0  0  0  0  0  0  0
    9.5296   -2.5449   46.9776 C   0  0  0  0  0  0  0  0  0  0  0  0
    9.7921   -1.7530   47.9018 O   0  0  0  0  0  0  0  0  0  0  0  0
    7.3972   -3.8130   46.7939 C   0  0  0  0  0  0  0  0  0  0  0  0
   10.4154   -3.4217   46.6883 O   0  0  0  0  0  0  0  0  0  0  0  0
    0.5555   -4.7535   46.5674 C   0  0  0  0  0  0  0  0  0  0  0  0
   11.6497   -3.0596   47.0439 C   0  0  0  0  0  0  0  0  0  0  0  0
   12.3878   -4.1125   47.6990 C   0  0  1  0  0  0  0  0  0  0  0  0
   11.8800   -5.2760   47.5659 O   0  0  0  0  0  0  0  0  0  0  0  0
   12.1402   -1.9273   46.5416 C   0  0  0  0  0  0  0  0  0  0  0  0
   13.7566   -3.9428   47.4635 C   0  0  0  0  0  0  0  0  0  0  0  0
   11.3924   -5.9178   48.7514 C   0  0  0  0  0  0  0  0  0  0  0  0
   14.4126   -2.7430   47.0678 C   0  0  0  0  0  0  0  0  0  0  0  0
   13.4817   -1.7494   46.5455 C   0  0  0  0  0  0  0  0  0  0  0  0
   15.7358   -2.5357   47.0594 C   0  0  1  0  0  0  0  0  0  0  0  0
   14.1460   -0.8459   45.7964 C   0  0  0  0  0  0  0  0  0  0  0  0
   16.5904   -3.5170   47.6347 O   0  0  0  0  0  0  0  0  0  0  0  0
   13.2490    0.2931   45.1774 O   0  0  0  0  0  0  0  0  0  0  0  0
   15.4603   -0.5162   45.8145 C   0  0  0  0  0  0  0  0  0  0  0  0
   15.9974    0.6041   45.1130 O   0  0  0  0  0  0  0  0  0  0  0  0
   16.3745   -1.3917   46.3846 C   0  0  0  0  0  0  0  0  0  0  0  0
  1  2  1  0
  2  3  2  0
  3  4  1  0
  1  5  2  0
  4  5  1  0
  3  6  1  0
  4  7  2  0
  6  8  1  0
  8  9  1  0
  7 10  1  0
  9 11  1  0
  5 12  1  0
  7 13  1  0
  8 13  2  0
 10 14  1  0
 12 15  1  0
 12 16  2  0
 14 17  1  0
 15 18  1  0
 13 19  1  0
 16 20  1  0
 18 20  2  0
 11 21  1  0
 19 21  2  0
 21 22  1  0
 11 23  2  0
 14 24  2  0
 24 25  1  0
 17 26  1  0
 25 26  2  0
 17 27  1  0
 15 28  1  6
 27 28  1  0
 19 29  1  0
 24 29  1  0
 22 30  1  0
 30 31  2  0
 22 32  2  0
 29 32  1  1
 30 33  1  0
 27 34  1  1
 33 35  1  0
 35 36  1  0
 36 37  1  6
 35 38  2  0
 36 39  1  0
 37 40  1  0
 39 41  2  0
 38 42  1  0
 41 42  1  0
 41 43  1  0
 42 44  2  0
 43 45  1  6
 44 46  1  0
 44 47  1  0
 47 48  1  0
 43 49  1  0
 47 49  2  0
M  END
$$$$
O14757_Pocket2Mol_idx-in-all-generaetd-734
     RDKit          3D

 36 42  0  0  0  0  0  0  0  0999 V2000
    4.5156    0.0550   42.9895 N   0  0  0  0  0  0  0  0  0  0  0  0
    5.0618   -0.8645   43.5295 C   0  0  0  0  0  0  0  0  0  0  0  0
    4.4350   -2.0604   43.7783 C   0  0  0  0  0  0  0  0  0  0  0  0
    4.9987   -3.0994   44.5839 C   0  0  0  0  0  0  0  0  0  0  0  0
    3.2714   -1.8664   43.0632 C   0  0  0  0  0  0  0  0  0  0  0  0
    6.4064   -0.5942   44.3204 N   0  0  0  0  0  0  0  0  0  0  0  0
    4.3422   -4.3256   44.7203 C   0  0  0  0  0  0  0  0  0  0  0  0
    2.1845   -2.6668   42.8270 N   0  0  0  0  0  0  0  0  0  0  0  0
    3.3305   -0.5395   42.5465 N   0  0  0  0  0  0  0  0  0  0  0  0
    1.9502   -3.8972   43.4076 C   0  0  0  0  0  0  0  0  0  0  0  0
    2.7156   -4.1184   44.6954 N   0  0  0  0  0  0  0  0  0  0  0  0
    6.8581   -1.5862   45.1101 C   0  0  0  0  0  0  0  0  0  0  0  0
    6.1801   -2.8430   45.2383 C   0  0  0  0  0  0  0  0  0  0  0  0
    2.1454   -5.1901   45.5771 C   0  0  0  0  0  0  0  0  0  0  0  0
    8.0137   -1.3946   45.8526 C   0  0  0  0  0  0  0  0  0  0  0  0
    0.9733   -4.5725   43.2066 O   0  0  0  0  0  0  0  0  0  0  0  0
    2.2437    0.0035   41.8733 C   0  0  0  0  0  0  0  0  0  0  0  0
    1.3210   -2.2077   41.7009 C   0  0  0  0  0  0  0  0  0  0  0  0
    8.6047   -2.2876   46.6923 C   0  0  0  0  0  0  0  0  0  0  0  0
    7.9141   -3.5157   46.8869 C   0  0  0  0  0  0  0  0  0  0  0  0
    1.0501   -0.8658   41.6612 C   0  0  0  0  0  0  0  0  0  0  0  0
    6.7278   -3.7718   46.2525 C   0  0  0  0  0  0  0  0  0  0  0  0
    9.8280   -2.0492   47.3361 C   0  0  0  0  0  0  0  0  0  0  0  0
    9.8262   -1.5735   48.5432 C   0  0  0  0  0  0  0  0  0  0  0  0
   11.0745   -2.0905   46.6735 C   0  0  0  0  0  0  0  0  0  0  0  0
    8.5798   -1.4294   49.3788 F   0  0  0  0  0  0  0  0  0  0  0  0
   10.9754   -1.2454   49.3173 C   0  0  0  0  0  0  0  0  0  0  0  0
   12.2431   -1.7844   47.3194 C   0  0  0  0  0  0  0  0  0  0  0  0
   12.3027   -1.4029   48.7252 C   0  0  0  0  0  0  0  0  0  0  0  0
   13.5212   -1.8824   46.5853 C   0  0  0  0  0  0  0  0  0  0  0  0
    1.0433   -4.5208   46.3540 C   0  0  0  0  0  0  0  0  0  0  0  0
   13.6066   -1.3002   45.3939 C   0  0  0  0  0  0  0  0  0  0  0  0
   14.5955   -2.4639   47.1696 C   0  0  0  0  0  0  0  0  0  0  0  0
   14.7865   -1.3053   44.6470 C   0  0  0  0  0  0  0  0  0  0  0  0
   15.7991   -2.5566   46.3469 C   0  0  0  0  0  0  0  0  0  0  0  0
   15.8494   -1.9918   45.1211 C   0  0  0  0  0  0  0  0  0  0  0  0
  1  2  2  0
  2  3  1  0
  3  4  1  0
  3  5  2  0
  2  6  1  0
  4  7  1  0
  5  8  1  0
  1  9  1  0
  5  9  1  0
  8 10  1  0
  7 11  1  0
 10 11  1  0
  6 12  2  0
  4 13  2  0
 12 13  1  0
 11 14  1  0
 12 15  1  0
 10 16  2  0
  9 17  1  0
  8 18  1  0
 15 19  2  0
 19 20  1  0
 17 21  1  0
 18 21  1  0
 13 22  1  0
 20 22  2  0
 19 23  1  0
 23 24  2  0
 23 25  1  0
 24 26  1  0
 24 27  1  0
 25 28  2  0
 27 29  2  0
 28 29  1  0
 28 30  1  0
 14 31  1  0
 30 32  2  0
 30 33  1  0
 32 34  1  0
 33 35  2  0
 34 36  2  0
 35 36  1  0
M  END
$$$$
O14757_Pocket2Mol_idx-in-all-generaetd-735
     RDKit          3D

 27 30  0  0  0  0  0  0  0  0999 V2000
    3.7044    0.1389   42.5158 N   0  0  0  0  0  0  0  0  0  0  0  0
    3.0206   -1.0018   42.4929 C   0  0  0  0  0  0  0  0  0  0  0  0
    3.4791   -2.0817   43.2077 C   0  0  0  0  0  0  0  0  0  0  0  0
    4.8540    0.3862   43.0582 N   0  0  0  0  0  0  0  0  0  0  0  0
    5.1377   -0.9552   43.7144 C   0  0  0  0  0  0  0  0  0  0  0  0
    1.5846   -1.0753   41.7644 C   0  0  0  0  0  0  0  0  0  0  0  0
    4.6026   -2.0358   43.8129 C   0  0  0  0  0  0  0  0  0  0  0  0
    5.1584   -3.1511   44.6069 C   0  0  0  0  0  0  0  0  0  0  0  0
    6.6094   -0.7911   44.3696 N   0  0  0  0  0  0  0  0  0  0  0  0
    4.4744   -4.3270   44.8472 C   0  0  0  0  0  0  0  0  0  0  0  0
    6.9275   -1.8713   45.2437 C   0  0  0  0  0  0  0  0  0  0  0  0
    8.2702   -1.7750   45.8768 C   0  0  0  0  0  0  0  0  0  0  0  0
    0.9365   -0.0867   41.7346 O   0  0  0  0  0  0  0  0  0  0  0  0
    6.2322   -3.0484   45.3118 C   0  0  0  0  0  0  0  0  0  0  0  0
    6.7747   -4.0433   46.1202 N   0  0  0  0  0  0  0  0  0  0  0  0
    1.2161   -2.2739   41.2518 N   0  0  0  0  0  0  0  0  0  0  0  0
    9.0373   -0.5649   45.9132 O   0  0  0  0  0  0  0  0  0  0  0  0
    3.8907   -5.0906   43.9511 O   0  0  0  0  0  0  0  0  0  0  0  0
    4.3454   -4.8388   46.1621 N   0  0  0  0  0  0  0  0  0  0  0  0
    3.4531   -5.8952   46.4159 C   0  0  0  0  0  0  0  0  0  0  0  0
    8.7091   -2.8031   46.6693 N   0  0  0  0  0  0  0  0  0  0  0  0
    5.4910   -4.7959   46.9467 C   0  0  0  0  0  0  0  0  0  0  0  0
    7.8496   -3.9145   46.8373 C   0  0  0  0  0  0  0  0  0  0  0  0
   10.0189   -2.7369   47.3263 C   0  0  0  0  0  0  0  0  0  0  0  0
   10.2293   -3.8324   48.0772 C   0  0  0  0  0  0  0  0  0  0  0  0
   10.0606   -1.5009   48.2332 C   0  0  0  0  0  0  0  0  0  0  0  0
   11.1637   -2.4913   46.4724 C   0  0  0  0  0  0  0  0  0  0  0  0
  1  2  2  0
  2  3  1  0
  1  4  1  0
  4  5  2  0
  2  6  1  0
  3  7  2  0
  5  7  1  0
  7  8  1  0
  5  9  1  0
  8 10  1  0
  9 11  2  0
 11 12  1  0
  6 13  2  0
  8 14  2  0
 11 14  1  0
 14 15  1  0
  6 16  1  0
 12 17  2  0
 10 18  2  0
 10 19  1  0
 19 20  1  0
 12 21  1  0
 15 22  1  0
 19 22  1  0
 15 23  1  0
 21 23  1  0
 21 24  1  0
 24 25  1  0
 24 26  1  0
 24 27  1  0
M  END
$$$$
O14757_Pocket2Mol_idx-in-all-generaetd-736
     RDKit          3D

 36 43  0  0  0  0  0  0  0  0999 V2000
    4.8173    0.2791   42.6993 N   0  0  0  0  0  0  0  0  0  0  0  0
    5.3297   -0.7477   43.3688 C   0  0  0  0  0  0  0  0  0  0  0  0
    3.4732   -0.2235   42.4530 C   0  0  0  0  0  0  0  0  0  0  0  0
    4.4984   -1.7876   43.6214 C   0  0  0  0  0  0  0  0  0  0  0  0
    3.3438   -1.5190   42.9379 C   0  0  0  0  0  0  0  0  0  0  0  0
    2.1381   -2.3401   42.8254 C   0  0  0  0  0  0  0  0  0  0  0  0
    2.3894    0.3572   41.9843 N   0  0  0  0  0  0  0  0  0  0  0  0
    4.9180   -3.0430   44.3829 C   0  0  0  0  0  0  0  0  0  0  0  0
    5.9444   -2.9314   45.3934 C   0  0  0  0  0  0  0  0  0  0  0  0
    4.2808   -4.1329   44.3252 C   0  0  0  0  0  0  0  0  0  0  0  0
    3.1588   -4.4221   43.4852 O   0  0  0  0  0  0  0  0  0  0  0  0
    4.5704   -5.2518   45.1995 C   0  0  0  0  0  0  0  0  0  0  0  0
    1.9853   -3.6792   43.3495 C   0  0  0  0  0  0  0  0  0  0  0  0
    0.9181   -4.3294   43.4638 C   0  0  0  0  0  0  0  0  0  0  0  0
    6.7403   -1.6226   45.5272 C   0  0  2  0  0  0  0  0  0  0  0  0
    0.9752   -1.7845   42.3366 C   0  0  0  0  0  0  0  0  0  0  0  0
    6.2516   -3.7287   46.2722 C   0  0  0  0  0  0  0  0  0  0  0  0
   -0.2404   -2.4179   42.2529 C   0  0  0  0  0  0  0  0  0  0  0  0
   -1.3835   -1.8904   41.6559 N   0  0  0  0  0  0  0  0  0  0  0  0
    3.8706   -6.4216   45.1394 O   0  0  0  0  0  0  0  0  0  0  0  0
    0.9456   -0.2789   41.7649 C   0  0  0  0  0  0  0  0  0  0  0  0
   -0.2678   -3.6969   42.7575 C   0  0  0  0  0  0  0  0  0  0  0  0
    6.3913   -0.7000   44.3807 N   0  0  0  0  0  0  0  0  0  0  0  0
    7.9391   -1.5867   46.0069 C   0  0  0  0  0  0  0  0  0  0  0  0
    7.1969   -3.5621   47.3287 C   0  0  0  0  0  0  0  0  0  0  0  0
    5.4958   -5.0534   46.2483 C   0  0  0  0  0  0  0  0  0  0  0  0
    7.4872   -4.5338   48.2539 O   0  0  0  0  0  0  0  0  0  0  0  0
    8.1281   -2.5304   47.0986 C   0  0  1  0  0  0  0  0  0  0  0  0
    8.7872   -0.5908   45.9403 O   0  0  0  0  0  0  0  0  0  0  0  0
    9.4892   -2.5717   47.7347 C   0  0  0  0  0  0  0  0  0  0  0  0
   10.5268   -2.9441   46.9599 C   0  0  0  0  0  0  0  0  0  0  0  0
   11.4734   -2.0640   46.5154 C   0  0  0  0  0  0  0  0  0  0  0  0
   12.3043   -2.3141   45.4520 C   0  0  0  0  0  0  0  0  0  0  0  0
   10.4488   -4.0060   46.1216 C   0  0  0  0  0  0  0  0  0  0  0  0
   12.3636   -3.5004   44.9052 C   0  0  0  0  0  0  0  0  0  0  0  0
   11.3811   -4.3615   45.2189 C   0  0  0  0  0  0  0  0  0  0  0  0
  1  2  2  0
  1  3  1  0
  2  4  1  0
  3  5  1  0
  4  5  2  0
  5  6  1  0
  3  7  2  0
  4  8  1  0
  8  9  1  0
  8 10  2  0
 10 11  1  0
 10 12  1  0
  6 13  1  0
 11 13  1  0
 13 14  2  0
  9 15  1  0
  6 16  2  0
  9 17  2  0
 16 18  1  0
 18 19  1  0
 12 20  1  0
  7 21  1  0
 16 21  1  0
 14 22  1  0
 18 22  2  0
  2 23  1  0
 15 23  1  6
 15 24  1  0
 17 25  1  0
 12 26  2  0
 17 26  1  0
 25 27  2  0
 24 28  1  0
 25 28  1  0
 24 29  2  0
 28 30  1  6
 30 31  1  0
 31 32  2  0
 32 33  1  0
 31 34  1  0
 33 35  2  0
 34 36  2  0
 35 36  1  0
M  END
$$$$
O14757_Pocket2Mol_idx-in-all-generaetd-737
     RDKit          3D

 18 20  0  0  0  0  0  0  0  0999 V2000
    3.7044    0.1389   42.5158 N   0  0  0  0  0  0  0  0  0  0  0  0
    3.0206   -1.0018   42.4929 C   0  0  0  0  0  0  0  0  0  0  0  0
    3.4791   -2.0817   43.2077 C   0  0  0  0  0  0  0  0  0  0  0  0
    4.8540    0.3862   43.0582 N   0  0  0  0  0  0  0  0  0  0  0  0
    5.1377   -0.9552   43.7144 C   0  0  0  0  0  0  0  0  0  0  0  0
    1.5846   -1.0753   41.7644 C   0  0  0  0  0  0  0  0  0  0  0  0
    2.6127   -3.2469   43.2056 C   0  0  0  0  0  0  0  0  0  0  0  0
    4.6372   -2.0125   43.8200 C   0  0  0  0  0  0  0  0  0  0  0  0
    2.9973   -4.3132   44.0699 C   0  0  0  0  0  0  0  0  0  0  0  0
    1.4494   -3.2202   42.8181 C   0  0  0  0  0  0  0  0  0  0  0  0
    1.0031   -2.0693   41.9888 C   0  0  0  0  0  0  0  0  0  0  0  0
    2.1762   -5.0168   44.8543 N   0  0  0  0  0  0  0  0  0  0  0  0
    2.2873   -6.2812   44.9348 C   0  0  0  0  0  0  0  0  0  0  0  0
    1.8078   -4.4570   46.2056 C   0  0  0  0  0  0  0  0  0  0  0  0
    0.3815   -4.8120   46.2107 C   0  0  0  0  0  0  0  0  0  0  0  0
    0.1780   -6.2543   46.1421 C   0  0  0  0  0  0  0  0  0  0  0  0
    0.8590   -6.8409   44.9788 C   0  0  0  0  0  0  0  0  0  0  0  0
    4.2058   -4.8457   43.8519 O   0  0  0  0  0  0  0  0  0  0  0  0
  1  2  2  0
  2  3  1  0
  1  4  1  0
  4  5  2  0
  2  6  1  0
  3  7  1  0
  3  8  2  0
  5  8  1  0
  7  9  1  0
  7 10  2  0
  6 11  2  0
 10 11  1  0
  9 12  1  0
 12 13  1  0
 12 14  1  0
 14 15  1  0
 15 16  1  0
 13 17  1  0
 16 17  1  0
  9 18  2  0
M  END
$$$$
O14757_Pocket2Mol_idx-in-all-generaetd-738
     RDKit          3D

 43 49  0  0  0  0  0  0  0  0999 V2000
    1.5482   -0.3111   41.9233 C   0  0  0  0  0  0  0  0  0  0  0  0
    2.7284    0.2018   42.1525 N   0  0  0  0  0  0  0  0  0  0  0  0
    3.7893   -0.3016   42.7005 C   0  0  0  0  0  0  0  0  0  0  0  0
    3.3781   -1.7350   43.0000 C   0  0  0  0  0  0  0  0  0  0  0  0
    2.0339   -1.9619   42.6217 C   0  0  0  0  0  0  0  0  0  0  0  0
    4.1166   -2.4997   43.8458 C   0  0  0  0  0  0  0  0  0  0  0  0
    1.1731   -3.0051   42.5773 C   0  0  0  0  0  0  0  0  0  0  0  0
    0.4701   -3.2344   41.4901 C   0  0  0  0  0  0  0  0  0  0  0  0
    5.3799   -1.7814   44.2691 C   0  0  0  0  0  0  0  0  0  0  0  0
    5.0159   -0.0180   43.1201 N   0  0  0  0  0  0  0  0  0  0  0  0
    5.7693   -0.6937   43.8418 C   0  0  0  0  0  0  0  0  0  0  0  0
    0.8078   -3.6166   43.6782 C   0  0  0  0  0  0  0  0  0  0  0  0
    0.0663   -4.7011   43.7415 N   0  0  0  0  0  0  0  0  0  0  0  0
    6.2223   -2.6843   45.1565 C   0  0  0  0  0  0  0  0  0  0  0  0
    1.4459   -3.3095   45.0236 O   0  0  0  0  0  0  0  0  0  0  0  0
   -0.5278   -5.1074   42.5506 C   0  0  0  0  0  0  0  0  0  0  0  0
   -1.3099   -6.2193   42.5332 N   0  0  0  0  0  0  0  0  0  0  0  0
   -0.3906   -4.3573   41.3904 C   0  0  0  0  0  0  0  0  0  0  0  0
    7.0535   -0.4845   44.4478 N   0  0  0  0  0  0  0  0  0  0  0  0
    0.6210   -3.8397   46.1835 C   0  0  0  0  0  0  0  0  0  0  0  0
    6.2906   -3.7888   45.8815 C   0  0  0  0  0  0  0  0  0  0  0  0
    7.3965   -1.5466   45.3147 C   0  0  0  0  0  0  0  0  0  0  0  0
    5.1449   -4.4973   46.0473 O   0  0  0  0  0  0  0  0  0  0  0  0
    7.4148   -4.1081   46.6372 C   0  0  0  0  0  0  0  0  0  0  0  0
    8.5011   -3.1747   46.6693 C   0  0  0  0  0  0  0  0  0  0  0  0
    8.4580   -1.9168   46.0438 C   0  0  0  0  0  0  0  0  0  0  0  0
    9.8193   -3.4927   47.5654 C   0  0  1  0  0  0  0  0  0  0  0  0
    4.3482   -4.5667   47.1383 C   0  0  0  0  0  0  0  0  0  0  0  0
   10.8925   -3.4519   46.9633 C   0  0  0  0  0  0  0  0  0  0  0  0
   11.7691   -2.4393   47.2298 N   0  0  0  0  0  0  0  0  0  0  0  0
   11.5679   -1.6048   48.2682 C   0  0  0  0  0  0  0  0  0  0  0  0
   13.2337   -2.7224   46.9899 C   0  0  0  0  0  0  0  0  0  0  0  0
   11.1468   -4.1806   45.9346 O   0  0  0  0  0  0  0  0  0  0  0  0
   14.0674   -3.2434   47.7193 C   0  0  0  0  0  0  0  0  0  0  0  0
   13.7337   -3.8357   48.9955 C   0  0  0  0  0  0  0  0  0  0  0  0
   10.6978   -1.8484   49.2819 O   0  0  0  0  0  0  0  0  0  0  0  0
    9.4523   -2.4064   48.7424 C   0  0  0  0  0  0  0  0  0  0  0  0
   15.3983   -3.3716   47.3589 C   0  0  0  0  0  0  0  0  0  0  0  0
   13.6455   -2.4134   45.5677 C   0  0  0  0  0  0  0  0  0  0  0  0
   14.9623   -2.4297   45.2343 C   0  0  0  0  0  0  0  0  0  0  0  0
   15.4163   -2.0814   43.8913 O   0  0  0  0  0  0  0  0  0  0  0  0
   15.8460   -2.9802   46.0926 C   0  0  0  0  0  0  0  0  0  0  0  0
   14.8249   -1.0211   43.3111 C   0  0  0  0  0  0  0  0  0  0  0  0
  1  2  1  0
  2  3  2  0
  3  4  1  0
  1  5  2  0
  4  5  1  0
  4  6  2  0
  5  7  1  0
  7  8  2  0
  6  9  1  0
  3 10  1  0
  9 11  1  0
 10 11  1  0
  7 12  1  0
 12 13  2  0
  9 14  2  0
 12 15  1  0
 13 16  1  0
 16 17  1  0
  8 18  1  0
 16 18  2  0
 11 19  2  0
 15 20  1  0
 14 21  1  0
 14 22  1  0
 19 22  1  0
 21 23  1  0
 21 24  2  0
 24 25  1  0
 22 26  2  0
 25 26  2  0
 27 25  1  6
 23 28  1  0
 27 29  1  0
 29 30  1  0
 30 31  1  0
 30 32  1  0
 29 33  2  0
 32 34  2  0
 34 35  1  0
 31 36  1  0
 27 37  1  0
 36 37  1  0
 34 38  1  0
 32 39  1  0
 39 40  2  0
 40 41  1  0
 38 42  2  0
 40 42  1  0
 41 43  1  0
M  END
$$$$
O14757_Pocket2Mol_idx-in-all-generaetd-739
     RDKit          3D

 39 46  0  0  0  0  0  0  0  0999 V2000
    1.5482   -0.3111   41.9233 C   0  0  0  0  0  0  0  0  0  0  0  0
    2.7284    0.2018   42.1525 N   0  0  0  0  0  0  0  0  0  0  0  0
    3.7893   -0.3016   42.7005 C   0  0  0  0  0  0  0  0  0  0  0  0
    3.3781   -1.7350   43.0000 C   0  0  0  0  0  0  0  0  0  0  0  0
    2.0339   -1.9619   42.6217 C   0  0  0  0  0  0  0  0  0  0  0  0
    5.0090    0.1219   42.9340 N   0  0  0  0  0  0  0  0  0  0  0  0
    4.2895   -2.4979   43.6707 C   0  0  0  0  0  0  0  0  0  0  0  0
    5.8391   -0.6675   43.6343 C   0  0  0  0  0  0  0  0  0  0  0  0
    6.9849   -0.2377   44.0028 N   0  0  0  0  0  0  0  0  0  0  0  0
    4.0426   -3.8794   44.0832 C   0  0  0  0  0  0  0  0  0  0  0  0
    7.6796   -0.8734   44.9326 C   0  0  0  0  0  0  0  0  0  0  0  0
    1.1064   -2.9576   42.4211 C   0  0  0  0  0  0  0  0  0  0  0  0
    5.5298   -1.9496   44.0315 C   0  0  0  0  0  0  0  0  0  0  0  0
    3.8954   -4.1817   45.4718 C   0  0  0  0  0  0  0  0  0  0  0  0
    0.6765   -3.5480   43.4006 C   0  0  1  0  0  0  0  0  0  0  0  0
    0.5804   -3.2191   41.1635 C   0  0  0  0  0  0  0  0  0  0  0  0
    2.8083   -4.8227   45.9203 N   0  0  0  0  0  0  0  0  0  0  0  0
   -0.1574   -4.5754   42.9329 N   0  0  0  0  0  0  0  0  0  0  0  0
    6.5271   -2.5531   44.9677 C   0  0  0  0  0  0  0  0  0  0  0  0
   -0.2272   -4.3703   41.5137 C   0  0  0  0  0  0  0  0  0  0  0  0
    7.5095   -2.0029   45.3993 C   0  0  0  0  0  0  0  0  0  0  0  0
    8.2550   -2.6982   46.3988 C   0  0  2  0  0  0  0  0  0  0  0  0
    8.8975   -0.3029   45.3267 O   0  0  0  0  0  0  0  0  0  0  0  0
    4.8299   -4.4637   46.4212 C   0  0  0  0  0  0  0  0  0  0  0  0
    4.2707   -4.9248   47.6295 N   0  0  0  0  0  0  0  0  0  0  0  0
    3.2045   -5.2092   47.1521 C   0  0  0  0  0  0  0  0  0  0  0  0
    1.4482   -4.6186   45.4134 C   0  0  2  0  0  0  0  0  0  0  0  0
    1.2398   -3.5043   44.6236 O   0  0  0  0  0  0  0  0  0  0  0  0
    6.3317   -3.9297   46.0870 C   0  0  2  0  0  0  0  0  0  0  0  0
    9.5296   -2.5449   46.9776 C   0  0  0  0  0  0  0  0  0  0  0  0
    9.7921   -1.7530   47.9018 O   0  0  0  0  0  0  0  0  0  0  0  0
    7.4454   -3.8344   46.8035 C   0  0  0  0  0  0  0  0  0  0  0  0
   10.5010   -3.0847   46.3190 O   0  0  0  0  0  0  0  0  0  0  0  0
    0.5569   -4.7693   46.5649 C   0  0  0  0  0  0  0  0  0  0  0  0
   11.7452   -2.8462   46.6234 C   0  0  1  0  0  0  0  0  0  0  0  0
   12.4186   -3.8680   47.1468 C   0  0  0  0  0  0  0  0  0  0  0  0
   11.9026   -5.0270   47.0501 O   0  0  0  0  0  0  0  0  0  0  0  0
   12.4007   -2.3595   45.2496 C   0  0  0  0  0  0  0  0  0  0  0  0
   12.5112   -6.0717   46.3959 C   0  0  0  0  0  0  0  0  0  0  0  0
  1  2  1  0
  2  3  2  0
  3  4  1  0
  1  5  2  0
  4  5  1  0
  3  6  1  0
  4  7  2  0
  6  8  1  0
  8  9  1  0
  7 10  1  0
  9 11  1  0
  5 12  1  0
  7 13  1  0
  8 13  2  0
 10 14  1  0
 12 15  1  0
 12 16  2  0
 14 17  1  0
 15 18  1  0
 13 19  1  0
 16 20  1  0
 18 20  2  0
 11 21  1  0
 19 21  2  0
 21 22  1  0
 11 23  2  0
 14 24  2  0
 24 25  1  0
 17 26  1  0
 25 26  2  0
 17 27  1  0
 15 28  1  6
 27 28  1  0
 19 29  1  0
 24 29  1  0
 22 30  1  6
 30 31  2  0
 22 32  1  0
 29 32  1  1
 30 33  1  0
 27 34  1  1
 33 35  1  0
 35 36  1  0
 36 37  1  0
 35 38  1  6
 37 39  1  0
M  END
$$$$
O14757_Pocket2Mol_idx-in-all-generaetd-740
     RDKit          3D

 49 58  0  0  0  0  0  0  0  0999 V2000
    1.5482   -0.3111   41.9233 C   0  0  0  0  0  0  0  0  0  0  0  0
    2.7284    0.2018   42.1525 N   0  0  0  0  0  0  0  0  0  0  0  0
    3.7893   -0.3016   42.7005 C   0  0  0  0  0  0  0  0  0  0  0  0
    3.3781   -1.7350   43.0000 C   0  0  0  0  0  0  0  0  0  0  0  0
    2.0339   -1.9619   42.6217 C   0  0  0  0  0  0  0  0  0  0  0  0
    5.0090    0.1219   42.9340 N   0  0  0  0  0  0  0  0  0  0  0  0
    4.2895   -2.4979   43.6707 C   0  0  0  0  0  0  0  0  0  0  0  0
    5.8391   -0.6675   43.6343 C   0  0  0  0  0  0  0  0  0  0  0  0
    6.9849   -0.2377   44.0028 N   0  0  0  0  0  0  0  0  0  0  0  0
    4.0426   -3.8794   44.0832 C   0  0  0  0  0  0  0  0  0  0  0  0
    7.6796   -0.8734   44.9326 C   0  0  0  0  0  0  0  0  0  0  0  0
    1.1064   -2.9576   42.4211 C   0  0  0  0  0  0  0  0  0  0  0  0
    5.5298   -1.9496   44.0315 C   0  0  0  0  0  0  0  0  0  0  0  0
    3.8954   -4.1817   45.4718 C   0  0  0  0  0  0  0  0  0  0  0  0
    0.6765   -3.5480   43.4006 C   0  0  1  0  0  0  0  0  0  0  0  0
    0.5804   -3.2191   41.1635 C   0  0  0  0  0  0  0  0  0  0  0  0
    2.8083   -4.8227   45.9203 N   0  0  0  0  0  0  0  0  0  0  0  0
   -0.1574   -4.5754   42.9329 N   0  0  0  0  0  0  0  0  0  0  0  0
    6.5271   -2.5531   44.9677 C   0  0  0  0  0  0  0  0  0  0  0  0
   -0.2272   -4.3703   41.5137 C   0  0  0  0  0  0  0  0  0  0  0  0
    7.5095   -2.0029   45.3993 C   0  0  0  0  0  0  0  0  0  0  0  0
    8.2550   -2.6982   46.3988 C   0  0  2  0  0  0  0  0  0  0  0  0
    8.8975   -0.3029   45.3267 O   0  0  0  0  0  0  0  0  0  0  0  0
    4.8299   -4.4637   46.4212 C   0  0  0  0  0  0  0  0  0  0  0  0
    4.2707   -4.9248   47.6295 N   0  0  0  0  0  0  0  0  0  0  0  0
    3.2045   -5.2092   47.1521 C   0  0  0  0  0  0  0  0  0  0  0  0
    1.4482   -4.6186   45.4134 C   0  0  2  0  0  0  0  0  0  0  0  0
    1.2398   -3.5043   44.6236 O   0  0  0  0  0  0  0  0  0  0  0  0
    6.3317   -3.9297   46.0870 C   0  0  2  0  0  0  0  0  0  0  0  0
    9.5296   -2.5449   46.9776 C   0  0  0  0  0  0  0  0  0  0  0  0
    9.7921   -1.7530   47.9018 O   0  0  0  0  0  0  0  0  0  0  0  0
    7.4454   -3.8344   46.8035 C   0  0  0  0  0  0  0  0  0  0  0  0
   10.5010   -3.0847   46.3190 O   0  0  0  0  0  0  0  0  0  0  0  0
    0.5569   -4.7693   46.5649 C   0  0  0  0  0  0  0  0  0  0  0  0
   11.7452   -2.8462   46.6234 C   0  0  0  0  0  0  0  0  0  0  0  0
   12.4344   -1.8951   45.7393 C   0  0  0  0  0  0  0  0  0  0  0  0
   12.4612   -3.5429   47.5581 C   0  0  0  0  0  0  0  0  0  0  0  0
   11.7737   -4.5216   48.4115 C   0  0  0  0  0  0  0  0  0  0  0  0
   13.7761   -1.6251   45.9829 C   0  0  0  0  0  0  0  0  0  0  0  0
   13.7909   -3.1787   47.7950 C   0  0  0  0  0  0  0  0  0  0  0  0
   14.4374   -0.6496   45.1506 C   0  0  0  0  0  0  0  0  0  0  0  0
   14.5863   -3.8413   48.8675 O   0  0  0  0  0  0  0  0  0  0  0  0
   14.4761   -2.2457   47.0363 C   0  0  0  0  0  0  0  0  0  0  0  0
   14.2876   -0.7745   43.8218 C   0  0  0  0  0  0  0  0  0  0  0  0
   15.0646    0.1587   42.9800 C   0  0  0  0  0  0  0  0  0  0  0  0
   15.6698    1.1796   43.7047 C   0  0  0  0  0  0  0  0  0  0  0  0
   15.0772    0.3337   45.8422 C   0  0  0  0  0  0  0  0  0  0  0  0
   16.4234    2.1814   42.8795 F   0  0  0  0  0  0  0  0  0  0  0  0
   15.6864    1.2401   45.0347 C   0  0  0  0  0  0  0  0  0  0  0  0
  1  2  1  0
  2  3  2  0
  3  4  1  0
  1  5  2  0
  4  5  1  0
  3  6  1  0
  4  7  2  0
  6  8  1  0
  8  9  1  0
  7 10  1  0
  9 11  1  0
  5 12  1  0
  7 13  1  0
  8 13  2  0
 10 14  1  0
 12 15  1  0
 12 16  2  0
 14 17  1  0
 15 18  1  0
 13 19  1  0
 16 20  1  0
 18 20  2  0
 11 21  1  0
 19 21  2  0
 21 22  1  0
 11 23  2  0
 14 24  2  0
 24 25  1  0
 17 26  1  0
 25 26  2  0
 17 27  1  0
 15 28  1  6
 27 28  1  0
 19 29  1  0
 24 29  1  0
 22 30  1  6
 30 31  2  0
 22 32  1  0
 29 32  1  1
 30 33  1  0
 27 34  1  1
 33 35  1  0
 35 36  2  0
 35 37  1  0
 37 38  1  0
 36 39  1  0
 37 40  2  0
 39 41  1  0
 40 42  1  0
 39 43  2  0
 40 43  1  0
 41 44  2  0
 44 45  1  0
 45 46  2  0
 41 47  1  0
 46 48  1  0
 46 49  1  0
 47 49  2  0
M  END
$$$$
O14757_Pocket2Mol_idx-in-all-generaetd-741
     RDKit          3D

 42 50  0  0  0  0  0  0  0  0999 V2000
    1.5482   -0.3111   41.9233 C   0  0  0  0  0  0  0  0  0  0  0  0
    2.7284    0.2018   42.1525 N   0  0  0  0  0  0  0  0  0  0  0  0
    3.7893   -0.3016   42.7005 C   0  0  0  0  0  0  0  0  0  0  0  0
    3.3781   -1.7350   43.0000 C   0  0  0  0  0  0  0  0  0  0  0  0
    2.0339   -1.9619   42.6217 C   0  0  0  0  0  0  0  0  0  0  0  0
    5.0090    0.1219   42.9340 N   0  0  0  0  0  0  0  0  0  0  0  0
    4.2895   -2.4979   43.6707 C   0  0  0  0  0  0  0  0  0  0  0  0
    5.8391   -0.6675   43.6343 C   0  0  0  0  0  0  0  0  0  0  0  0
    6.9849   -0.2377   44.0028 N   0  0  0  0  0  0  0  0  0  0  0  0
    4.0426   -3.8794   44.0832 C   0  0  0  0  0  0  0  0  0  0  0  0
    7.6796   -0.8734   44.9326 C   0  0  0  0  0  0  0  0  0  0  0  0
    1.1064   -2.9576   42.4211 C   0  0  0  0  0  0  0  0  0  0  0  0
    5.5298   -1.9496   44.0315 C   0  0  0  0  0  0  0  0  0  0  0  0
    3.8954   -4.1817   45.4718 C   0  0  0  0  0  0  0  0  0  0  0  0
    0.6765   -3.5480   43.4006 C   0  0  1  0  0  0  0  0  0  0  0  0
    0.5804   -3.2191   41.1635 C   0  0  0  0  0  0  0  0  0  0  0  0
    2.8083   -4.8227   45.9203 N   0  0  0  0  0  0  0  0  0  0  0  0
   -0.1574   -4.5754   42.9329 N   0  0  0  0  0  0  0  0  0  0  0  0
    6.5271   -2.5531   44.9677 C   0  0  0  0  0  0  0  0  0  0  0  0
   -0.2272   -4.3703   41.5137 C   0  0  0  0  0  0  0  0  0  0  0  0
    7.5095   -2.0029   45.3993 C   0  0  0  0  0  0  0  0  0  0  0  0
    8.2550   -2.6982   46.3988 C   0  0  0  0  0  0  0  0  0  0  0  0
    8.8975   -0.3029   45.3267 O   0  0  0  0  0  0  0  0  0  0  0  0
    4.8299   -4.4637   46.4212 C   0  0  0  0  0  0  0  0  0  0  0  0
    4.2707   -4.9248   47.6295 N   0  0  0  0  0  0  0  0  0  0  0  0
    3.2045   -5.2092   47.1521 C   0  0  0  0  0  0  0  0  0  0  0  0
    1.4482   -4.6186   45.4134 C   0  0  1  0  0  0  0  0  0  0  0  0
    1.2398   -3.5043   44.6236 O   0  0  0  0  0  0  0  0  0  0  0  0
    7.8521   -3.9584   46.8773 C   0  0  0  0  0  0  0  0  0  0  0  0
    8.4079   -4.7553   47.7407 C   0  0  0  0  0  0  0  0  0  0  0  0
    5.9516   -3.8110   45.9146 C   0  0  0  0  0  0  0  0  0  0  0  0
    6.6436   -4.3892   46.6649 C   0  0  0  0  0  0  0  0  0  0  0  0
    9.5111   -5.5246   47.2994 O   0  0  0  0  0  0  0  0  0  0  0  0
   10.6238   -5.0197   46.8534 C   0  0  0  0  0  0  0  0  0  0  0  0
   11.5866   -4.7361   47.6189 C   0  0  0  0  0  0  0  0  0  0  0  0
    1.2153   -5.7944   44.5753 C   0  0  0  0  0  0  0  0  0  0  0  0
   10.8210   -5.0816   45.4156 C   0  0  0  0  0  0  0  0  0  0  0  0
   11.3943   -4.6349   49.0878 O   0  0  0  0  0  0  0  0  0  0  0  0
   11.2697   -3.3216   49.5732 C   0  0  0  0  0  0  0  0  0  0  0  0
   12.8705   -4.3245   47.1534 C   0  0  0  0  0  0  0  0  0  0  0  0
   12.0911   -4.8297   44.9679 C   0  0  0  0  0  0  0  0  0  0  0  0
   13.0714   -4.4145   45.7932 C   0  0  0  0  0  0  0  0  0  0  0  0
  1  2  1  0
  2  3  2  0
  3  4  1  0
  1  5  2  0
  4  5  1  0
  3  6  1  0
  4  7  2  0
  6  8  1  0
  8  9  1  0
  7 10  1  0
  9 11  1  0
  5 12  1  0
  7 13  1  0
  8 13  2  0
 10 14  1  0
 12 15  1  0
 12 16  2  0
 14 17  1  0
 15 18  1  0
 13 19  1  0
 16 20  1  0
 18 20  2  0
 11 21  1  0
 19 21  2  0
 21 22  1  0
 11 23  2  0
 14 24  2  0
 24 25  1  0
 17 26  1  0
 25 26  2  0
 17 27  1  0
 15 28  1  6
 27 28  1  0
 22 29  2  0
 29 30  1  0
 19 31  1  0
 24 31  1  0
 29 32  1  0
 31 32  2  0
 30 33  1  0
 33 34  1  0
 34 35  2  0
 27 36  1  6
 34 37  1  0
 35 38  1  0
 38 39  1  0
 35 40  1  0
 37 41  2  0
 40 42  2  0
 41 42  1  0
M  END
$$$$
O14757_Pocket2Mol_idx-in-all-generaetd-742
     RDKit          3D

 44 52  0  0  0  0  0  0  0  0999 V2000
    1.5482   -0.3111   41.9233 C   0  0  0  0  0  0  0  0  0  0  0  0
    2.7284    0.2018   42.1525 N   0  0  0  0  0  0  0  0  0  0  0  0
    3.7893   -0.3016   42.7005 C   0  0  0  0  0  0  0  0  0  0  0  0
    3.3781   -1.7350   43.0000 C   0  0  0  0  0  0  0  0  0  0  0  0
    2.0339   -1.9619   42.6217 C   0  0  0  0  0  0  0  0  0  0  0  0
    5.0090    0.1219   42.9340 N   0  0  0  0  0  0  0  0  0  0  0  0
    4.2895   -2.4979   43.6707 C   0  0  0  0  0  0  0  0  0  0  0  0
    5.8391   -0.6675   43.6343 C   0  0  0  0  0  0  0  0  0  0  0  0
    6.9849   -0.2377   44.0028 N   0  0  0  0  0  0  0  0  0  0  0  0
    4.0426   -3.8794   44.0832 C   0  0  0  0  0  0  0  0  0  0  0  0
    7.6796   -0.8734   44.9326 C   0  0  0  0  0  0  0  0  0  0  0  0
    1.1064   -2.9576   42.4211 C   0  0  0  0  0  0  0  0  0  0  0  0
    5.5298   -1.9496   44.0315 C   0  0  0  0  0  0  0  0  0  0  0  0
    3.8954   -4.1817   45.4718 C   0  0  0  0  0  0  0  0  0  0  0  0
    0.6765   -3.5480   43.4006 C   0  0  1  0  0  0  0  0  0  0  0  0
    0.5804   -3.2191   41.1635 C   0  0  0  0  0  0  0  0  0  0  0  0
    2.8083   -4.8227   45.9203 N   0  0  0  0  0  0  0  0  0  0  0  0
   -0.1574   -4.5754   42.9329 N   0  0  0  0  0  0  0  0  0  0  0  0
    6.5271   -2.5531   44.9677 C   0  0  0  0  0  0  0  0  0  0  0  0
   -0.2272   -4.3703   41.5137 C   0  0  0  0  0  0  0  0  0  0  0  0
    7.5095   -2.0029   45.3993 C   0  0  0  0  0  0  0  0  0  0  0  0
    8.2550   -2.6982   46.3988 C   0  0  0  0  0  0  0  0  0  0  0  0
    8.8975   -0.3029   45.3267 O   0  0  0  0  0  0  0  0  0  0  0  0
    4.8299   -4.4637   46.4212 C   0  0  0  0  0  0  0  0  0  0  0  0
    4.2707   -4.9248   47.6295 N   0  0  0  0  0  0  0  0  0  0  0  0
    3.2045   -5.2092   47.1521 C   0  0  0  0  0  0  0  0  0  0  0  0
    1.4482   -4.6186   45.4134 C   0  0  1  0  0  0  0  0  0  0  0  0
    1.2398   -3.5043   44.6236 O   0  0  0  0  0  0  0  0  0  0  0  0
    7.8521   -3.9584   46.8773 C   0  0  0  0  0  0  0  0  0  0  0  0
    8.4079   -4.7553   47.7407 C   0  0  0  0  0  0  0  0  0  0  0  0
    5.9516   -3.8110   45.9146 C   0  0  0  0  0  0  0  0  0  0  0  0
    6.6436   -4.3892   46.6649 C   0  0  0  0  0  0  0  0  0  0  0  0
    9.5111   -5.5246   47.2994 O   0  0  0  0  0  0  0  0  0  0  0  0
   10.6238   -5.0197   46.8534 C   0  0  0  0  0  0  0  0  0  0  0  0
   11.5866   -4.7361   47.6189 C   0  0  0  0  0  0  0  0  0  0  0  0
    1.2153   -5.7944   44.5753 C   0  0  0  0  0  0  0  0  0  0  0  0
   10.7023   -4.6532   45.4361 C   0  0  0  0  0  0  0  0  0  0  0  0
   12.8078   -4.2193   47.0828 C   0  0  0  0  0  0  0  0  0  0  0  0
   11.7380   -4.2754   44.9534 C   0  0  0  0  0  0  0  0  0  0  0  0
   12.8684   -3.9910   45.7319 C   0  0  0  0  0  0  0  0  0  0  0  0
   14.2116   -3.3329   45.2244 C   0  0  0  0  0  0  0  0  0  0  0  0
   14.0022   -2.1177   44.7208 C   0  0  0  0  0  0  0  0  0  0  0  0
   13.1384   -1.2837   45.1755 O   0  0  0  0  0  0  0  0  0  0  0  0
   14.1501   -1.8586   43.5305 O   0  0  0  0  0  0  0  0  0  0  0  0
  1  2  1  0
  2  3  2  0
  3  4  1  0
  1  5  2  0
  4  5  1  0
  3  6  1  0
  4  7  2  0
  6  8  1  0
  8  9  1  0
  7 10  1  0
  9 11  1  0
  5 12  1  0
  7 13  1  0
  8 13  2  0
 10 14  1  0
 12 15  1  0
 12 16  2  0
 14 17  1  0
 15 18  1  0
 13 19  1  0
 16 20  1  0
 18 20  2  0
 11 21  1  0
 19 21  2  0
 21 22  1  0
 11 23  2  0
 14 24  2  0
 24 25  1  0
 17 26  1  0
 25 26  2  0
 17 27  1  0
 15 28  1  6
 27 28  1  0
 22 29  2  0
 29 30  1  0
 19 31  1  0
 24 31  1  0
 29 32  1  0
 31 32  2  0
 30 33  1  0
 33 34  1  0
 34 35  2  0
 27 36  1  6
 34 37  1  0
 35 38  1  0
 37 39  2  0
 38 40  2  0
 39 40  1  0
 40 41  1  0
 41 42  1  0
 42 43  1  0
 42 44  2  0
M  END
$$$$
O14757_Pocket2Mol_idx-in-all-generaetd-743
     RDKit          3D

 49 58  0  0  0  0  0  0  0  0999 V2000
    1.5482   -0.3111   41.9233 C   0  0  0  0  0  0  0  0  0  0  0  0
    2.7284    0.2018   42.1525 N   0  0  0  0  0  0  0  0  0  0  0  0
    3.7893   -0.3016   42.7005 C   0  0  0  0  0  0  0  0  0  0  0  0
    3.3781   -1.7350   43.0000 C   0  0  0  0  0  0  0  0  0  0  0  0
    2.0339   -1.9619   42.6217 C   0  0  0  0  0  0  0  0  0  0  0  0
    5.0090    0.1219   42.9340 N   0  0  0  0  0  0  0  0  0  0  0  0
    4.2895   -2.4979   43.6707 C   0  0  0  0  0  0  0  0  0  0  0  0
    5.8391   -0.6675   43.6343 C   0  0  0  0  0  0  0  0  0  0  0  0
    6.9849   -0.2377   44.0028 N   0  0  0  0  0  0  0  0  0  0  0  0
    4.0426   -3.8794   44.0832 C   0  0  0  0  0  0  0  0  0  0  0  0
    7.6796   -0.8734   44.9326 C   0  0  0  0  0  0  0  0  0  0  0  0
    1.1064   -2.9576   42.4211 C   0  0  0  0  0  0  0  0  0  0  0  0
    5.5298   -1.9496   44.0315 C   0  0  0  0  0  0  0  0  0  0  0  0
    3.8954   -4.1817   45.4718 C   0  0  0  0  0  0  0  0  0  0  0  0
    0.6765   -3.5480   43.4006 C   0  0  1  0  0  0  0  0  0  0  0  0
    0.5804   -3.2191   41.1635 C   0  0  0  0  0  0  0  0  0  0  0  0
    2.8083   -4.8227   45.9203 N   0  0  0  0  0  0  0  0  0  0  0  0
   -0.1574   -4.5754   42.9329 N   0  0  0  0  0  0  0  0  0  0  0  0
    6.5271   -2.5531   44.9677 C   0  0  0  0  0  0  0  0  0  0  0  0
   -0.2272   -4.3703   41.5137 C   0  0  0  0  0  0  0  0  0  0  0  0
    7.5095   -2.0029   45.3993 C   0  0  0  0  0  0  0  0  0  0  0  0
    8.2550   -2.6982   46.3988 C   0  0  1  0  0  0  0  0  0  0  0  0
    8.8975   -0.3029   45.3267 O   0  0  0  0  0  0  0  0  0  0  0  0
    4.8299   -4.4637   46.4212 C   0  0  0  0  0  0  0  0  0  0  0  0
    4.2707   -4.9248   47.6295 N   0  0  0  0  0  0  0  0  0  0  0  0
    3.2045   -5.2092   47.1521 C   0  0  0  0  0  0  0  0  0  0  0  0
    1.4482   -4.6186   45.4134 C   0  0  0  0  0  0  0  0  0  0  0  0
    1.3256   -3.7660   44.6394 N   0  0  0  0  0  0  0  0  0  0  0  0
    9.2816   -2.1418   47.1273 N   0  0  0  0  0  0  0  0  0  0  0  0
   10.0629   -3.1324   47.8508 C   0  0  0  0  0  0  0  0  0  0  0  0
    6.3491   -3.8960   46.0844 C   0  0  2  0  0  0  0  0  0  0  0  0
    7.4349   -3.5889   46.9054 C   0  0  0  0  0  0  0  0  0  0  0  0
   10.3145   -2.7271   49.0818 O   0  0  0  0  0  0  0  0  0  0  0  0
    0.6213   -5.4445   45.7455 O   0  0  0  0  0  0  0  0  0  0  0  0
   11.0262   -3.8136   47.1050 C   0  0  0  0  0  0  0  0  0  0  0  0
   12.1704   -3.3854   46.7547 C   0  0  0  0  0  0  0  0  0  0  0  0
   13.1080   -4.1111   46.0053 C   0  0  0  0  0  0  0  0  0  0  0  0
   14.3489   -3.5966   45.7888 C   0  0  0  0  0  0  0  0  0  0  0  0
   12.7430   -5.2725   45.5056 C   0  0  0  0  0  0  0  0  0  0  0  0
   14.6935   -2.2816   45.3353 C   0  0  0  0  0  0  0  0  0  0  0  0
   15.8828   -1.9964   44.9887 C   0  0  0  0  0  0  0  0  0  0  0  0
   15.4347   -4.4529   45.9716 C   0  0  0  0  0  0  0  0  0  0  0  0
   16.1869   -0.5957   44.4528 O   0  0  0  0  0  0  0  0  0  0  0  0
   10.4748   -5.1116   46.5806 C   0  0  0  0  0  0  0  0  0  0  0  0
   16.7998   -3.8587   45.6343 C   0  0  0  0  0  0  0  0  0  0  0  0
   11.3414   -5.8299   45.8283 C   0  0  0  0  0  0  0  0  0  0  0  0
   17.9158   -4.8446   45.8337 O   0  0  0  0  0  0  0  0  0  0  0  0
   16.9990   -2.7027   45.1764 C   0  0  0  0  0  0  0  0  0  0  0  0
   15.7155   -0.3274   43.2227 C   0  0  0  0  0  0  0  0  0  0  0  0
  1  2  1  0
  2  3  2  0
  3  4  1  0
  1  5  2  0
  4  5  1  0
  3  6  1  0
  4  7  2  0
  6  8  1  0
  8  9  1  0
  7 10  1  0
  9 11  1  0
  5 12  1  0
  7 13  1  0
  8 13  2  0
 10 14  1  0
 12 15  1  0
 12 16  2  0
 14 17  1  0
 15 18  1  0
 13 19  1  0
 16 20  1  0
 18 20  2  0
 11 21  1  0
 19 21  2  0
 21 22  1  0
 11 23  2  0
 14 24  2  0
 24 25  1  0
 17 26  1  0
 25 26  2  0
 17 27  1  0
 15 28  1  6
 27 28  1  0
 22 29  1  1
 29 30  1  0
 19 31  1  0
 24 31  1  0
 22 32  1  0
 31 32  1  1
 30 33  2  0
 27 34  2  0
 30 35  1  0
 35 36  2  0
 36 37  1  0
 37 38  1  0
 37 39  2  0
 38 40  2  0
 40 41  1  0
 38 42  1  0
 41 43  1  0
 35 44  1  0
 42 45  2  0
 39 46  1  0
 44 46  2  0
 45 47  1  0
 41 48  2  0
 45 48  1  0
 43 49  1  0
M  END
$$$$
O14757_Pocket2Mol_idx-in-all-generaetd-744
     RDKit          3D

 46 53  0  0  0  0  0  0  0  0999 V2000
    5.3420    0.2589   42.8836 O   0  0  0  0  0  0  0  0  0  0  0  0
    5.1627   -0.7554   43.4753 C   0  0  0  0  0  0  0  0  0  0  0  0
    4.0509   -1.4657   43.4177 N   0  0  0  0  0  0  0  0  0  0  0  0
    5.9969   -1.2317   44.6840 C   0  0  0  0  0  0  0  0  0  0  0  0
    2.9618   -1.1021   42.5918 C   0  0  1  0  0  0  0  0  0  0  0  0
    7.3392   -0.8596   44.8412 C   0  0  0  0  0  0  0  0  0  0  0  0
    1.9754   -2.0820   42.2741 C   0  0  0  0  0  0  0  0  0  0  0  0
    5.5910   -2.4282   45.3439 C   0  0  0  0  0  0  0  0  0  0  0  0
    6.5874   -2.9636   46.1581 C   0  0  0  0  0  0  0  0  0  0  0  0
    4.2763   -3.0680   45.0493 N   0  0  0  0  0  0  0  0  0  0  0  0
    3.6188   -2.5886   44.2024 C   0  0  0  0  0  0  0  0  0  0  0  0
    8.1921   -1.4071   45.7505 C   0  0  0  0  0  0  0  0  0  0  0  0
    1.0154   -1.8839   41.2980 C   0  0  0  0  0  0  0  0  0  0  0  0
    2.5720   -3.3564   43.9063 C   0  0  0  0  0  0  0  0  0  0  0  0
    0.2502   -2.8976   41.0751 C   0  0  0  0  0  0  0  0  0  0  0  0
    6.1761   -4.1775   47.0209 C   0  0  0  0  0  0  0  0  0  0  0  0
    1.7266   -3.1047   43.0115 C   0  0  2  0  0  0  0  0  0  0  0  0
    2.3696   -4.5367   44.7536 N   0  0  0  0  0  0  0  0  0  0  0  0
    1.2264   -5.2346   44.4693 C   0  0  0  0  0  0  0  0  0  0  0  0
    0.7187   -3.8955   42.5465 C   0  0  0  0  0  0  0  0  0  0  0  0
    9.4576   -0.8949   46.0327 N   0  0  0  0  0  0  0  0  0  0  0  0
    0.8625   -6.3901   45.2462 C   0  0  0  0  0  0  0  0  0  0  0  0
    7.6467   -2.5139   46.4892 C   0  0  0  0  0  0  0  0  0  0  0  0
   10.4908   -1.5336   45.8242 C   0  0  0  0  0  0  0  0  0  0  0  0
    0.3057   -4.9299   43.2909 C   0  0  0  0  0  0  0  0  0  0  0  0
   11.5916   -1.4291   46.7436 C   0  0  0  0  0  0  0  0  0  0  0  0
   10.5566   -2.3672   44.8649 O   0  0  0  0  0  0  0  0  0  0  0  0
   12.8421   -1.9355   46.2823 C   0  0  0  0  0  0  0  0  0  0  0  0
   13.4833   -2.8582   46.9841 C   0  0  0  0  0  0  0  0  0  0  0  0
   11.4002   -1.1447   48.0540 C   0  0  0  0  0  0  0  0  0  0  0  0
   10.2867   -0.4569   48.4999 O   0  0  0  0  0  0  0  0  0  0  0  0
   12.3327   -1.4798   48.9564 C   0  0  1  0  0  0  0  0  0  0  0  0
   14.7901   -3.3162   46.6439 C   0  0  0  0  0  0  0  0  0  0  0  0
   12.1651   -1.3050   50.3239 O   0  0  0  0  0  0  0  0  0  0  0  0
   15.6765   -2.5740   46.0979 C   0  0  0  0  0  0  0  0  0  0  0  0
    2.4608    0.2106   42.8512 C   0  0  0  0  0  0  0  0  0  0  0  0
   15.5213   -1.2590   45.7606 C   0  0  0  0  0  0  0  0  0  0  0  0
   14.5349   -0.8899   44.8574 C   0  0  0  0  0  0  0  0  0  0  0  0
   12.9775   -3.3460   48.2127 C   0  0  0  0  0  0  0  0  0  0  0  0
   14.7129   -0.1943   43.8652 C   0  0  0  0  0  0  0  0  0  0  0  0
   13.1163   -1.3789   45.0490 O   0  0  0  0  0  0  0  0  0  0  0  0
   16.0442    0.3600   43.7609 C   0  0  0  0  0  0  0  0  0  0  0  0
   12.9414   -2.5996   49.2994 C   0  0  0  0  0  0  0  0  0  0  0  0
   16.8735   -0.7939   45.4270 C   0  0  0  0  0  0  0  0  0  0  0  0
   16.1400    1.4434   42.5606 C   0  0  0  0  0  0  0  0  0  0  0  0
   16.9062    0.2188   44.4375 C   0  0  0  0  0  0  0  0  0  0  0  0
  1  2  2  0
  2  3  1  0
  2  4  1  0
  3  5  1  0
  4  6  2  0
  5  7  1  0
  4  8  1  0
  8  9  2  0
  8 10  1  0
  3 11  1  0
 10 11  2  0
  6 12  1  0
  7 13  2  0
 11 14  1  0
 13 15  1  0
  9 16  1  0
 17  7  1  6
 14 17  1  0
 14 18  2  0
 18 19  1  0
 15 20  2  0
 17 20  1  0
 12 21  1  0
 19 22  1  0
  9 23  1  0
 12 23  2  0
 21 24  1  0
 19 25  2  0
 20 25  1  0
 24 26  1  0
 24 27  2  0
 26 28  1  0
 28 29  2  0
 26 30  2  0
 30 31  1  0
 30 32  1  0
 29 33  1  0
 32 34  1  1
 33 35  2  0
  5 36  1  1
 35 37  1  0
 37 38  2  0
 29 39  1  0
 38 40  1  0
 28 41  1  0
 38 41  1  0
 40 42  2  0
 32 43  1  0
 39 43  1  0
 37 44  1  0
 42 45  1  0
 42 46  1  0
 44 46  2  0
M  END
$$$$
O14757_Pocket2Mol_idx-in-all-generaetd-745
     RDKit          3D

 50 60  0  0  0  0  0  0  0  0999 V2000
    1.5482   -0.3111   41.9233 C   0  0  0  0  0  0  0  0  0  0  0  0
    2.7284    0.2018   42.1525 N   0  0  0  0  0  0  0  0  0  0  0  0
    3.7893   -0.3016   42.7005 C   0  0  0  0  0  0  0  0  0  0  0  0
    3.3781   -1.7350   43.0000 C   0  0  0  0  0  0  0  0  0  0  0  0
    2.0339   -1.9619   42.6217 C   0  0  0  0  0  0  0  0  0  0  0  0
    5.0090    0.1219   42.9340 N   0  0  0  0  0  0  0  0  0  0  0  0
    4.2895   -2.4979   43.6707 C   0  0  0  0  0  0  0  0  0  0  0  0
    5.8391   -0.6675   43.6343 C   0  0  0  0  0  0  0  0  0  0  0  0
    6.9849   -0.2377   44.0028 N   0  0  0  0  0  0  0  0  0  0  0  0
    4.0426   -3.8794   44.0832 C   0  0  0  0  0  0  0  0  0  0  0  0
    7.6796   -0.8734   44.9326 C   0  0  0  0  0  0  0  0  0  0  0  0
    1.1064   -2.9576   42.4211 C   0  0  0  0  0  0  0  0  0  0  0  0
    5.5298   -1.9496   44.0315 C   0  0  0  0  0  0  0  0  0  0  0  0
    3.8954   -4.1817   45.4718 C   0  0  0  0  0  0  0  0  0  0  0  0
    0.6765   -3.5480   43.4006 C   0  0  1  0  0  0  0  0  0  0  0  0
    0.5804   -3.2191   41.1635 C   0  0  0  0  0  0  0  0  0  0  0  0
    2.8083   -4.8227   45.9203 N   0  0  0  0  0  0  0  0  0  0  0  0
   -0.1574   -4.5754   42.9329 N   0  0  0  0  0  0  0  0  0  0  0  0
    6.5271   -2.5531   44.9677 C   0  0  0  0  0  0  0  0  0  0  0  0
   -0.2272   -4.3703   41.5137 C   0  0  0  0  0  0  0  0  0  0  0  0
    7.5095   -2.0029   45.3993 C   0  0  0  0  0  0  0  0  0  0  0  0
    8.2550   -2.6982   46.3988 C   0  0  1  0  0  0  0  0  0  0  0  0
    8.8975   -0.3029   45.3267 O   0  0  0  0  0  0  0  0  0  0  0  0
    4.8299   -4.4637   46.4212 C   0  0  0  0  0  0  0  0  0  0  0  0
    4.2707   -4.9248   47.6295 N   0  0  0  0  0  0  0  0  0  0  0  0
    3.2045   -5.2092   47.1521 C   0  0  0  0  0  0  0  0  0  0  0  0
    1.4482   -4.6186   45.4134 C   0  0  0  0  0  0  0  0  0  0  0  0
    1.3256   -3.7660   44.6394 N   0  0  0  0  0  0  0  0  0  0  0  0
    9.2816   -2.1418   47.1273 N   0  0  0  0  0  0  0  0  0  0  0  0
   10.0629   -3.1324   47.8508 C   0  0  0  0  0  0  0  0  0  0  0  0
    6.3491   -3.8960   46.0844 C   0  0  2  0  0  0  0  0  0  0  0  0
    7.4349   -3.5889   46.9054 C   0  0  0  0  0  0  0  0  0  0  0  0
   10.3145   -2.7271   49.0818 O   0  0  0  0  0  0  0  0  0  0  0  0
    0.6213   -5.4445   45.7455 O   0  0  0  0  0  0  0  0  0  0  0  0
   11.0262   -3.8136   47.1050 C   0  0  0  0  0  0  0  0  0  0  0  0
   12.1704   -3.3854   46.7547 C   0  0  0  0  0  0  0  0  0  0  0  0
   13.1080   -4.1111   46.0053 C   0  0  0  0  0  0  0  0  0  0  0  0
   14.3489   -3.5966   45.7888 C   0  0  0  0  0  0  0  0  0  0  0  0
   12.7430   -5.2725   45.5056 C   0  0  0  0  0  0  0  0  0  0  0  0
   10.8315   -5.3520   46.8908 C   0  0  0  0  0  0  0  0  0  0  0  0
   11.5834   -5.8795   45.9965 C   0  0  0  0  0  0  0  0  0  0  0  0
   14.5673   -2.2844   45.3294 C   0  0  0  0  0  0  0  0  0  0  0  0
   15.6990   -1.9377   44.9307 C   0  0  0  0  0  0  0  0  0  0  0  0
   15.9777   -0.5351   44.4220 C   0  0  0  0  0  0  0  0  0  0  0  0
   15.4694   -4.3459   45.9452 C   0  0  0  0  0  0  0  0  0  0  0  0
   16.9310   -2.5950   45.1224 C   0  0  0  0  0  0  0  0  0  0  0  0
   16.7670   -3.9180   45.6145 C   0  0  0  0  0  0  0  0  0  0  0  0
   14.8045    0.0786   44.0239 C   0  0  0  0  0  0  0  0  0  0  0  0
   13.6895   -0.4551   44.1232 C   0  0  0  0  0  0  0  0  0  0  0  0
   13.3965   -1.5712   44.8714 C   0  0  0  0  0  0  0  0  0  0  0  0
  1  2  1  0
  2  3  2  0
  3  4  1  0
  1  5  2  0
  4  5  1  0
  3  6  1  0
  4  7  2  0
  6  8  1  0
  8  9  1  0
  7 10  1  0
  9 11  1  0
  5 12  1  0
  7 13  1  0
  8 13  2  0
 10 14  1  0
 12 15  1  0
 12 16  2  0
 14 17  1  0
 15 18  1  0
 13 19  1  0
 16 20  1  0
 18 20  2  0
 11 21  1  0
 19 21  2  0
 21 22  1  0
 11 23  2  0
 14 24  2  0
 24 25  1  0
 17 26  1  0
 25 26  2  0
 17 27  1  0
 15 28  1  6
 27 28  1  0
 22 29  1  1
 29 30  1  0
 19 31  1  0
 24 31  1  0
 22 32  1  0
 31 32  1  1
 30 33  2  0
 27 34  2  0
 30 35  1  0
 35 36  2  0
 36 37  1  0
 37 38  1  0
 37 39  2  0
 35 40  1  0
 39 41  1  0
 40 41  2  0
 38 42  1  0
 42 43  1  0
 43 44  2  0
 38 45  2  0
 43 46  1  0
 45 47  1  0
 46 47  2  0
 44 48  1  0
 48 49  2  0
 42 50  2  0
 49 50  1  0
M  END
$$$$
O14757_Pocket2Mol_idx-in-all-generaetd-746
     RDKit          3D

 47 54  0  0  0  0  0  0  0  0999 V2000
    5.3420    0.2589   42.8836 O   0  0  0  0  0  0  0  0  0  0  0  0
    5.1627   -0.7554   43.4753 C   0  0  0  0  0  0  0  0  0  0  0  0
    4.0509   -1.4657   43.4177 N   0  0  0  0  0  0  0  0  0  0  0  0
    5.9969   -1.2317   44.6840 C   0  0  0  0  0  0  0  0  0  0  0  0
    2.9618   -1.1021   42.5918 C   0  0  1  0  0  0  0  0  0  0  0  0
    7.3392   -0.8596   44.8412 C   0  0  0  0  0  0  0  0  0  0  0  0
    1.9754   -2.0820   42.2741 C   0  0  0  0  0  0  0  0  0  0  0  0
    5.5910   -2.4282   45.3439 C   0  0  0  0  0  0  0  0  0  0  0  0
    6.5874   -2.9636   46.1581 C   0  0  0  0  0  0  0  0  0  0  0  0
    4.2763   -3.0680   45.0493 N   0  0  0  0  0  0  0  0  0  0  0  0
    3.6188   -2.5886   44.2024 C   0  0  0  0  0  0  0  0  0  0  0  0
    8.1921   -1.4071   45.7505 C   0  0  0  0  0  0  0  0  0  0  0  0
    1.0154   -1.8839   41.2980 C   0  0  0  0  0  0  0  0  0  0  0  0
    2.5720   -3.3564   43.9063 C   0  0  0  0  0  0  0  0  0  0  0  0
    0.2502   -2.8976   41.0751 C   0  0  0  0  0  0  0  0  0  0  0  0
    6.1761   -4.1775   47.0209 C   0  0  0  0  0  0  0  0  0  0  0  0
    1.7266   -3.1047   43.0115 C   0  0  2  0  0  0  0  0  0  0  0  0
    2.3696   -4.5367   44.7536 N   0  0  0  0  0  0  0  0  0  0  0  0
    1.2264   -5.2346   44.4693 C   0  0  0  0  0  0  0  0  0  0  0  0
    0.7187   -3.8955   42.5465 C   0  0  0  0  0  0  0  0  0  0  0  0
    9.4576   -0.8949   46.0327 N   0  0  0  0  0  0  0  0  0  0  0  0
    0.8625   -6.3901   45.2462 C   0  0  0  0  0  0  0  0  0  0  0  0
    7.6467   -2.5139   46.4892 C   0  0  0  0  0  0  0  0  0  0  0  0
   10.4908   -1.5336   45.8242 C   0  0  0  0  0  0  0  0  0  0  0  0
    0.3057   -4.9299   43.2909 C   0  0  0  0  0  0  0  0  0  0  0  0
   11.5916   -1.4291   46.7436 C   0  0  0  0  0  0  0  0  0  0  0  0
   10.5566   -2.3672   44.8649 O   0  0  0  0  0  0  0  0  0  0  0  0
   12.8421   -1.9355   46.2823 C   0  0  0  0  0  0  0  0  0  0  0  0
   13.4833   -2.8582   46.9841 C   0  0  0  0  0  0  0  0  0  0  0  0
   11.4002   -1.1447   48.0540 C   0  0  0  0  0  0  0  0  0  0  0  0
   10.2867   -0.4569   48.4999 O   0  0  0  0  0  0  0  0  0  0  0  0
   12.3327   -1.4798   48.9564 C   0  0  1  0  0  0  0  0  0  0  0  0
   14.7901   -3.3162   46.6439 C   0  0  0  0  0  0  0  0  0  0  0  0
   12.1651   -1.3050   50.3239 O   0  0  0  0  0  0  0  0  0  0  0  0
   15.6765   -2.5740   46.0979 C   0  0  0  0  0  0  0  0  0  0  0  0
    2.4608    0.2106   42.8512 C   0  0  0  0  0  0  0  0  0  0  0  0
   15.5213   -1.2590   45.7606 C   0  0  0  0  0  0  0  0  0  0  0  0
   14.5349   -0.8899   44.8574 C   0  0  0  0  0  0  0  0  0  0  0  0
   12.9775   -3.3460   48.2127 C   0  0  0  0  0  0  0  0  0  0  0  0
   14.7129   -0.1943   43.8652 C   0  0  0  0  0  0  0  0  0  0  0  0
   13.1163   -1.3789   45.0490 O   0  0  0  0  0  0  0  0  0  0  0  0
   12.7443   -2.7596   49.2688 C   0  0  0  0  0  0  0  0  0  0  0  0
   16.7753   -0.6612   45.4305 C   0  0  0  0  0  0  0  0  0  0  0  0
   17.8830   -0.8892   46.3079 O   0  0  0  0  0  0  0  0  0  0  0  0
   16.9022    0.3654   44.5295 C   0  0  0  0  0  0  0  0  0  0  0  0
   18.0475    1.1238   44.3825 O   0  0  0  0  0  0  0  0  0  0  0  0
   15.8297    0.7242   43.7142 C   0  0  0  0  0  0  0  0  0  0  0  0
  1  2  2  0
  2  3  1  0
  2  4  1  0
  3  5  1  0
  4  6  2  0
  5  7  1  0
  4  8  1  0
  8  9  2  0
  8 10  1  0
  3 11  1  0
 10 11  2  0
  6 12  1  0
  7 13  2  0
 11 14  1  0
 13 15  1  0
  9 16  1  0
 17  7  1  6
 14 17  1  0
 14 18  2  0
 18 19  1  0
 15 20  2  0
 17 20  1  0
 12 21  1  0
 19 22  1  0
  9 23  1  0
 12 23  2  0
 21 24  1  0
 19 25  2  0
 20 25  1  0
 24 26  1  0
 24 27  2  0
 26 28  1  0
 28 29  2  0
 26 30  2  0
 30 31  1  0
 30 32  1  0
 29 33  1  0
 32 34  1  1
 33 35  2  0
  5 36  1  1
 35 37  1  0
 37 38  2  0
 29 39  1  0
 38 40  1  0
 28 41  1  0
 38 41  1  0
 32 42  1  0
 39 42  1  0
 37 43  1  0
 43 44  1  0
 43 45  2  0
 45 46  1  0
 40 47  2  0
 45 47  1  0
M  END
$$$$
O14757_Pocket2Mol_idx-in-all-generaetd-747
     RDKit          3D

 49 58  0  0  0  0  0  0  0  0999 V2000
    1.5482   -0.3111   41.9233 C   0  0  0  0  0  0  0  0  0  0  0  0
    2.7284    0.2018   42.1525 N   0  0  0  0  0  0  0  0  0  0  0  0
    3.7893   -0.3016   42.7005 C   0  0  0  0  0  0  0  0  0  0  0  0
    3.3781   -1.7350   43.0000 C   0  0  0  0  0  0  0  0  0  0  0  0
    2.0339   -1.9619   42.6217 C   0  0  0  0  0  0  0  0  0  0  0  0
    5.0090    0.1219   42.9340 N   0  0  0  0  0  0  0  0  0  0  0  0
    4.2895   -2.4979   43.6707 C   0  0  0  0  0  0  0  0  0  0  0  0
    5.8391   -0.6675   43.6343 C   0  0  0  0  0  0  0  0  0  0  0  0
    6.9849   -0.2377   44.0028 N   0  0  0  0  0  0  0  0  0  0  0  0
    4.0426   -3.8794   44.0832 C   0  0  0  0  0  0  0  0  0  0  0  0
    7.6796   -0.8734   44.9326 C   0  0  0  0  0  0  0  0  0  0  0  0
    1.1064   -2.9576   42.4211 C   0  0  0  0  0  0  0  0  0  0  0  0
    5.5298   -1.9496   44.0315 C   0  0  0  0  0  0  0  0  0  0  0  0
    3.8954   -4.1817   45.4718 C   0  0  0  0  0  0  0  0  0  0  0  0
    0.6765   -3.5480   43.4006 C   0  0  1  0  0  0  0  0  0  0  0  0
    0.5804   -3.2191   41.1635 C   0  0  0  0  0  0  0  0  0  0  0  0
    2.8083   -4.8227   45.9203 N   0  0  0  0  0  0  0  0  0  0  0  0
   -0.1574   -4.5754   42.9329 N   0  0  0  0  0  0  0  0  0  0  0  0
    6.5271   -2.5531   44.9677 C   0  0  0  0  0  0  0  0  0  0  0  0
   -0.2272   -4.3703   41.5137 C   0  0  0  0  0  0  0  0  0  0  0  0
    7.5095   -2.0029   45.3993 C   0  0  0  0  0  0  0  0  0  0  0  0
    8.2550   -2.6982   46.3988 C   0  0  1  0  0  0  0  0  0  0  0  0
    8.8975   -0.3029   45.3267 O   0  0  0  0  0  0  0  0  0  0  0  0
    4.8299   -4.4637   46.4212 C   0  0  0  0  0  0  0  0  0  0  0  0
    4.2707   -4.9248   47.6295 N   0  0  0  0  0  0  0  0  0  0  0  0
    3.2045   -5.2092   47.1521 C   0  0  0  0  0  0  0  0  0  0  0  0
    1.4482   -4.6186   45.4134 C   0  0  0  0  0  0  0  0  0  0  0  0
    1.3256   -3.7660   44.6394 N   0  0  0  0  0  0  0  0  0  0  0  0
    9.2816   -2.1418   47.1273 N   0  0  0  0  0  0  0  0  0  0  0  0
   10.0629   -3.1324   47.8508 C   0  0  0  0  0  0  0  0  0  0  0  0
    6.3491   -3.8960   46.0844 C   0  0  2  0  0  0  0  0  0  0  0  0
    7.4349   -3.5889   46.9054 C   0  0  0  0  0  0  0  0  0  0  0  0
   10.3145   -2.7271   49.0818 O   0  0  0  0  0  0  0  0  0  0  0  0
    0.6213   -5.4445   45.7455 O   0  0  0  0  0  0  0  0  0  0  0  0
   11.0262   -3.8136   47.1050 C   0  0  0  0  0  0  0  0  0  0  0  0
   12.1704   -3.3854   46.7547 C   0  0  0  0  0  0  0  0  0  0  0  0
   13.1080   -4.1111   46.0053 C   0  0  0  0  0  0  0  0  0  0  0  0
   14.3489   -3.5966   45.7888 C   0  0  0  0  0  0  0  0  0  0  0  0
   12.7430   -5.2725   45.5056 C   0  0  0  0  0  0  0  0  0  0  0  0
   10.8315   -5.3520   46.8908 C   0  0  0  0  0  0  0  0  0  0  0  0
   11.5834   -5.8795   45.9965 C   0  0  0  0  0  0  0  0  0  0  0  0
   14.5673   -2.2844   45.3294 C   0  0  0  0  0  0  0  0  0  0  0  0
   15.6990   -1.9377   44.9307 C   0  0  0  0  0  0  0  0  0  0  0  0
   15.4698   -4.3840   45.9734 C   0  0  0  0  0  0  0  0  0  0  0  0
   15.3726   -5.7464   46.5341 O   0  0  0  0  0  0  0  0  0  0  0  0
   16.8663   -2.6545   45.1307 C   0  0  0  0  0  0  0  0  0  0  0  0
   18.1345   -2.1797   44.7234 O   0  0  0  0  0  0  0  0  0  0  0  0
   15.8789   -6.7455   45.8252 C   0  0  0  0  0  0  0  0  0  0  0  0
   16.7618   -3.9469   45.6412 C   0  0  0  0  0  0  0  0  0  0  0  0
  1  2  1  0
  2  3  2  0
  3  4  1  0
  1  5  2  0
  4  5  1  0
  3  6  1  0
  4  7  2  0
  6  8  1  0
  8  9  1  0
  7 10  1  0
  9 11  1  0
  5 12  1  0
  7 13  1  0
  8 13  2  0
 10 14  1  0
 12 15  1  0
 12 16  2  0
 14 17  1  0
 15 18  1  0
 13 19  1  0
 16 20  1  0
 18 20  2  0
 11 21  1  0
 19 21  2  0
 21 22  1  0
 11 23  2  0
 14 24  2  0
 24 25  1  0
 17 26  1  0
 25 26  2  0
 17 27  1  0
 15 28  1  6
 27 28  1  0
 22 29  1  1
 29 30  1  0
 19 31  1  0
 24 31  1  0
 22 32  1  0
 31 32  1  1
 30 33  2  0
 27 34  2  0
 30 35  1  0
 35 36  2  0
 36 37  1  0
 37 38  1  0
 37 39  2  0
 35 40  1  0
 39 41  1  0
 40 41  2  0
 38 42  2  0
 42 43  1  0
 38 44  1  0
 44 45  1  0
 43 46  2  0
 46 47  1  0
 45 48  1  0
 44 49  2  0
 46 49  1  0
M  END
$$$$
O14757_Pocket2Mol_idx-in-all-generaetd-748
     RDKit          3D

 40 47  0  0  0  0  0  0  0  0999 V2000
    1.5482   -0.3111   41.9233 C   0  0  0  0  0  0  0  0  0  0  0  0
    2.7284    0.2018   42.1525 N   0  0  0  0  0  0  0  0  0  0  0  0
    3.7893   -0.3016   42.7005 C   0  0  0  0  0  0  0  0  0  0  0  0
    3.3781   -1.7350   43.0000 C   0  0  0  0  0  0  0  0  0  0  0  0
    2.0339   -1.9619   42.6217 C   0  0  0  0  0  0  0  0  0  0  0  0
    4.1166   -2.4997   43.8458 C   0  0  0  0  0  0  0  0  0  0  0  0
    1.1731   -3.0051   42.5773 C   0  0  0  0  0  0  0  0  0  0  0  0
    0.4701   -3.2344   41.4901 C   0  0  0  0  0  0  0  0  0  0  0  0
    5.3799   -1.7814   44.2691 C   0  0  0  0  0  0  0  0  0  0  0  0
    5.0159   -0.0180   43.1201 N   0  0  0  0  0  0  0  0  0  0  0  0
    5.7693   -0.6937   43.8418 C   0  0  0  0  0  0  0  0  0  0  0  0
    0.8078   -3.6166   43.6782 C   0  0  0  0  0  0  0  0  0  0  0  0
    0.0663   -4.7011   43.7415 N   0  0  0  0  0  0  0  0  0  0  0  0
    6.2223   -2.6843   45.1565 C   0  0  0  0  0  0  0  0  0  0  0  0
    6.9599   -0.2351   44.2608 N   0  0  0  0  0  0  0  0  0  0  0  0
    5.9065   -3.9037   45.7499 N   0  0  0  0  0  0  0  0  0  0  0  0
   -0.5459   -5.1185   42.5870 C   0  0  0  0  0  0  0  0  0  0  0  0
    5.7480   -4.0340   46.9810 C   0  0  0  0  0  0  0  0  0  0  0  0
    7.4448   -1.8511   45.4198 C   0  0  0  0  0  0  0  0  0  0  0  0
    7.7572   -0.7827   45.0128 C   0  0  0  0  0  0  0  0  0  0  0  0
    8.4076   -2.7217   46.4541 C   0  0  0  0  0  0  0  0  0  0  0  0
    9.3167   -2.0988   47.1049 N   0  0  0  0  0  0  0  0  0  0  0  0
   -0.4719   -4.3893   41.5406 C   0  0  0  0  0  0  0  0  0  0  0  0
    8.3667   -4.0284   46.5743 N   0  0  0  0  0  0  0  0  0  0  0  0
    9.5309   -4.3147   47.3094 C   0  0  0  0  0  0  0  0  0  0  0  0
    5.3113   -3.3789   47.8005 O   0  0  0  0  0  0  0  0  0  0  0  0
    9.9022   -5.6301   47.7684 C   0  0  0  0  0  0  0  0  0  0  0  0
    5.4470   -5.5868   47.2096 C   0  0  0  0  0  0  0  0  0  0  0  0
   11.2254   -5.8679   48.0402 C   0  0  0  0  0  0  0  0  0  0  0  0
    8.9736   -6.6532   47.8548 C   0  0  0  0  0  0  0  0  0  0  0  0
   10.0616   -3.0670   47.6360 C   0  0  0  0  0  0  0  0  0  0  0  0
    7.5566   -6.3564   47.5477 N   0  0  0  0  0  0  0  0  0  0  0  0
    6.4157   -6.1721   48.0913 C   0  0  0  0  0  0  0  0  0  0  0  0
   12.3275   -4.8510   47.9324 C   0  0  0  0  0  0  0  0  0  0  0  0
    9.4585   -7.9662   48.0726 C   0  0  0  0  0  0  0  0  0  0  0  0
   11.5288   -2.7910   48.1740 C   0  0  0  0  0  0  0  0  0  0  0  0
   11.6989   -7.1590   48.3688 C   0  0  0  0  0  0  0  0  0  0  0  0
   12.2755   -3.6526   48.1917 N   0  0  0  0  0  0  0  0  0  0  0  0
   13.0611   -7.4253   48.6753 O   0  0  0  0  0  0  0  0  0  0  0  0
   10.8345   -8.1333   48.3790 C   0  0  0  0  0  0  0  0  0  0  0  0
  1  2  1  0
  2  3  2  0
  3  4  1  0
  1  5  2  0
  4  5  1  0
  4  6  2  0
  5  7  1  0
  7  8  2  0
  6  9  1  0
  3 10  1  0
  9 11  2  0
 10 11  1  0
  7 12  1  0
 12 13  2  0
  9 14  1  0
 11 15  1  0
 14 16  1  0
 13 17  1  0
 16 18  1  0
 14 19  2  0
 15 20  2  0
 19 20  1  0
 19 21  1  0
 21 22  2  0
  8 23  1  0
 17 23  2  0
 21 24  1  0
 24 25  1  0
 18 26  2  0
 25 27  1  0
 18 28  1  0
 27 29  2  0
 27 30  1  0
 22 31  1  0
 25 31  2  0
 30 32  1  0
 28 33  1  0
 32 33  1  0
 29 34  1  0
 30 35  2  0
 31 36  1  0
 29 37  1  0
 34 38  1  0
 36 38  2  0
 37 39  1  0
 35 40  1  0
 37 40  2  0
M  END
$$$$
O14757_Pocket2Mol_idx-in-all-generaetd-749
     RDKit          3D

 30 33  0  0  0  0  0  0  0  0999 V2000
    5.5575   -0.4055   43.2321 N   0  0  0  0  0  0  0  0  0  0  0  0
    4.5233    0.0727   42.5988 N   0  0  0  0  0  0  0  0  0  0  0  0
    5.1726   -1.5114   43.9314 C   0  0  0  0  0  0  0  0  0  0  0  0
    5.9080   -2.2268   44.9217 C   0  0  0  0  0  0  0  0  0  0  0  0
    5.3635   -3.3861   45.5121 C   0  0  0  0  0  0  0  0  0  0  0  0
    7.1791   -1.7734   45.4544 C   0  0  0  0  0  0  0  0  0  0  0  0
    3.4069   -0.5377   42.5980 C   0  0  0  0  0  0  0  0  0  0  0  0
    2.1839   -0.4257   41.9942 C   0  0  0  0  0  0  0  0  0  0  0  0
    3.7449   -1.7453   43.5024 C   0  0  0  0  0  0  0  0  0  0  0  0
    7.8525   -0.6503   45.0420 O   0  0  0  0  0  0  0  0  0  0  0  0
    7.8789   -2.5576   46.3941 C   0  0  0  0  0  0  0  0  0  0  0  0
    2.8045   -2.7414   43.6928 C   0  0  0  0  0  0  0  0  0  0  0  0
    9.2115   -2.0969   46.8642 C   0  0  0  0  0  0  0  0  0  0  0  0
    4.0793   -3.8977   45.1232 C   0  0  0  0  0  0  0  0  0  0  0  0
    9.4064   -1.6424   47.9232 O   0  0  0  0  0  0  0  0  0  0  0  0
    3.1160   -3.7348   44.5196 N   0  0  0  0  0  0  0  0  0  0  0  0
   10.2271   -2.0181   45.9902 O   0  0  0  0  0  0  0  0  0  0  0  0
    1.5846   -2.6820   43.0143 C   0  0  0  0  0  0  0  0  0  0  0  0
   11.4761   -2.1798   46.4472 C   0  0  0  0  0  0  0  0  0  0  0  0
    7.2409   -3.6513   46.9381 C   0  0  0  0  0  0  0  0  0  0  0  0
    1.2492   -1.5070   42.1695 C   0  0  0  0  0  0  0  0  0  0  0  0
    0.5019   -3.7675   43.1967 C   0  0  0  0  0  0  0  0  0  0  0  0
    6.0495   -4.1366   46.6035 C   0  0  0  0  0  0  0  0  0  0  0  0
   -0.0338   -4.1944   42.0509 O   0  0  0  0  0  0  0  0  0  0  0  0
    0.1450   -4.1044   44.2749 O   0  0  0  0  0  0  0  0  0  0  0  0
   12.4450   -1.3498   45.8065 C   0  0  0  0  0  0  0  0  0  0  0  0
   13.1540   -0.6078   46.5263 O   0  0  0  0  0  0  0  0  0  0  0  0
   13.1342   -1.9118   44.6508 O   0  0  0  0  0  0  0  0  0  0  0  0
   14.2566   -1.2085   44.3299 C   0  0  0  0  0  0  0  0  0  0  0  0
   12.7982    0.7176   46.8318 C   0  0  0  0  0  0  0  0  0  0  0  0
  1  2  2  0
  1  3  1  0
  3  4  1  0
  4  5  2  0
  4  6  1  0
  2  7  1  0
  7  8  2  0
  3  9  2  0
  7  9  1  0
  6 10  1  0
  6 11  2  0
  9 12  1  0
 11 13  1  0
  5 14  1  0
 13 15  2  0
 12 16  1  0
 14 16  2  0
 13 17  1  0
 12 18  1  0
 17 19  1  0
 11 20  1  0
  8 21  1  0
 18 21  2  0
 18 22  1  0
  5 23  1  0
 20 23  2  0
 22 24  2  0
 22 25  1  0
 19 26  1  0
 26 27  1  0
 26 28  1  0
 28 29  1  0
 27 30  1  0
M  END
$$$$
O14757_Pocket2Mol_idx-in-all-generaetd-750
     RDKit          3D

 32 37  0  0  0  0  0  0  0  0999 V2000
    5.5575   -0.4055   43.2321 N   0  0  0  0  0  0  0  0  0  0  0  0
    4.5233    0.0727   42.5988 N   0  0  0  0  0  0  0  0  0  0  0  0
    5.1726   -1.5114   43.9314 C   0  0  0  0  0  0  0  0  0  0  0  0
    5.9080   -2.2268   44.9217 C   0  0  0  0  0  0  0  0  0  0  0  0
    5.3635   -3.3861   45.5121 C   0  0  0  0  0  0  0  0  0  0  0  0
    7.1791   -1.7734   45.4544 C   0  0  0  0  0  0  0  0  0  0  0  0
    3.4069   -0.5377   42.5980 C   0  0  0  0  0  0  0  0  0  0  0  0
    2.1839   -0.4257   41.9942 C   0  0  0  0  0  0  0  0  0  0  0  0
    3.7449   -1.7453   43.5024 C   0  0  0  0  0  0  0  0  0  0  0  0
    7.8525   -0.6503   45.0420 O   0  0  0  0  0  0  0  0  0  0  0  0
    7.8789   -2.5576   46.3941 C   0  0  0  0  0  0  0  0  0  0  0  0
    2.8045   -2.7414   43.6928 C   0  0  1  0  0  0  0  0  0  0  0  0
    9.2115   -2.0969   46.8642 C   0  0  0  0  0  0  0  0  0  0  0  0
    4.0793   -3.8977   45.1232 C   0  0  1  0  0  0  0  0  0  0  0  0
    7.1913   -3.6941   46.9496 C   0  0  0  0  0  0  0  0  0  0  0  0
    6.0590   -4.0757   46.5019 C   0  0  0  0  0  0  0  0  0  0  0  0
    1.6490   -2.6373   42.8534 C   0  0  0  0  0  0  0  0  0  0  0  0
    0.5956   -3.6893   42.8101 C   0  0  0  0  0  0  0  0  0  0  0  0
    9.3005   -1.4726   47.8971 O   0  0  0  0  0  0  0  0  0  0  0  0
    1.3376   -1.5114   42.0773 C   0  0  0  0  0  0  0  0  0  0  0  0
    3.0680   -3.8779   44.4095 C   0  0  1  0  0  0  0  0  0  0  0  0
    0.6235   -4.4716   43.7755 C   0  0  0  0  0  0  0  0  0  0  0  0
    1.9482   -4.8212   44.4690 N   0  0  0  0  0  0  0  0  0  0  0  0
    2.2980   -5.9094   45.3439 C   0  0  0  0  0  0  0  0  0  0  0  0
    3.9139   -5.2979   45.9567 C   0  0  0  0  0  0  0  0  0  0  0  0
   10.2096   -2.4213   46.1194 N   0  0  0  0  0  0  0  0  0  0  0  0
   11.5515   -2.0818   46.5303 C   0  0  2  0  0  0  0  0  0  0  0  0
   12.2461   -1.2417   45.7316 C   0  0  0  0  0  0  0  0  0  0  0  0
   12.2620   -3.5467   46.4883 C   0  0  0  0  0  0  0  0  0  0  0  0
   11.6511   -4.5683   46.7031 O   0  0  0  0  0  0  0  0  0  0  0  0
   12.0500   -5.3840   47.6725 C   0  0  0  0  0  0  0  0  0  0  0  0
   13.5015   -1.5654   45.4008 O   0  0  0  0  0  0  0  0  0  0  0  0
  1  2  2  0
  1  3  1  0
  3  4  1  0
  4  5  2  0
  4  6  1  0
  2  7  1  0
  7  8  2  0
  3  9  2  0
  7  9  1  0
  6 10  1  0
  6 11  2  0
  9 12  1  0
 11 13  1  0
  5 14  1  0
 11 15  1  0
  5 16  1  0
 15 16  2  0
 12 17  1  6
 17 18  1  0
 13 19  2  0
  8 20  1  0
 17 20  2  0
 12 21  1  0
 14 21  1  0
 18 22  1  0
 21 23  1  1
 22 23  1  0
 23 24  1  0
 14 25  1  6
 24 25  1  0
 13 26  1  0
 26 27  1  0
 27 28  1  6
 27 29  1  0
 29 30  1  0
 30 31  1  0
 28 32  1  0
M  END
$$$$
O14757_Pocket2Mol_idx-in-all-generaetd-751
     RDKit          3D

 45 53  0  0  0  0  0  0  0  0999 V2000
    1.5482   -0.3111   41.9233 C   0  0  0  0  0  0  0  0  0  0  0  0
    2.7284    0.2018   42.1525 N   0  0  0  0  0  0  0  0  0  0  0  0
    3.7893   -0.3016   42.7005 C   0  0  0  0  0  0  0  0  0  0  0  0
    3.3781   -1.7350   43.0000 C   0  0  0  0  0  0  0  0  0  0  0  0
    2.0339   -1.9619   42.6217 C   0  0  0  0  0  0  0  0  0  0  0  0
    5.0090    0.1219   42.9340 N   0  0  0  0  0  0  0  0  0  0  0  0
    4.2895   -2.4979   43.6707 C   0  0  0  0  0  0  0  0  0  0  0  0
    5.8391   -0.6675   43.6343 C   0  0  0  0  0  0  0  0  0  0  0  0
    6.9849   -0.2377   44.0028 N   0  0  0  0  0  0  0  0  0  0  0  0
    4.0426   -3.8794   44.0832 C   0  0  0  0  0  0  0  0  0  0  0  0
    7.6796   -0.8734   44.9326 C   0  0  0  0  0  0  0  0  0  0  0  0
    1.1064   -2.9576   42.4211 C   0  0  0  0  0  0  0  0  0  0  0  0
    5.5298   -1.9496   44.0315 C   0  0  0  0  0  0  0  0  0  0  0  0
    3.8954   -4.1817   45.4718 C   0  0  0  0  0  0  0  0  0  0  0  0
    0.6765   -3.5480   43.4006 C   0  0  1  0  0  0  0  0  0  0  0  0
    0.5804   -3.2191   41.1635 C   0  0  0  0  0  0  0  0  0  0  0  0
    2.8083   -4.8227   45.9203 N   0  0  0  0  0  0  0  0  0  0  0  0
   -0.1574   -4.5754   42.9329 N   0  0  0  0  0  0  0  0  0  0  0  0
    6.5271   -2.5531   44.9677 C   0  0  0  0  0  0  0  0  0  0  0  0
   -0.2272   -4.3703   41.5137 C   0  0  0  0  0  0  0  0  0  0  0  0
    7.5095   -2.0029   45.3993 C   0  0  0  0  0  0  0  0  0  0  0  0
    8.2550   -2.6982   46.3988 C   0  0  1  0  0  0  0  0  0  0  0  0
    8.8975   -0.3029   45.3267 O   0  0  0  0  0  0  0  0  0  0  0  0
    4.8299   -4.4637   46.4212 C   0  0  0  0  0  0  0  0  0  0  0  0
    4.2707   -4.9248   47.6295 N   0  0  0  0  0  0  0  0  0  0  0  0
    3.2045   -5.2092   47.1521 C   0  0  0  0  0  0  0  0  0  0  0  0
    1.4482   -4.6186   45.4134 C   0  0  0  0  0  0  0  0  0  0  0  0
    1.3256   -3.7660   44.6394 N   0  0  0  0  0  0  0  0  0  0  0  0
    9.2816   -2.1418   47.1273 N   0  0  0  0  0  0  0  0  0  0  0  0
   10.0629   -3.1324   47.8508 C   0  0  0  0  0  0  0  0  0  0  0  0
    6.3491   -3.8960   46.0844 C   0  0  2  0  0  0  0  0  0  0  0  0
    7.4349   -3.5889   46.9054 C   0  0  0  0  0  0  0  0  0  0  0  0
   10.3145   -2.7271   49.0818 O   0  0  0  0  0  0  0  0  0  0  0  0
    0.6213   -5.4445   45.7455 O   0  0  0  0  0  0  0  0  0  0  0  0
   11.0262   -3.8136   47.1050 C   0  0  0  0  0  0  0  0  0  0  0  0
   12.1704   -3.3854   46.7547 C   0  0  0  0  0  0  0  0  0  0  0  0
   13.1080   -4.1111   46.0053 C   0  0  0  0  0  0  0  0  0  0  0  0
   14.3489   -3.5966   45.7888 C   0  0  1  0  0  0  0  0  0  0  0  0
   12.7430   -5.2725   45.5056 C   0  0  0  0  0  0  0  0  0  0  0  0
   14.6935   -2.2816   45.3353 C   0  0  0  0  0  0  0  0  0  0  0  0
   10.5583   -5.1175   46.7236 C   0  0  0  0  0  0  0  0  0  0  0  0
   15.1396   -3.9030   46.8732 O   0  0  0  0  0  0  0  0  0  0  0  0
   11.4403   -5.7995   45.8507 C   0  0  0  0  0  0  0  0  0  0  0  0
   13.7214   -1.5433   45.2172 O   0  0  0  0  0  0  0  0  0  0  0  0
   15.8415   -2.0340   45.0197 O   0  0  0  0  0  0  0  0  0  0  0  0
  1  2  1  0
  2  3  2  0
  3  4  1  0
  1  5  2  0
  4  5  1  0
  3  6  1  0
  4  7  2  0
  6  8  1  0
  8  9  1  0
  7 10  1  0
  9 11  1  0
  5 12  1  0
  7 13  1  0
  8 13  2  0
 10 14  1  0
 12 15  1  0
 12 16  2  0
 14 17  1  0
 15 18  1  0
 13 19  1  0
 16 20  1  0
 18 20  2  0
 11 21  1  0
 19 21  2  0
 21 22  1  0
 11 23  2  0
 14 24  2  0
 24 25  1  0
 17 26  1  0
 25 26  2  0
 17 27  1  0
 15 28  1  6
 27 28  1  0
 22 29  1  1
 29 30  1  0
 19 31  1  0
 24 31  1  0
 22 32  1  0
 31 32  1  1
 30 33  2  0
 27 34  2  0
 30 35  1  0
 35 36  2  0
 36 37  1  0
 37 38  1  0
 37 39  2  0
 38 40  1  0
 35 41  1  0
 38 42  1  1
 39 43  1  0
 41 43  2  0
 40 44  1  0
 40 45  2  0
M  END
$$$$
O14757_Pocket2Mol_idx-in-all-generaetd-752
     RDKit          3D

 49 56  0  0  0  0  0  0  0  0999 V2000
    5.3420    0.2589   42.8836 O   0  0  0  0  0  0  0  0  0  0  0  0
    5.1627   -0.7554   43.4753 C   0  0  0  0  0  0  0  0  0  0  0  0
    4.0509   -1.4657   43.4177 N   0  0  0  0  0  0  0  0  0  0  0  0
    5.9969   -1.2317   44.6840 C   0  0  0  0  0  0  0  0  0  0  0  0
    2.9618   -1.1021   42.5918 C   0  0  1  0  0  0  0  0  0  0  0  0
    7.3392   -0.8596   44.8412 C   0  0  0  0  0  0  0  0  0  0  0  0
    1.9754   -2.0820   42.2741 C   0  0  0  0  0  0  0  0  0  0  0  0
    5.5910   -2.4282   45.3439 C   0  0  0  0  0  0  0  0  0  0  0  0
    6.5874   -2.9636   46.1581 C   0  0  0  0  0  0  0  0  0  0  0  0
    4.2763   -3.0680   45.0493 N   0  0  0  0  0  0  0  0  0  0  0  0
    3.6188   -2.5886   44.2024 C   0  0  0  0  0  0  0  0  0  0  0  0
    8.1921   -1.4071   45.7505 C   0  0  0  0  0  0  0  0  0  0  0  0
    1.0154   -1.8839   41.2980 C   0  0  0  0  0  0  0  0  0  0  0  0
    2.5720   -3.3564   43.9063 C   0  0  0  0  0  0  0  0  0  0  0  0
    0.2502   -2.8976   41.0751 C   0  0  0  0  0  0  0  0  0  0  0  0
    6.1761   -4.1775   47.0209 C   0  0  0  0  0  0  0  0  0  0  0  0
    1.7266   -3.1047   43.0115 C   0  0  2  0  0  0  0  0  0  0  0  0
    2.3696   -4.5367   44.7536 N   0  0  0  0  0  0  0  0  0  0  0  0
    1.2264   -5.2346   44.4693 C   0  0  0  0  0  0  0  0  0  0  0  0
    0.7187   -3.8955   42.5465 C   0  0  0  0  0  0  0  0  0  0  0  0
    9.4576   -0.8949   46.0327 N   0  0  0  0  0  0  0  0  0  0  0  0
    0.8625   -6.3901   45.2462 C   0  0  0  0  0  0  0  0  0  0  0  0
    7.6467   -2.5139   46.4892 C   0  0  0  0  0  0  0  0  0  0  0  0
   10.4908   -1.5336   45.8242 C   0  0  0  0  0  0  0  0  0  0  0  0
    0.3057   -4.9299   43.2909 C   0  0  0  0  0  0  0  0  0  0  0  0
   11.5916   -1.4291   46.7436 C   0  0  0  0  0  0  0  0  0  0  0  0
   10.5566   -2.3672   44.8649 O   0  0  0  0  0  0  0  0  0  0  0  0
    2.4730    0.2084   42.8389 O   0  0  0  0  0  0  0  0  0  0  0  0
   11.6027   -2.2081   47.7725 N   0  0  0  0  0  0  0  0  0  0  0  0
   12.6189   -0.5862   46.5415 C   0  0  0  0  0  0  0  0  0  0  0  0
   13.6413   -0.4484   47.4129 C   0  0  0  0  0  0  0  0  0  0  0  0
   10.4764   -3.1097   48.1134 C   0  0  0  0  0  0  0  0  0  0  0  0
    9.5762   -2.4717   49.0753 C   0  0  0  0  0  0  0  0  0  0  0  0
    9.7761   -1.2394   49.5167 C   0  0  0  0  0  0  0  0  0  0  0  0
    8.6397   -3.3252   49.7339 C   0  0  0  0  0  0  0  0  0  0  0  0
    8.9861   -0.7034   50.5819 C   0  0  0  0  0  0  0  0  0  0  0  0
   14.7137    0.5128   47.0925 C   0  0  0  0  0  0  0  0  0  0  0  0
    8.1815   -1.5423   51.2387 C   0  0  0  0  0  0  0  0  0  0  0  0
    8.4156   -4.7176   49.2102 O   0  0  0  0  0  0  0  0  0  0  0  0
   13.6915   -1.2597   48.4795 C   0  0  0  0  0  0  0  0  0  0  0  0
   14.7842   -1.1839   49.3622 C   0  0  0  0  0  0  0  0  0  0  0  0
   12.5774   -2.1710   48.6835 C   0  0  0  0  0  0  0  0  0  0  0  0
   14.8423   -1.9939   50.5370 O   0  0  0  0  0  0  0  0  0  0  0  0
    7.9254   -2.8787   50.8112 C   0  0  0  0  0  0  0  0  0  0  0  0
    8.1000   -5.6218   49.9570 C   0  0  0  0  0  0  0  0  0  0  0  0
   15.7943   -0.2480   49.1897 C   0  0  0  0  0  0  0  0  0  0  0  0
   14.6734    1.3628   46.0134 O   0  0  0  0  0  0  0  0  0  0  0  0
   16.8834   -0.1141   50.0834 O   0  0  0  0  0  0  0  0  0  0  0  0
   15.7857    0.6893   48.0217 C   0  0  0  0  0  0  0  0  0  0  0  0
  1  2  2  0
  2  3  1  0
  2  4  1  0
  3  5  1  0
  4  6  2  0
  5  7  1  0
  4  8  1  0
  8  9  2  0
  8 10  1  0
  3 11  1  0
 10 11  2  0
  6 12  1  0
  7 13  2  0
 11 14  1  0
 13 15  1  0
  9 16  1  0
 17  7  1  6
 14 17  1  0
 14 18  2  0
 18 19  1  0
 15 20  2  0
 17 20  1  0
 12 21  1  0
 19 22  1  0
  9 23  1  0
 12 23  2  0
 21 24  1  0
 19 25  2  0
 20 25  1  0
 24 26  1  0
 24 27  2  0
  5 28  1  1
 26 29  1  0
 26 30  2  0
 30 31  1  0
 29 32  1  0
 32 33  1  0
 33 34  2  0
 33 35  1  0
 34 36  1  0
 31 37  2  0
 36 38  2  0
 35 39  1  0
 31 40  1  0
 40 41  2  0
 29 42  1  0
 40 42  1  0
 41 43  1  0
 35 44  2  0
 38 44  1  0
 39 45  1  0
 41 46  1  0
 37 47  1  0
 46 48  1  0
 37 49  1  0
 46 49  2  0
M  END
$$$$
O14757_Pocket2Mol_idx-in-all-generaetd-753
     RDKit          3D

 27 30  0  0  0  0  0  0  0  0999 V2000
    1.5482   -0.3111   41.9233 C   0  0  0  0  0  0  0  0  0  0  0  0
    2.7284    0.2018   42.1525 N   0  0  0  0  0  0  0  0  0  0  0  0
    3.7893   -0.3016   42.7005 C   0  0  0  0  0  0  0  0  0  0  0  0
    3.3781   -1.7350   43.0000 C   0  0  0  0  0  0  0  0  0  0  0  0
    2.0339   -1.9619   42.6217 C   0  0  0  0  0  0  0  0  0  0  0  0
    5.0090    0.1219   42.9340 N   0  0  0  0  0  0  0  0  0  0  0  0
    4.2895   -2.4979   43.6707 C   0  0  0  0  0  0  0  0  0  0  0  0
    5.8391   -0.6675   43.6343 C   0  0  0  0  0  0  0  0  0  0  0  0
    6.9849   -0.2377   44.0028 N   0  0  0  0  0  0  0  0  0  0  0  0
    4.0426   -3.8794   44.0832 C   0  0  0  0  0  0  0  0  0  0  0  0
    7.6796   -0.8734   44.9326 C   0  0  0  0  0  0  0  0  0  0  0  0
    1.1064   -2.9576   42.4211 C   0  0  0  0  0  0  0  0  0  0  0  0
    5.5298   -1.9496   44.0315 C   0  0  0  0  0  0  0  0  0  0  0  0
    3.8954   -4.1817   45.4718 C   0  0  0  0  0  0  0  0  0  0  0  0
    0.6765   -3.5480   43.4006 C   0  0  0  0  0  0  0  0  0  0  0  0
    0.5804   -3.2191   41.1635 C   0  0  0  0  0  0  0  0  0  0  0  0
    2.8083   -4.8227   45.9203 N   0  0  0  0  0  0  0  0  0  0  0  0
   -0.1574   -4.5754   42.9329 N   0  0  0  0  0  0  0  0  0  0  0  0
    6.5271   -2.5531   44.9677 C   0  0  0  0  0  0  0  0  0  0  0  0
   -0.2272   -4.3703   41.5137 C   0  0  0  0  0  0  0  0  0  0  0  0
    7.5095   -2.0029   45.3993 C   0  0  0  0  0  0  0  0  0  0  0  0
    8.2550   -2.6982   46.3988 C   0  0  0  0  0  0  0  0  0  0  0  0
    4.4030   -3.3432   46.3770 O   0  0  0  0  0  0  0  0  0  0  0  0
    8.9249   -0.3105   45.3298 O   0  0  0  0  0  0  0  0  0  0  0  0
    2.2642   -5.9868   45.3170 C   0  0  0  0  0  0  0  0  0  0  0  0
    9.0753   -2.1444   47.2514 O   0  0  0  0  0  0  0  0  0  0  0  0
    8.3219   -4.0761   46.4695 O   0  0  0  0  0  0  0  0  0  0  0  0
  1  2  1  0
  2  3  2  0
  3  4  1  0
  1  5  2  0
  4  5  1  0
  3  6  1  0
  4  7  2  0
  6  8  1  0
  8  9  1  0
  7 10  1  0
  9 11  1  0
  5 12  1  0
  7 13  1  0
  8 13  2  0
 10 14  1  0
 12 15  1  0
 12 16  2  0
 14 17  1  0
 15 18  1  0
 13 19  1  0
 16 20  1  0
 18 20  2  0
 11 21  1  0
 19 21  2  0
 21 22  1  0
 14 23  2  0
 11 24  2  0
 17 25  1  0
 22 26  1  0
 22 27  2  0
M  END
$$$$
O14757_Pocket2Mol_idx-in-all-generaetd-754
     RDKit          3D

 46 54  0  0  0  0  0  0  0  0999 V2000
    1.5482   -0.3111   41.9233 C   0  0  0  0  0  0  0  0  0  0  0  0
    2.7284    0.2018   42.1525 N   0  0  0  0  0  0  0  0  0  0  0  0
    3.7893   -0.3016   42.7005 C   0  0  0  0  0  0  0  0  0  0  0  0
    3.3781   -1.7350   43.0000 C   0  0  0  0  0  0  0  0  0  0  0  0
    2.0339   -1.9619   42.6217 C   0  0  0  0  0  0  0  0  0  0  0  0
    5.0090    0.1219   42.9340 N   0  0  0  0  0  0  0  0  0  0  0  0
    4.2895   -2.4979   43.6707 C   0  0  0  0  0  0  0  0  0  0  0  0
    5.8391   -0.6675   43.6343 C   0  0  0  0  0  0  0  0  0  0  0  0
    6.9849   -0.2377   44.0028 N   0  0  0  0  0  0  0  0  0  0  0  0
    4.0426   -3.8794   44.0832 C   0  0  0  0  0  0  0  0  0  0  0  0
    7.6796   -0.8734   44.9326 C   0  0  0  0  0  0  0  0  0  0  0  0
    1.1064   -2.9576   42.4211 C   0  0  0  0  0  0  0  0  0  0  0  0
    5.5298   -1.9496   44.0315 C   0  0  0  0  0  0  0  0  0  0  0  0
    3.8954   -4.1817   45.4718 C   0  0  0  0  0  0  0  0  0  0  0  0
    0.6765   -3.5480   43.4006 C   0  0  1  0  0  0  0  0  0  0  0  0
    0.5804   -3.2191   41.1635 C   0  0  0  0  0  0  0  0  0  0  0  0
    2.8083   -4.8227   45.9203 N   0  0  0  0  0  0  0  0  0  0  0  0
   -0.1574   -4.5754   42.9329 N   0  0  0  0  0  0  0  0  0  0  0  0
    6.5271   -2.5531   44.9677 C   0  0  0  0  0  0  0  0  0  0  0  0
   -0.2272   -4.3703   41.5137 C   0  0  0  0  0  0  0  0  0  0  0  0
    7.5095   -2.0029   45.3993 C   0  0  0  0  0  0  0  0  0  0  0  0
    8.2550   -2.6982   46.3988 C   0  0  2  0  0  0  0  0  0  0  0  0
    8.8975   -0.3029   45.3267 O   0  0  0  0  0  0  0  0  0  0  0  0
    4.8299   -4.4637   46.4212 C   0  0  0  0  0  0  0  0  0  0  0  0
    4.2707   -4.9248   47.6295 N   0  0  0  0  0  0  0  0  0  0  0  0
    3.2045   -5.2092   47.1521 C   0  0  0  0  0  0  0  0  0  0  0  0
    1.4482   -4.6186   45.4134 C   0  0  2  0  0  0  0  0  0  0  0  0
    1.2398   -3.5043   44.6236 O   0  0  0  0  0  0  0  0  0  0  0  0
    6.3317   -3.9297   46.0870 C   0  0  2  0  0  0  0  0  0  0  0  0
    9.5296   -2.5449   46.9776 C   0  0  0  0  0  0  0  0  0  0  0  0
    9.7921   -1.7530   47.9018 O   0  0  0  0  0  0  0  0  0  0  0  0
    7.4454   -3.8344   46.8035 C   0  0  0  0  0  0  0  0  0  0  0  0
   10.5010   -3.0847   46.3190 O   0  0  0  0  0  0  0  0  0  0  0  0
    0.5569   -4.7693   46.5649 C   0  0  0  0  0  0  0  0  0  0  0  0
   11.7452   -2.8462   46.6234 C   0  0  0  0  0  0  0  0  0  0  0  0
   12.4344   -1.8951   45.7393 C   0  0  0  0  0  0  0  0  0  0  0  0
   12.4612   -3.5429   47.5581 C   0  0  0  0  0  0  0  0  0  0  0  0
   11.7737   -4.5216   48.4115 C   0  0  0  0  0  0  0  0  0  0  0  0
   11.7935   -5.7538   48.0263 C   0  0  0  0  0  0  0  0  0  0  0  0
   13.7403   -3.0985   47.8363 C   0  0  0  0  0  0  0  0  0  0  0  0
   11.7592   -1.2853   44.6374 O   0  0  0  0  0  0  0  0  0  0  0  0
   14.4771   -3.7616   48.9318 C   0  0  0  0  0  0  0  0  0  0  0  0
   11.4381   -5.9814   46.7174 O   0  0  0  0  0  0  0  0  0  0  0  0
   12.6126   -6.6322   48.3806 O   0  0  0  0  0  0  0  0  0  0  0  0
   13.7663   -1.6398   45.9330 C   0  0  0  0  0  0  0  0  0  0  0  0
   14.4345   -2.3008   46.9987 C   0  0  0  0  0  0  0  0  0  0  0  0
  1  2  1  0
  2  3  2  0
  3  4  1  0
  1  5  2  0
  4  5  1  0
  3  6  1  0
  4  7  2  0
  6  8  1  0
  8  9  1  0
  7 10  1  0
  9 11  1  0
  5 12  1  0
  7 13  1  0
  8 13  2  0
 10 14  1  0
 12 15  1  0
 12 16  2  0
 14 17  1  0
 15 18  1  0
 13 19  1  0
 16 20  1  0
 18 20  2  0
 11 21  1  0
 19 21  2  0
 21 22  1  0
 11 23  2  0
 14 24  2  0
 24 25  1  0
 17 26  1  0
 25 26  2  0
 17 27  1  0
 15 28  1  6
 27 28  1  0
 19 29  1  0
 24 29  1  0
 22 30  1  6
 30 31  2  0
 22 32  1  0
 29 32  1  1
 30 33  1  0
 27 34  1  1
 33 35  1  0
 35 36  2  0
 35 37  1  0
 37 38  1  0
 38 39  1  0
 37 40  2  0
 36 41  1  0
 40 42  1  0
 39 43  1  0
 39 44  2  0
 36 45  1  0
 40 46  1  0
 45 46  2  0
M  END
$$$$
O14757_Pocket2Mol_idx-in-all-generaetd-755
     RDKit          3D

 47 56  0  0  0  0  0  0  0  0999 V2000
    1.5482   -0.3111   41.9233 C   0  0  0  0  0  0  0  0  0  0  0  0
    2.7284    0.2018   42.1525 N   0  0  0  0  0  0  0  0  0  0  0  0
    3.7893   -0.3016   42.7005 C   0  0  0  0  0  0  0  0  0  0  0  0
    3.3781   -1.7350   43.0000 C   0  0  0  0  0  0  0  0  0  0  0  0
    2.0339   -1.9619   42.6217 C   0  0  0  0  0  0  0  0  0  0  0  0
    5.0090    0.1219   42.9340 N   0  0  0  0  0  0  0  0  0  0  0  0
    4.2895   -2.4979   43.6707 C   0  0  0  0  0  0  0  0  0  0  0  0
    5.8391   -0.6675   43.6343 C   0  0  0  0  0  0  0  0  0  0  0  0
    6.9849   -0.2377   44.0028 N   0  0  0  0  0  0  0  0  0  0  0  0
    4.0426   -3.8794   44.0832 C   0  0  0  0  0  0  0  0  0  0  0  0
    7.6796   -0.8734   44.9326 C   0  0  0  0  0  0  0  0  0  0  0  0
    1.1064   -2.9576   42.4211 C   0  0  0  0  0  0  0  0  0  0  0  0
    5.5298   -1.9496   44.0315 C   0  0  0  0  0  0  0  0  0  0  0  0
    3.8954   -4.1817   45.4718 C   0  0  0  0  0  0  0  0  0  0  0  0
    0.6765   -3.5480   43.4006 C   0  0  1  0  0  0  0  0  0  0  0  0
    0.5804   -3.2191   41.1635 C   0  0  0  0  0  0  0  0  0  0  0  0
    2.8083   -4.8227   45.9203 N   0  0  0  0  0  0  0  0  0  0  0  0
   -0.1574   -4.5754   42.9329 N   0  0  0  0  0  0  0  0  0  0  0  0
    6.5271   -2.5531   44.9677 C   0  0  0  0  0  0  0  0  0  0  0  0
   -0.2272   -4.3703   41.5137 C   0  0  0  0  0  0  0  0  0  0  0  0
    7.5095   -2.0029   45.3993 C   0  0  0  0  0  0  0  0  0  0  0  0
    8.2550   -2.6982   46.3988 C   0  0  0  0  0  0  0  0  0  0  0  0
    8.8975   -0.3029   45.3267 O   0  0  0  0  0  0  0  0  0  0  0  0
    4.8299   -4.4637   46.4212 C   0  0  0  0  0  0  0  0  0  0  0  0
    4.2707   -4.9248   47.6295 N   0  0  0  0  0  0  0  0  0  0  0  0
    3.2045   -5.2092   47.1521 C   0  0  0  0  0  0  0  0  0  0  0  0
    1.4482   -4.6186   45.4134 C   0  0  2  0  0  0  0  0  0  0  0  0
    1.2398   -3.5043   44.6236 O   0  0  0  0  0  0  0  0  0  0  0  0
    6.3317   -3.9297   46.0870 C   0  0  2  0  0  0  0  0  0  0  0  0
    9.5296   -2.5449   46.9776 C   0  0  0  0  0  0  0  0  0  0  0  0
    9.7921   -1.7530   47.9018 O   0  0  0  0  0  0  0  0  0  0  0  0
    7.3972   -3.8130   46.7939 C   0  0  0  0  0  0  0  0  0  0  0  0
   10.4154   -3.4217   46.6883 O   0  0  0  0  0  0  0  0  0  0  0  0
    0.5555   -4.7535   46.5674 C   0  0  0  0  0  0  0  0  0  0  0  0
   11.6497   -3.0596   47.0439 C   0  0  0  0  0  0  0  0  0  0  0  0
   12.3878   -4.1125   47.6990 C   0  0  1  0  0  0  0  0  0  0  0  0
   11.8800   -5.2760   47.5659 O   0  0  0  0  0  0  0  0  0  0  0  0
   12.1402   -1.9273   46.5416 C   0  0  0  0  0  0  0  0  0  0  0  0
   13.7566   -3.9428   47.4635 C   0  0  0  0  0  0  0  0  0  0  0  0
   11.3924   -5.9178   48.7514 C   0  0  0  0  0  0  0  0  0  0  0  0
   14.4126   -2.7430   47.0678 C   0  0  0  0  0  0  0  0  0  0  0  0
   13.4817   -1.7494   46.5455 C   0  0  0  0  0  0  0  0  0  0  0  0
   15.7358   -2.5357   47.0594 C   0  0  1  0  0  0  0  0  0  0  0  0
   14.1460   -0.8459   45.7964 C   0  0  0  0  0  0  0  0  0  0  0  0
   16.5904   -3.5170   47.6347 O   0  0  0  0  0  0  0  0  0  0  0  0
   15.4448   -0.4963   45.8519 C   0  0  0  0  0  0  0  0  0  0  0  0
   16.3829   -1.4850   46.4391 C   0  0  0  0  0  0  0  0  0  0  0  0
  1  2  1  0
  2  3  2  0
  3  4  1  0
  1  5  2  0
  4  5  1  0
  3  6  1  0
  4  7  2  0
  6  8  1  0
  8  9  1  0
  7 10  1  0
  9 11  1  0
  5 12  1  0
  7 13  1  0
  8 13  2  0
 10 14  1  0
 12 15  1  0
 12 16  2  0
 14 17  1  0
 15 18  1  0
 13 19  1  0
 16 20  1  0
 18 20  2  0
 11 21  1  0
 19 21  2  0
 21 22  1  0
 11 23  2  0
 14 24  2  0
 24 25  1  0
 17 26  1  0
 25 26  2  0
 17 27  1  0
 15 28  1  6
 27 28  1  0
 19 29  1  0
 24 29  1  0
 22 30  1  0
 30 31  2  0
 22 32  2  0
 29 32  1  1
 30 33  1  0
 27 34  1  1
 33 35  1  0
 35 36  1  0
 36 37  1  6
 35 38  2  0
 36 39  1  0
 37 40  1  0
 39 41  2  0
 38 42  1  0
 41 42  1  0
 41 43  1  0
 42 44  2  0
 43 45  1  6
 44 46  1  0
 43 47  1  0
 46 47  1  0
M  END
$$$$
O14757_Pocket2Mol_idx-in-all-generaetd-756
     RDKit          3D

 25 29  0  0  0  0  0  0  0  0999 V2000
    5.3420    0.2589   42.8836 N   0  0  0  0  0  0  0  0  0  0  0  0
    5.6740   -0.8311   43.5645 C   0  0  0  0  0  0  0  0  0  0  0  0
    6.8416   -0.9240   44.3627 N   0  0  0  0  0  0  0  0  0  0  0  0
    4.1141    0.2821   42.2689 C   0  0  0  0  0  0  0  0  0  0  0  0
    3.2237   -0.7484   42.3921 N   0  0  0  0  0  0  0  0  0  0  0  0
    6.8097   -1.9585   45.3182 C   0  0  0  0  0  0  0  0  0  0  0  0
    3.5007   -1.8060   43.1511 C   0  0  0  0  0  0  0  0  0  0  0  0
    4.7020   -1.8573   43.8328 C   0  0  0  0  0  0  0  0  0  0  0  0
    5.4887   -2.6670   44.9856 C   0  0  0  0  0  0  0  0  0  0  0  0
    2.5208   -2.8458   43.2671 C   0  0  0  0  0  0  0  0  0  0  0  0
    2.6558   -3.8570   44.2541 C   0  0  0  0  0  0  0  0  0  0  0  0
    7.6468   -2.3589   46.2854 C   0  0  0  0  0  0  0  0  0  0  0  0
    3.8579   -4.1296   44.9532 N   0  0  0  0  0  0  0  0  0  0  0  0
    1.3096   -2.7520   42.6410 C   0  0  0  0  0  0  0  0  0  0  0  0
    4.9776   -3.8402   45.4939 C   0  0  0  0  0  0  0  0  0  0  0  0
    0.9912   -1.7393   41.6079 C   0  0  0  0  0  0  0  0  0  0  0  0
    1.5259   -4.6645   44.4644 C   0  0  0  0  0  0  0  0  0  0  0  0
    8.7139   -1.5535   46.4661 C   0  0  0  0  0  0  0  0  0  0  0  0
    0.4108   -4.5978   43.8261 C   0  0  0  0  0  0  0  0  0  0  0  0
    0.2927   -3.6257   42.9007 C   0  0  0  0  0  0  0  0  0  0  0  0
    8.9753   -0.4916   45.6953 O   0  0  0  0  0  0  0  0  0  0  0  0
    7.5176   -3.6029   46.9557 C   0  0  0  0  0  0  0  0  0  0  0  0
    8.5158   -3.9181   47.9551 C   0  0  0  0  0  0  0  0  0  0  0  0
    9.6346   -2.9718   48.1023 C   0  0  0  0  0  0  0  0  0  0  0  0
    9.7227   -1.8350   47.4027 C   0  0  0  0  0  0  0  0  0  0  0  0
  1  2  2  0
  2  3  1  0
  1  4  1  0
  4  5  2  0
  3  6  1  0
  5  7  1  0
  2  8  1  0
  7  8  2  0
  6  9  2  0
  8  9  1  0
  7 10  1  0
 10 11  2  0
  6 12  1  0
 11 13  1  0
 10 14  1  0
  9 15  1  0
 13 15  1  0
 14 16  1  0
 11 17  1  0
 12 18  2  0
 17 19  2  0
 14 20  2  0
 19 20  1  0
 18 21  1  0
 12 22  1  0
 22 23  2  0
 23 24  1  0
 18 25  1  0
 24 25  2  0
M  END
$$$$
O14757_Pocket2Mol_idx-in-all-generaetd-757
     RDKit          3D

 48 55  0  0  0  0  0  0  0  0999 V2000
    5.3420    0.2589   42.8836 O   0  0  0  0  0  0  0  0  0  0  0  0
    5.1627   -0.7554   43.4753 C   0  0  0  0  0  0  0  0  0  0  0  0
    4.0509   -1.4657   43.4177 N   0  0  0  0  0  0  0  0  0  0  0  0
    5.9969   -1.2317   44.6840 C   0  0  0  0  0  0  0  0  0  0  0  0
    2.9618   -1.1021   42.5918 C   0  0  1  0  0  0  0  0  0  0  0  0
    7.3392   -0.8596   44.8412 C   0  0  0  0  0  0  0  0  0  0  0  0
    1.9754   -2.0820   42.2741 C   0  0  0  0  0  0  0  0  0  0  0  0
    5.5910   -2.4282   45.3439 C   0  0  0  0  0  0  0  0  0  0  0  0
    6.5874   -2.9636   46.1581 C   0  0  0  0  0  0  0  0  0  0  0  0
    4.2763   -3.0680   45.0493 N   0  0  0  0  0  0  0  0  0  0  0  0
    3.6188   -2.5886   44.2024 C   0  0  0  0  0  0  0  0  0  0  0  0
    8.1921   -1.4071   45.7505 C   0  0  0  0  0  0  0  0  0  0  0  0
    1.0154   -1.8839   41.2980 C   0  0  0  0  0  0  0  0  0  0  0  0
    2.5720   -3.3564   43.9063 C   0  0  0  0  0  0  0  0  0  0  0  0
    0.2502   -2.8976   41.0751 C   0  0  0  0  0  0  0  0  0  0  0  0
    6.1761   -4.1775   47.0209 C   0  0  0  0  0  0  0  0  0  0  0  0
    1.7266   -3.1047   43.0115 C   0  0  2  0  0  0  0  0  0  0  0  0
    2.3696   -4.5367   44.7536 N   0  0  0  0  0  0  0  0  0  0  0  0
    1.2264   -5.2346   44.4693 C   0  0  0  0  0  0  0  0  0  0  0  0
    0.7187   -3.8955   42.5465 C   0  0  0  0  0  0  0  0  0  0  0  0
    9.4576   -0.8949   46.0327 N   0  0  0  0  0  0  0  0  0  0  0  0
    0.8625   -6.3901   45.2462 C   0  0  0  0  0  0  0  0  0  0  0  0
    7.6467   -2.5139   46.4892 C   0  0  0  0  0  0  0  0  0  0  0  0
   10.4908   -1.5336   45.8242 C   0  0  0  0  0  0  0  0  0  0  0  0
    0.3057   -4.9299   43.2909 C   0  0  0  0  0  0  0  0  0  0  0  0
   11.5916   -1.4291   46.7436 C   0  0  0  0  0  0  0  0  0  0  0  0
   10.5566   -2.3672   44.8649 O   0  0  0  0  0  0  0  0  0  0  0  0
    2.4730    0.2084   42.8389 O   0  0  0  0  0  0  0  0  0  0  0  0
   11.6027   -2.2081   47.7725 N   0  0  0  0  0  0  0  0  0  0  0  0
   12.6189   -0.5862   46.5415 C   0  0  0  0  0  0  0  0  0  0  0  0
   13.6413   -0.4484   47.4129 C   0  0  0  0  0  0  0  0  0  0  0  0
   10.4764   -3.1097   48.1134 C   0  0  0  0  0  0  0  0  0  0  0  0
    9.5762   -2.4717   49.0753 C   0  0  0  0  0  0  0  0  0  0  0  0
    9.7761   -1.2394   49.5167 C   0  0  0  0  0  0  0  0  0  0  0  0
    8.6397   -3.3252   49.7339 C   0  0  0  0  0  0  0  0  0  0  0  0
    8.9861   -0.7034   50.5819 C   0  0  0  0  0  0  0  0  0  0  0  0
   14.7137    0.5128   47.0925 C   0  0  0  0  0  0  0  0  0  0  0  0
    8.1815   -1.5423   51.2387 C   0  0  0  0  0  0  0  0  0  0  0  0
    8.4156   -4.7176   49.2102 O   0  0  0  0  0  0  0  0  0  0  0  0
   13.6915   -1.2597   48.4795 C   0  0  0  0  0  0  0  0  0  0  0  0
   14.7842   -1.1839   49.3622 C   0  0  0  0  0  0  0  0  0  0  0  0
   12.5774   -2.1710   48.6835 C   0  0  0  0  0  0  0  0  0  0  0  0
   14.8423   -1.9939   50.5370 O   0  0  0  0  0  0  0  0  0  0  0  0
    7.9254   -2.8787   50.8112 C   0  0  0  0  0  0  0  0  0  0  0  0
   14.6734    1.3692   45.9797 O   0  0  0  0  0  0  0  0  0  0  0  0
   15.8165   -0.4771   49.1996 O   0  0  0  0  0  0  0  0  0  0  0  0
    7.1810   -5.2321   49.4004 C   0  0  0  0  0  0  0  0  0  0  0  0
    7.0554   -4.9739   47.7030 C   0  0  0  0  0  0  0  0  0  0  0  0
  1  2  2  0
  2  3  1  0
  2  4  1  0
  3  5  1  0
  4  6  2  0
  5  7  1  0
  4  8  1  0
  8  9  2  0
  8 10  1  0
  3 11  1  0
 10 11  2  0
  6 12  1  0
  7 13  2  0
 11 14  1  0
 13 15  1  0
  9 16  1  0
 17  7  1  6
 14 17  1  0
 14 18  2  0
 18 19  1  0
 15 20  2  0
 17 20  1  0
 12 21  1  0
 19 22  1  0
  9 23  1  0
 12 23  2  0
 21 24  1  0
 19 25  2  0
 20 25  1  0
 24 26  1  0
 24 27  2  0
  5 28  1  1
 26 29  1  0
 26 30  2  0
 30 31  1  0
 29 32  1  0
 32 33  1  0
 33 34  1  0
 33 35  2  0
 34 36  2  0
 31 37  1  0
 36 38  1  0
 35 39  1  0
 31 40  2  0
 40 41  1  0
 29 42  1  0
 40 42  1  0
 41 43  1  0
 35 44  1  0
 38 44  2  0
 37 45  1  0
 41 46  2  0
 39 47  1  0
 16 48  1  0
 47 48  1  0
M  END
$$$$
O14757_Pocket2Mol_idx-in-all-generaetd-758
     RDKit          3D

 31 35  0  0  0  0  0  0  0  0999 V2000
    1.5482   -0.3111   41.9233 C   0  0  0  0  0  0  0  0  0  0  0  0
    2.7284    0.2018   42.1525 N   0  0  0  0  0  0  0  0  0  0  0  0
    3.7893   -0.3016   42.7005 C   0  0  0  0  0  0  0  0  0  0  0  0
    3.3781   -1.7350   43.0000 C   0  0  0  0  0  0  0  0  0  0  0  0
    2.0339   -1.9619   42.6217 C   0  0  0  0  0  0  0  0  0  0  0  0
    4.1166   -2.4997   43.8458 C   0  0  0  0  0  0  0  0  0  0  0  0
    1.1731   -3.0051   42.5773 C   0  0  0  0  0  0  0  0  0  0  0  0
    0.4701   -3.2344   41.4901 C   0  0  0  0  0  0  0  0  0  0  0  0
    5.3799   -1.7814   44.2691 C   0  0  0  0  0  0  0  0  0  0  0  0
    5.0159   -0.0180   43.1201 N   0  0  0  0  0  0  0  0  0  0  0  0
    5.7693   -0.6937   43.8418 C   0  0  0  0  0  0  0  0  0  0  0  0
    0.8078   -3.6166   43.6782 C   0  0  0  0  0  0  0  0  0  0  0  0
    0.0663   -4.7011   43.7415 N   0  0  0  0  0  0  0  0  0  0  0  0
    6.2223   -2.6843   45.1565 C   0  0  0  0  0  0  0  0  0  0  0  0
    6.9599   -0.2351   44.2608 N   0  0  0  0  0  0  0  0  0  0  0  0
    5.9065   -3.9037   45.7499 N   0  0  0  0  0  0  0  0  0  0  0  0
   -0.5459   -5.1185   42.5870 C   0  0  0  0  0  0  0  0  0  0  0  0
    5.7480   -4.0340   46.9810 C   0  0  0  0  0  0  0  0  0  0  0  0
    7.4448   -1.8511   45.4198 C   0  0  0  0  0  0  0  0  0  0  0  0
    7.7572   -0.7827   45.0128 C   0  0  0  0  0  0  0  0  0  0  0  0
    8.4076   -2.7217   46.4541 C   0  0  0  0  0  0  0  0  0  0  0  0
    9.3167   -2.0988   47.1049 N   0  0  0  0  0  0  0  0  0  0  0  0
   -0.4719   -4.3893   41.5406 C   0  0  0  0  0  0  0  0  0  0  0  0
    8.3667   -4.0284   46.5743 N   0  0  0  0  0  0  0  0  0  0  0  0
   10.1532   -2.5726   47.9567 C   0  0  1  0  0  0  0  0  0  0  0  0
    7.1666   -4.7114   47.2915 C   0  0  0  0  0  0  0  0  0  0  0  0
   11.4560   -2.5376   47.5873 C   0  0  0  0  0  0  0  0  0  0  0  0
   11.8152   -3.5493   46.6694 C   0  0  0  0  0  0  0  0  0  0  0  0
   12.7174   -3.2253   45.6793 O   0  0  0  0  0  0  0  0  0  0  0  0
   11.1601   -4.5914   46.3617 O   0  0  0  0  0  0  0  0  0  0  0  0
    9.9722   -1.5546   49.2415 C   0  0  0  0  0  0  0  0  0  0  0  0
  1  2  1  0
  2  3  2  0
  3  4  1  0
  1  5  2  0
  4  5  1  0
  4  6  2  0
  5  7  1  0
  7  8  2  0
  6  9  1  0
  3 10  1  0
  9 11  2  0
 10 11  1  0
  7 12  1  0
 12 13  2  0
  9 14  1  0
 11 15  1  0
 14 16  1  0
 13 17  1  0
 16 18  1  0
 14 19  2  0
 15 20  2  0
 19 20  1  0
 19 21  1  0
 21 22  2  3
  8 23  1  0
 17 23  2  0
 21 24  1  0
 22 25  1  0
 18 26  1  0
 24 26  1  0
 25 27  1  0
 27 28  1  0
 28 29  2  0
 28 30  1  0
 25 31  1  1
M  END
$$$$
O14757_Pocket2Mol_idx-in-all-generaetd-759
     RDKit          3D

 45 54  0  0  0  0  0  0  0  0999 V2000
    1.5482   -0.3111   41.9233 C   0  0  0  0  0  0  0  0  0  0  0  0
    2.7284    0.2018   42.1525 N   0  0  0  0  0  0  0  0  0  0  0  0
    3.7893   -0.3016   42.7005 C   0  0  0  0  0  0  0  0  0  0  0  0
    3.3781   -1.7350   43.0000 C   0  0  0  0  0  0  0  0  0  0  0  0
    2.0339   -1.9619   42.6217 C   0  0  0  0  0  0  0  0  0  0  0  0
    5.0090    0.1219   42.9340 N   0  0  0  0  0  0  0  0  0  0  0  0
    4.2895   -2.4979   43.6707 C   0  0  0  0  0  0  0  0  0  0  0  0
    5.8391   -0.6675   43.6343 C   0  0  0  0  0  0  0  0  0  0  0  0
    6.9849   -0.2377   44.0028 N   0  0  0  0  0  0  0  0  0  0  0  0
    4.0426   -3.8794   44.0832 C   0  0  0  0  0  0  0  0  0  0  0  0
    7.6796   -0.8734   44.9326 C   0  0  0  0  0  0  0  0  0  0  0  0
    1.1064   -2.9576   42.4211 C   0  0  0  0  0  0  0  0  0  0  0  0
    5.5298   -1.9496   44.0315 C   0  0  0  0  0  0  0  0  0  0  0  0
    3.8954   -4.1817   45.4718 C   0  0  0  0  0  0  0  0  0  0  0  0
    0.6765   -3.5480   43.4006 C   0  0  1  0  0  0  0  0  0  0  0  0
    0.5804   -3.2191   41.1635 C   0  0  0  0  0  0  0  0  0  0  0  0
    2.8083   -4.8227   45.9203 N   0  0  0  0  0  0  0  0  0  0  0  0
   -0.1574   -4.5754   42.9329 N   0  0  0  0  0  0  0  0  0  0  0  0
    6.5271   -2.5531   44.9677 C   0  0  0  0  0  0  0  0  0  0  0  0
   -0.2272   -4.3703   41.5137 C   0  0  0  0  0  0  0  0  0  0  0  0
    7.5095   -2.0029   45.3993 C   0  0  0  0  0  0  0  0  0  0  0  0
    8.2550   -2.6982   46.3988 C   0  0  0  0  0  0  0  0  0  0  0  0
    8.8975   -0.3029   45.3267 O   0  0  0  0  0  0  0  0  0  0  0  0
    4.8299   -4.4637   46.4212 C   0  0  0  0  0  0  0  0  0  0  0  0
    4.2707   -4.9248   47.6295 N   0  0  0  0  0  0  0  0  0  0  0  0
    3.2045   -5.2092   47.1521 C   0  0  0  0  0  0  0  0  0  0  0  0
    1.4482   -4.6186   45.4134 C   0  0  1  0  0  0  0  0  0  0  0  0
    1.2398   -3.5043   44.6236 O   0  0  0  0  0  0  0  0  0  0  0  0
    6.3317   -3.9297   46.0870 C   0  0  2  0  0  0  0  0  0  0  0  0
    9.5296   -2.5449   46.9776 C   0  0  0  0  0  0  0  0  0  0  0  0
    9.7921   -1.7530   47.9018 O   0  0  0  0  0  0  0  0  0  0  0  0
    7.3972   -3.8130   46.7939 C   0  0  0  0  0  0  0  0  0  0  0  0
    1.2392   -5.7793   44.5610 C   0  0  0  0  0  0  0  0  0  0  0  0
   10.4934   -3.0755   46.3117 N   0  0  0  0  0  0  0  0  0  0  0  0
   10.3750   -4.1130   45.4302 C   0  0  0  0  0  0  0  0  0  0  0  0
   11.8947   -2.7998   46.7984 C   0  0  0  0  0  0  0  0  0  0  0  0
   12.8362   -2.7998   45.7275 C   0  0  1  0  0  0  0  0  0  0  0  0
   11.7375   -4.7913   45.1817 C   0  0  0  0  0  0  0  0  0  0  0  0
   14.0236   -2.1316   45.9685 C   0  0  0  0  0  0  0  0  0  0  0  0
   14.3430   -0.9723   45.2884 C   0  0  0  0  0  0  0  0  0  0  0  0
   12.9826   -4.1332   45.3033 C   0  0  0  0  0  0  0  0  0  0  0  0
   15.5518   -0.2801   45.5526 C   0  0  0  0  0  0  0  0  0  0  0  0
   14.6112   -2.4253   47.1287 C   0  0  0  0  0  0  0  0  0  0  0  0
   16.2259   -0.6225   46.6658 C   0  0  0  0  0  0  0  0  0  0  0  0
   15.8237   -1.6969   47.4578 C   0  0  0  0  0  0  0  0  0  0  0  0
  1  2  1  0
  2  3  2  0
  3  4  1  0
  1  5  2  0
  4  5  1  0
  3  6  1  0
  4  7  2  0
  6  8  1  0
  8  9  1  0
  7 10  1  0
  9 11  1  0
  5 12  1  0
  7 13  1  0
  8 13  2  0
 10 14  1  0
 12 15  1  0
 12 16  2  0
 14 17  1  0
 15 18  1  0
 13 19  1  0
 16 20  1  0
 18 20  2  0
 11 21  1  0
 19 21  2  0
 21 22  1  0
 11 23  2  0
 14 24  2  0
 24 25  1  0
 17 26  1  0
 25 26  2  0
 17 27  1  0
 15 28  1  6
 27 28  1  0
 19 29  1  0
 24 29  1  0
 22 30  1  0
 30 31  2  0
 22 32  2  0
 29 32  1  1
 27 33  1  6
 30 34  1  0
 34 35  1  0
 34 36  1  0
 36 37  1  0
 35 38  1  0
 37 39  1  1
 39 40  2  0
 37 41  1  0
 38 41  1  0
 40 42  1  0
 39 43  1  0
 42 44  2  0
 43 45  2  0
 44 45  1  0
M  END
$$$$
O14757_Pocket2Mol_idx-in-all-generaetd-760
     RDKit          3D

 30 33  0  0  0  0  0  0  0  0999 V2000
    4.5142    0.3543   42.7132 N   0  0  0  0  0  0  0  0  0  0  0  0
    3.5107   -0.4860   42.6298 C   0  0  0  0  0  0  0  0  0  0  0  0
    3.5891   -1.7637   43.2512 N   0  0  0  0  0  0  0  0  0  0  0  0
    5.5470   -0.0112   43.3539 C   0  0  0  0  0  0  0  0  0  0  0  0
    2.1469   -0.1899   41.9512 C   0  0  0  0  0  0  0  0  0  0  0  0
    4.6725   -2.0734   43.8606 C   0  0  0  0  0  0  0  0  0  0  0  0
    5.7749   -1.1829   43.9325 C   0  0  0  0  0  0  0  0  0  0  0  0
    4.7150   -3.3068   44.6440 C   0  0  0  0  0  0  0  0  0  0  0  0
    6.9086   -1.5797   44.6919 C   0  0  0  0  0  0  0  0  0  0  0  0
    3.5691   -4.2517   44.6407 C   0  0  0  0  0  0  0  0  0  0  0  0
    2.3573   -4.0060   44.5430 C   0  0  0  0  0  0  0  0  0  0  0  0
    6.9170   -2.8018   45.4663 C   0  0  0  0  0  0  0  0  0  0  0  0
    5.8006   -3.6152   45.4297 C   0  0  0  0  0  0  0  0  0  0  0  0
    8.0903   -3.1108   46.2193 C   0  0  0  0  0  0  0  0  0  0  0  0
    4.0064   -5.4798   44.1304 O   0  0  0  0  0  0  0  0  0  0  0  0
    1.3499   -4.4927   43.7488 C   0  0  0  0  0  0  0  0  0  0  0  0
    8.9407   -2.1153   46.7855 N   0  0  0  0  0  0  0  0  0  0  0  0
    9.9131   -2.4307   47.6296 C   0  0  0  0  0  0  0  0  0  0  0  0
    9.9401   -2.1931   48.7722 O   0  0  0  0  0  0  0  0  0  0  0  0
    1.6925   -3.8787   45.7737 C   0  0  0  0  0  0  0  0  0  0  0  0
    0.0956   -4.4506   43.8726 C   0  0  0  0  0  0  0  0  0  0  0  0
   -0.4743   -4.1254   44.9651 C   0  0  0  0  0  0  0  0  0  0  0  0
   11.1474   -2.9718   46.9683 C   0  0  0  0  0  0  0  0  0  0  0  0
    0.1760   -3.8909   45.9333 C   0  0  0  0  0  0  0  0  0  0  0  0
   11.1208   -4.2039   46.7415 C   0  0  0  0  0  0  0  0  0  0  0  0
   10.0412   -5.1887   46.8168 O   0  0  0  0  0  0  0  0  0  0  0  0
   12.3319   -2.2671   47.0818 C   0  0  0  0  0  0  0  0  0  0  0  0
   12.3281   -4.9515   46.1494 C   0  0  0  0  0  0  0  0  0  0  0  0
   13.5481   -2.8430   46.5542 C   0  0  0  0  0  0  0  0  0  0  0  0
   13.4321   -4.1965   46.1803 C   0  0  0  0  0  0  0  0  0  0  0  0
  1  2  2  0
  2  3  1  0
  1  4  1  0
  2  5  1  0
  3  6  2  0
  4  7  2  0
  6  7  1  0
  6  8  1  0
  7  9  1  0
  8 10  1  0
 10 11  1  0
  9 12  2  0
  8 13  2  0
 12 13  1  0
 12 14  1  0
 10 15  2  0
 11 16  2  0
 14 17  1  0
 17 18  1  0
 18 19  2  0
 11 20  1  0
 16 21  1  0
 21 22  2  0
 18 23  1  0
 20 24  2  0
 22 24  1  0
 23 25  2  0
 25 26  1  0
 23 27  1  0
 25 28  1  0
 27 29  2  0
 28 30  2  0
 29 30  1  0
M  END
$$$$
O14757_Pocket2Mol_idx-in-all-generaetd-761
     RDKit          3D

 41 48  0  0  0  0  0  0  0  0999 V2000
    4.8173    0.2791   42.6993 N   0  0  0  0  0  0  0  0  0  0  0  0
    5.3297   -0.7477   43.3688 C   0  0  0  0  0  0  0  0  0  0  0  0
    3.4732   -0.2235   42.4530 C   0  0  0  0  0  0  0  0  0  0  0  0
    4.4984   -1.7876   43.6214 C   0  0  0  0  0  0  0  0  0  0  0  0
    3.3438   -1.5190   42.9379 C   0  0  0  0  0  0  0  0  0  0  0  0
    2.1381   -2.3401   42.8254 C   0  0  0  0  0  0  0  0  0  0  0  0
    2.3894    0.3572   41.9843 N   0  0  0  0  0  0  0  0  0  0  0  0
    4.9180   -3.0430   44.3829 C   0  0  0  0  0  0  0  0  0  0  0  0
    5.9444   -2.9314   45.3934 C   0  0  0  0  0  0  0  0  0  0  0  0
    4.2808   -4.1329   44.3252 C   0  0  0  0  0  0  0  0  0  0  0  0
    3.1588   -4.4221   43.4852 O   0  0  0  0  0  0  0  0  0  0  0  0
    4.5704   -5.2518   45.1995 C   0  0  0  0  0  0  0  0  0  0  0  0
    1.9853   -3.6792   43.3495 C   0  0  0  0  0  0  0  0  0  0  0  0
    0.9181   -4.3294   43.4638 C   0  0  0  0  0  0  0  0  0  0  0  0
    6.7403   -1.6226   45.5272 C   0  0  2  0  0  0  0  0  0  0  0  0
    0.9752   -1.7845   42.3366 C   0  0  0  0  0  0  0  0  0  0  0  0
    6.2516   -3.7287   46.2722 C   0  0  0  0  0  0  0  0  0  0  0  0
   -0.2404   -2.4179   42.2529 C   0  0  0  0  0  0  0  0  0  0  0  0
   -1.3835   -1.8904   41.6559 N   0  0  0  0  0  0  0  0  0  0  0  0
    3.8706   -6.4216   45.1394 O   0  0  0  0  0  0  0  0  0  0  0  0
    0.9456   -0.2789   41.7649 C   0  0  0  0  0  0  0  0  0  0  0  0
   -0.2678   -3.6969   42.7575 C   0  0  0  0  0  0  0  0  0  0  0  0
    6.3913   -0.7000   44.3807 N   0  0  0  0  0  0  0  0  0  0  0  0
    7.9391   -1.5867   46.0069 C   0  0  0  0  0  0  0  0  0  0  0  0
    8.7787   -0.4879   45.9761 O   0  0  0  0  0  0  0  0  0  0  0  0
    5.3853   -5.1216   46.3780 C   0  0  0  0  0  0  0  0  0  0  0  0
    8.4504   -2.7517   46.6262 N   0  0  0  0  0  0  0  0  0  0  0  0
    7.4807   -3.7374   47.0380 C   0  0  0  0  0  0  0  0  0  0  0  0
    9.7261   -2.6138   47.3732 C   0  0  0  0  0  0  0  0  0  0  0  0
    9.9606   -3.7577   48.0581 C   0  0  0  0  0  0  0  0  0  0  0  0
   11.0999   -4.4648   47.7368 O   0  0  0  0  0  0  0  0  0  0  0  0
   10.9199   -5.0316   46.4526 C   0  0  0  0  0  0  0  0  0  0  0  0
   10.2272   -6.0822   46.3751 C   0  0  0  0  0  0  0  0  0  0  0  0
   11.3454   -4.3181   45.2884 C   0  0  0  0  0  0  0  0  0  0  0  0
   11.3250   -4.9698   44.1087 C   0  0  0  0  0  0  0  0  0  0  0  0
    9.6987   -6.7623   47.6218 O   0  0  0  0  0  0  0  0  0  0  0  0
    8.4878   -7.5788   47.6714 C   0  0  0  0  0  0  0  0  0  0  0  0
   10.1053   -6.9051   45.2192 C   0  0  0  0  0  0  0  0  0  0  0  0
    9.5989   -8.0868   45.2087 O   0  0  0  0  0  0  0  0  0  0  0  0
   11.8429   -4.3921   43.0439 O   0  0  0  0  0  0  0  0  0  0  0  0
   10.7196   -6.2808   43.9844 C   0  0  0  0  0  0  0  0  0  0  0  0
  1  2  2  0
  1  3  1  0
  2  4  1  0
  3  5  1  0
  4  5  2  0
  5  6  1  0
  3  7  2  0
  4  8  1  0
  8  9  1  0
  8 10  2  0
 10 11  1  0
 10 12  1  0
  6 13  1  0
 11 13  1  0
 13 14  2  0
  9 15  1  0
  6 16  2  0
  9 17  2  0
 16 18  1  0
 18 19  1  0
 12 20  1  0
  7 21  1  0
 16 21  1  0
 14 22  1  0
 18 22  2  0
  2 23  1  0
 15 23  1  6
 15 24  1  0
 24 25  2  0
 12 26  2  0
 17 26  1  0
 24 27  1  0
 17 28  1  0
 27 28  1  0
 27 29  1  0
 29 30  1  0
 30 31  1  0
 31 32  1  0
 32 33  2  0
 32 34  1  0
 34 35  2  0
 33 36  1  0
 36 37  1  0
 33 38  1  0
 38 39  1  0
 35 40  1  0
 35 41  1  0
 38 41  2  0
M  END
$$$$
O14757_Pocket2Mol_idx-in-all-generaetd-762
     RDKit          3D

 35 40  0  0  0  0  0  0  0  0999 V2000
    4.5156    0.0550   42.9895 N   0  0  0  0  0  0  0  0  0  0  0  0
    5.0618   -0.8645   43.5295 C   0  0  0  0  0  0  0  0  0  0  0  0
    4.4350   -2.0604   43.7783 C   0  0  0  0  0  0  0  0  0  0  0  0
    4.9987   -3.0994   44.5839 C   0  0  0  0  0  0  0  0  0  0  0  0
    3.2714   -1.8664   43.0632 C   0  0  0  0  0  0  0  0  0  0  0  0
    6.4064   -0.5942   44.3204 N   0  0  0  0  0  0  0  0  0  0  0  0
    4.3422   -4.3256   44.7203 C   0  0  0  0  0  0  0  0  0  0  0  0
    2.1845   -2.6668   42.8270 N   0  0  0  0  0  0  0  0  0  0  0  0
    3.3305   -0.5395   42.5465 N   0  0  0  0  0  0  0  0  0  0  0  0
    1.9502   -3.8972   43.4076 C   0  0  0  0  0  0  0  0  0  0  0  0
    2.7156   -4.1184   44.6954 N   0  0  0  0  0  0  0  0  0  0  0  0
    6.8581   -1.5862   45.1101 C   0  0  0  0  0  0  0  0  0  0  0  0
    6.1801   -2.8430   45.2383 C   0  0  0  0  0  0  0  0  0  0  0  0
    2.1454   -5.1901   45.5771 C   0  0  0  0  0  0  0  0  0  0  0  0
    8.0137   -1.3946   45.8526 C   0  0  0  0  0  0  0  0  0  0  0  0
    0.9733   -4.5725   43.2066 O   0  0  0  0  0  0  0  0  0  0  0  0
    2.2437    0.0035   41.8733 C   0  0  0  0  0  0  0  0  0  0  0  0
    1.3210   -2.2077   41.7009 C   0  0  0  0  0  0  0  0  0  0  0  0
    8.6047   -2.2876   46.6923 C   0  0  0  0  0  0  0  0  0  0  0  0
    7.9141   -3.5157   46.8869 C   0  0  0  0  0  0  0  0  0  0  0  0
    1.0501   -0.8658   41.6612 C   0  0  0  0  0  0  0  0  0  0  0  0
    6.7278   -3.7718   46.2525 C   0  0  0  0  0  0  0  0  0  0  0  0
    9.8280   -2.0492   47.3361 C   0  0  0  0  0  0  0  0  0  0  0  0
    9.8262   -1.5735   48.5432 C   0  0  0  0  0  0  0  0  0  0  0  0
   11.0745   -2.0905   46.6735 C   0  0  0  0  0  0  0  0  0  0  0  0
   11.1189   -2.5101   45.2315 C   0  0  0  0  0  0  0  0  0  0  0  0
    8.6548   -1.3952   49.4178 O   0  0  0  0  0  0  0  0  0  0  0  0
   12.2483   -1.7792   47.2003 C   0  0  0  0  0  0  0  0  0  0  0  0
   11.0576   -1.2774   49.2428 C   0  0  0  0  0  0  0  0  0  0  0  0
   11.5052   -1.6078   44.3227 O   0  0  0  0  0  0  0  0  0  0  0  0
   11.0262   -0.9191   50.6535 O   0  0  0  0  0  0  0  0  0  0  0  0
   11.9395   -1.3728   51.4068 C   0  0  0  0  0  0  0  0  0  0  0  0
   13.4673   -1.9674   46.5297 C   0  0  0  0  0  0  0  0  0  0  0  0
   10.9070   -3.7123   44.9597 O   0  0  0  0  0  0  0  0  0  0  0  0
   12.1737   -1.3152   48.6200 C   0  0  0  0  0  0  0  0  0  0  0  0
  1  2  2  0
  2  3  1  0
  3  4  1  0
  3  5  2  0
  2  6  1  0
  4  7  1  0
  5  8  1  0
  1  9  1  0
  5  9  1  0
  8 10  1  0
  7 11  1  0
 10 11  1  0
  6 12  2  0
  4 13  2  0
 12 13  1  0
 11 14  1  0
 12 15  1  0
 10 16  2  0
  9 17  1  0
  8 18  1  0
 15 19  2  0
 19 20  1  0
 17 21  1  0
 18 21  1  0
 13 22  1  0
 20 22  2  0
 19 23  1  0
 23 24  2  0
 23 25  1  0
 25 26  1  0
 24 27  1  0
 25 28  2  0
 24 29  1  0
 26 30  2  0
 29 31  1  0
 31 32  1  0
 28 33  1  0
 26 34  1  0
 28 35  1  0
 29 35  2  0
M  END
$$$$
O14757_Pocket2Mol_idx-in-all-generaetd-763
     RDKit          3D

 48 57  0  0  0  0  0  0  0  0999 V2000
    1.5482   -0.3111   41.9233 C   0  0  0  0  0  0  0  0  0  0  0  0
    2.7284    0.2018   42.1525 N   0  0  0  0  0  0  0  0  0  0  0  0
    3.7893   -0.3016   42.7005 C   0  0  0  0  0  0  0  0  0  0  0  0
    3.3781   -1.7350   43.0000 C   0  0  0  0  0  0  0  0  0  0  0  0
    2.0339   -1.9619   42.6217 C   0  0  0  0  0  0  0  0  0  0  0  0
    5.0090    0.1219   42.9340 N   0  0  0  0  0  0  0  0  0  0  0  0
    4.2895   -2.4979   43.6707 C   0  0  0  0  0  0  0  0  0  0  0  0
    5.8391   -0.6675   43.6343 C   0  0  0  0  0  0  0  0  0  0  0  0
    6.9849   -0.2377   44.0028 N   0  0  0  0  0  0  0  0  0  0  0  0
    4.0426   -3.8794   44.0832 C   0  0  0  0  0  0  0  0  0  0  0  0
    7.6796   -0.8734   44.9326 C   0  0  0  0  0  0  0  0  0  0  0  0
    1.1064   -2.9576   42.4211 C   0  0  0  0  0  0  0  0  0  0  0  0
    5.5298   -1.9496   44.0315 C   0  0  0  0  0  0  0  0  0  0  0  0
    3.8954   -4.1817   45.4718 C   0  0  0  0  0  0  0  0  0  0  0  0
    0.6765   -3.5480   43.4006 C   0  0  1  0  0  0  0  0  0  0  0  0
    0.5804   -3.2191   41.1635 C   0  0  0  0  0  0  0  0  0  0  0  0
    2.8083   -4.8227   45.9203 N   0  0  0  0  0  0  0  0  0  0  0  0
   -0.1574   -4.5754   42.9329 N   0  0  0  0  0  0  0  0  0  0  0  0
    6.5271   -2.5531   44.9677 C   0  0  0  0  0  0  0  0  0  0  0  0
   -0.2272   -4.3703   41.5137 C   0  0  0  0  0  0  0  0  0  0  0  0
    7.5095   -2.0029   45.3993 C   0  0  0  0  0  0  0  0  0  0  0  0
    8.2550   -2.6982   46.3988 C   0  0  1  0  0  0  0  0  0  0  0  0
    8.8975   -0.3029   45.3267 O   0  0  0  0  0  0  0  0  0  0  0  0
    4.8299   -4.4637   46.4212 C   0  0  0  0  0  0  0  0  0  0  0  0
    4.2707   -4.9248   47.6295 N   0  0  0  0  0  0  0  0  0  0  0  0
    3.2045   -5.2092   47.1521 C   0  0  0  0  0  0  0  0  0  0  0  0
    1.4482   -4.6186   45.4134 C   0  0  0  0  0  0  0  0  0  0  0  0
    1.3256   -3.7660   44.6394 N   0  0  0  0  0  0  0  0  0  0  0  0
    9.2816   -2.1418   47.1273 N   0  0  0  0  0  0  0  0  0  0  0  0
   10.0629   -3.1324   47.8508 C   0  0  0  0  0  0  0  0  0  0  0  0
    6.3491   -3.8960   46.0844 C   0  0  2  0  0  0  0  0  0  0  0  0
    7.4349   -3.5889   46.9054 C   0  0  0  0  0  0  0  0  0  0  0  0
   10.3145   -2.7271   49.0818 O   0  0  0  0  0  0  0  0  0  0  0  0
    0.6213   -5.4445   45.7455 O   0  0  0  0  0  0  0  0  0  0  0  0
   11.0262   -3.8136   47.1050 C   0  0  0  0  0  0  0  0  0  0  0  0
   12.1704   -3.3854   46.7547 C   0  0  0  0  0  0  0  0  0  0  0  0
   13.1080   -4.1111   46.0053 C   0  0  0  0  0  0  0  0  0  0  0  0
   14.3489   -3.5966   45.7888 C   0  0  0  0  0  0  0  0  0  0  0  0
   12.7430   -5.2725   45.5056 C   0  0  0  0  0  0  0  0  0  0  0  0
   14.6935   -2.2816   45.3353 C   0  0  0  0  0  0  0  0  0  0  0  0
   10.5583   -5.1175   46.7236 C   0  0  0  0  0  0  0  0  0  0  0  0
   15.8430   -1.9507   45.0515 C   0  0  0  0  0  0  0  0  0  0  0  0
   16.6642   -3.2206   45.3077 C   0  0  0  0  0  0  0  0  0  0  0  0
   11.4881   -5.8094   45.8748 C   0  0  0  0  0  0  0  0  0  0  0  0
   15.3228   -4.5679   45.9404 C   0  0  0  0  0  0  0  0  0  0  0  0
   15.0332   -5.8792   46.4535 F   0  0  0  0  0  0  0  0  0  0  0  0
   18.1876   -2.7297   44.9214 F   0  0  0  0  0  0  0  0  0  0  0  0
   16.5429   -4.1610   45.7317 C   0  0  0  0  0  0  0  0  0  0  0  0
  1  2  1  0
  2  3  2  0
  3  4  1  0
  1  5  2  0
  4  5  1  0
  3  6  1  0
  4  7  2  0
  6  8  1  0
  8  9  1  0
  7 10  1  0
  9 11  1  0
  5 12  1  0
  7 13  1  0
  8 13  2  0
 10 14  1  0
 12 15  1  0
 12 16  2  0
 14 17  1  0
 15 18  1  0
 13 19  1  0
 16 20  1  0
 18 20  2  0
 11 21  1  0
 19 21  2  0
 21 22  1  0
 11 23  2  0
 14 24  2  0
 24 25  1  0
 17 26  1  0
 25 26  2  0
 17 27  1  0
 15 28  1  6
 27 28  1  0
 22 29  1  1
 29 30  1  0
 19 31  1  0
 24 31  1  0
 22 32  1  0
 31 32  1  1
 30 33  2  0
 27 34  2  0
 30 35  1  0
 35 36  2  0
 36 37  1  0
 37 38  1  0
 37 39  2  0
 38 40  2  0
 35 41  1  0
 40 42  1  0
 42 43  2  0
 39 44  1  0
 41 44  2  0
 38 45  1  0
 45 46  1  0
 43 47  1  0
 43 48  1  0
 45 48  2  0
M  END
$$$$
O14757_Pocket2Mol_idx-in-all-generaetd-764
     RDKit          3D

 42 50  0  0  0  0  0  0  0  0999 V2000
    4.8173    0.2791   42.6993 N   0  0  0  0  0  0  0  0  0  0  0  0
    5.3297   -0.7477   43.3688 C   0  0  0  0  0  0  0  0  0  0  0  0
    3.4732   -0.2235   42.4530 C   0  0  0  0  0  0  0  0  0  0  0  0
    4.4984   -1.7876   43.6214 C   0  0  0  0  0  0  0  0  0  0  0  0
    3.3438   -1.5190   42.9379 C   0  0  0  0  0  0  0  0  0  0  0  0
    2.1381   -2.3401   42.8254 C   0  0  0  0  0  0  0  0  0  0  0  0
    2.3894    0.3572   41.9843 N   0  0  0  0  0  0  0  0  0  0  0  0
    4.9180   -3.0430   44.3829 C   0  0  0  0  0  0  0  0  0  0  0  0
    5.9444   -2.9314   45.3934 C   0  0  0  0  0  0  0  0  0  0  0  0
    4.2808   -4.1329   44.3252 C   0  0  0  0  0  0  0  0  0  0  0  0
    3.1588   -4.4221   43.4852 O   0  0  0  0  0  0  0  0  0  0  0  0
    4.5704   -5.2518   45.1995 C   0  0  0  0  0  0  0  0  0  0  0  0
    1.9853   -3.6792   43.3495 C   0  0  0  0  0  0  0  0  0  0  0  0
    0.9181   -4.3294   43.4638 C   0  0  0  0  0  0  0  0  0  0  0  0
    6.7403   -1.6226   45.5272 C   0  0  2  0  0  0  0  0  0  0  0  0
    0.9752   -1.7845   42.3366 C   0  0  0  0  0  0  0  0  0  0  0  0
    6.2516   -3.7287   46.2722 C   0  0  0  0  0  0  0  0  0  0  0  0
   -0.2404   -2.4179   42.2529 C   0  0  0  0  0  0  0  0  0  0  0  0
   -1.3835   -1.8904   41.6559 N   0  0  0  0  0  0  0  0  0  0  0  0
    3.8706   -6.4216   45.1394 O   0  0  0  0  0  0  0  0  0  0  0  0
    0.9456   -0.2789   41.7649 C   0  0  0  0  0  0  0  0  0  0  0  0
   -0.2678   -3.6969   42.7575 C   0  0  0  0  0  0  0  0  0  0  0  0
    6.3913   -0.7000   44.3807 N   0  0  0  0  0  0  0  0  0  0  0  0
    7.9391   -1.5867   46.0069 C   0  0  0  0  0  0  0  0  0  0  0  0
    8.7787   -0.4879   45.9761 O   0  0  0  0  0  0  0  0  0  0  0  0
    5.3853   -5.1216   46.3780 C   0  0  0  0  0  0  0  0  0  0  0  0
    8.4504   -2.7517   46.6262 N   0  0  0  0  0  0  0  0  0  0  0  0
    7.4807   -3.7374   47.0380 C   0  0  0  0  0  0  0  0  0  0  0  0
    9.7261   -2.6138   47.3732 C   0  0  0  0  0  0  0  0  0  0  0  0
    9.9606   -3.7577   48.0581 C   0  0  0  0  0  0  0  0  0  0  0  0
   11.0999   -4.4648   47.7368 O   0  0  0  0  0  0  0  0  0  0  0  0
   10.9199   -5.0316   46.4526 C   0  0  0  0  0  0  0  0  0  0  0  0
   10.2272   -6.0822   46.3751 C   0  0  0  0  0  0  0  0  0  0  0  0
   11.3454   -4.3181   45.2884 C   0  0  0  0  0  0  0  0  0  0  0  0
    9.6833   -6.6841   47.5703 O   0  0  0  0  0  0  0  0  0  0  0  0
   10.2626   -7.0665   45.3234 C   0  0  0  0  0  0  0  0  0  0  0  0
    9.1410   -7.9540   47.6979 C   0  0  0  0  0  0  0  0  0  0  0  0
   11.9885   -3.0879   45.2862 O   0  0  0  0  0  0  0  0  0  0  0  0
   11.4197   -5.0771   44.1632 C   0  0  0  0  0  0  0  0  0  0  0  0
    9.7584   -8.2439   45.3195 O   0  0  0  0  0  0  0  0  0  0  0  0
    8.9623   -8.5207   46.5717 C   0  0  0  0  0  0  0  0  0  0  0  0
   10.8179   -6.3903   44.1899 C   0  0  0  0  0  0  0  0  0  0  0  0
  1  2  2  0
  1  3  1  0
  2  4  1  0
  3  5  1  0
  4  5  2  0
  5  6  1  0
  3  7  2  0
  4  8  1  0
  8  9  1  0
  8 10  2  0
 10 11  1  0
 10 12  1  0
  6 13  1  0
 11 13  1  0
 13 14  2  0
  9 15  1  0
  6 16  2  0
  9 17  2  0
 16 18  1  0
 18 19  1  0
 12 20  1  0
  7 21  1  0
 16 21  1  0
 14 22  1  0
 18 22  2  0
  2 23  1  0
 15 23  1  6
 15 24  1  0
 24 25  2  0
 12 26  2  0
 17 26  1  0
 24 27  1  0
 17 28  1  0
 27 28  1  0
 27 29  1  0
 29 30  1  0
 30 31  1  0
 31 32  1  0
 32 33  1  0
 32 34  2  0
 33 35  1  0
 33 36  2  0
 35 37  1  0
 34 38  1  0
 34 39  1  0
 36 40  1  0
 37 41  1  0
 40 41  1  0
 36 42  1  0
 39 42  2  0
M  END
$$$$
O14757_Pocket2Mol_idx-in-all-generaetd-765
     RDKit          3D

 44 52  0  0  0  0  0  0  0  0999 V2000
    1.5482   -0.3111   41.9233 C   0  0  0  0  0  0  0  0  0  0  0  0
    2.7284    0.2018   42.1525 N   0  0  0  0  0  0  0  0  0  0  0  0
    3.7893   -0.3016   42.7005 C   0  0  0  0  0  0  0  0  0  0  0  0
    3.3781   -1.7350   43.0000 C   0  0  0  0  0  0  0  0  0  0  0  0
    2.0339   -1.9619   42.6217 C   0  0  0  0  0  0  0  0  0  0  0  0
    5.0090    0.1219   42.9340 N   0  0  0  0  0  0  0  0  0  0  0  0
    4.2895   -2.4979   43.6707 C   0  0  0  0  0  0  0  0  0  0  0  0
    5.8391   -0.6675   43.6343 C   0  0  0  0  0  0  0  0  0  0  0  0
    6.9849   -0.2377   44.0028 N   0  0  0  0  0  0  0  0  0  0  0  0
    4.0426   -3.8794   44.0832 C   0  0  0  0  0  0  0  0  0  0  0  0
    7.6796   -0.8734   44.9326 C   0  0  0  0  0  0  0  0  0  0  0  0
    1.1064   -2.9576   42.4211 C   0  0  0  0  0  0  0  0  0  0  0  0
    5.5298   -1.9496   44.0315 C   0  0  0  0  0  0  0  0  0  0  0  0
    3.8954   -4.1817   45.4718 C   0  0  0  0  0  0  0  0  0  0  0  0
    0.6765   -3.5480   43.4006 C   0  0  1  0  0  0  0  0  0  0  0  0
    0.5804   -3.2191   41.1635 C   0  0  0  0  0  0  0  0  0  0  0  0
    2.8083   -4.8227   45.9203 N   0  0  0  0  0  0  0  0  0  0  0  0
   -0.1574   -4.5754   42.9329 N   0  0  0  0  0  0  0  0  0  0  0  0
    6.5271   -2.5531   44.9677 C   0  0  0  0  0  0  0  0  0  0  0  0
   -0.2272   -4.3703   41.5137 C   0  0  0  0  0  0  0  0  0  0  0  0
    7.5095   -2.0029   45.3993 C   0  0  0  0  0  0  0  0  0  0  0  0
    8.2550   -2.6982   46.3988 C   0  0  0  0  0  0  0  0  0  0  0  0
    8.8975   -0.3029   45.3267 O   0  0  0  0  0  0  0  0  0  0  0  0
    4.8299   -4.4637   46.4212 C   0  0  0  0  0  0  0  0  0  0  0  0
    4.2707   -4.9248   47.6295 N   0  0  0  0  0  0  0  0  0  0  0  0
    3.2045   -5.2092   47.1521 C   0  0  0  0  0  0  0  0  0  0  0  0
    1.4482   -4.6186   45.4134 C   0  0  1  0  0  0  0  0  0  0  0  0
    1.2398   -3.5043   44.6236 O   0  0  0  0  0  0  0  0  0  0  0  0
    6.3317   -3.9297   46.0870 C   0  0  2  0  0  0  0  0  0  0  0  0
    9.5296   -2.5449   46.9776 C   0  0  0  0  0  0  0  0  0  0  0  0
    9.7921   -1.7530   47.9018 O   0  0  0  0  0  0  0  0  0  0  0  0
    7.3972   -3.8130   46.7939 C   0  0  0  0  0  0  0  0  0  0  0  0
    1.2392   -5.7793   44.5610 C   0  0  0  0  0  0  0  0  0  0  0  0
   10.4934   -3.0755   46.3117 N   0  0  0  0  0  0  0  0  0  0  0  0
   10.3750   -4.1130   45.4302 C   0  0  0  0  0  0  0  0  0  0  0  0
   11.8947   -2.7998   46.7984 C   0  0  0  0  0  0  0  0  0  0  0  0
   12.5725   -3.7950   47.1748 C   0  0  0  0  0  0  0  0  0  0  0  0
   12.4263   -1.5296   46.5097 C   0  0  0  0  0  0  0  0  0  0  0  0
   13.9907   -3.6147   47.5346 C   0  0  0  0  0  0  0  0  0  0  0  0
   13.7686   -1.3248   46.7623 C   0  0  0  0  0  0  0  0  0  0  0  0
   14.3607   -0.0220   46.5071 O   0  0  0  0  0  0  0  0  0  0  0  0
   13.8219    0.7335   45.6592 C   0  0  0  0  0  0  0  0  0  0  0  0
   14.8124   -4.6485   48.0822 O   0  0  0  0  0  0  0  0  0  0  0  0
   14.5388   -2.3690   47.3097 C   0  0  0  0  0  0  0  0  0  0  0  0
  1  2  1  0
  2  3  2  0
  3  4  1  0
  1  5  2  0
  4  5  1  0
  3  6  1  0
  4  7  2  0
  6  8  1  0
  8  9  1  0
  7 10  1  0
  9 11  1  0
  5 12  1  0
  7 13  1  0
  8 13  2  0
 10 14  1  0
 12 15  1  0
 12 16  2  0
 14 17  1  0
 15 18  1  0
 13 19  1  0
 16 20  1  0
 18 20  2  0
 11 21  1  0
 19 21  2  0
 21 22  1  0
 11 23  2  0
 14 24  2  0
 24 25  1  0
 17 26  1  0
 25 26  2  0
 17 27  1  0
 15 28  1  6
 27 28  1  0
 19 29  1  0
 24 29  1  0
 22 30  1  0
 30 31  2  0
 22 32  2  0
 29 32  1  1
 27 33  1  6
 30 34  1  0
 34 35  1  0
 34 36  1  0
 36 37  2  0
 36 38  1  0
 37 39  1  0
 38 40  2  0
 40 41  1  0
 41 42  1  0
 39 43  1  0
 39 44  2  0
 40 44  1  0
M  END
$$$$
O14757_Pocket2Mol_idx-in-all-generaetd-766
     RDKit          3D

 33 39  0  0  0  0  0  0  0  0999 V2000
    4.8173    0.2791   42.6993 N   0  0  0  0  0  0  0  0  0  0  0  0
    5.3297   -0.7477   43.3688 C   0  0  0  0  0  0  0  0  0  0  0  0
    3.4732   -0.2235   42.4530 C   0  0  0  0  0  0  0  0  0  0  0  0
    4.4984   -1.7876   43.6214 C   0  0  0  0  0  0  0  0  0  0  0  0
    3.3438   -1.5190   42.9379 C   0  0  0  0  0  0  0  0  0  0  0  0
    2.1381   -2.3401   42.8254 C   0  0  0  0  0  0  0  0  0  0  0  0
    2.3894    0.3572   41.9843 N   0  0  0  0  0  0  0  0  0  0  0  0
    4.9180   -3.0430   44.3829 C   0  0  0  0  0  0  0  0  0  0  0  0
    5.9444   -2.9314   45.3934 C   0  0  0  0  0  0  0  0  0  0  0  0
    4.2808   -4.1329   44.3252 C   0  0  0  0  0  0  0  0  0  0  0  0
    3.1588   -4.4221   43.4852 O   0  0  0  0  0  0  0  0  0  0  0  0
    4.5704   -5.2518   45.1995 C   0  0  0  0  0  0  0  0  0  0  0  0
    1.9853   -3.6792   43.3495 C   0  0  0  0  0  0  0  0  0  0  0  0
    0.9181   -4.3294   43.4638 C   0  0  0  0  0  0  0  0  0  0  0  0
    6.1667   -3.9106   46.0813 C   0  0  0  0  0  0  0  0  0  0  0  0
    0.9627   -1.7613   42.3940 C   0  0  0  0  0  0  0  0  0  0  0  0
    3.8296   -6.4325   45.0544 F   0  0  0  0  0  0  0  0  0  0  0  0
   -0.2646   -3.7780   42.9121 C   0  0  0  0  0  0  0  0  0  0  0  0
    5.4599   -5.1112   46.0385 C   0  0  0  0  0  0  0  0  0  0  0  0
    7.3541   -3.7011   47.1652 C   0  0  0  0  0  0  0  0  0  0  0  0
    8.4146   -3.0196   46.7433 C   0  0  0  0  0  0  0  0  0  0  0  0
   -0.2418   -2.6477   42.2606 C   0  0  0  0  0  0  0  0  0  0  0  0
    9.4363   -2.8670   47.5537 N   0  0  0  0  0  0  0  0  0  0  0  0
    7.1888   -3.9373   48.4854 C   0  0  0  0  0  0  0  0  0  0  0  0
    1.1532   -0.4164   41.8064 C   0  0  0  0  0  0  0  0  0  0  0  0
    5.9821   -4.5777   49.0534 C   0  0  0  0  0  0  0  0  0  0  0  0
    8.4188   -3.6387   49.1878 C   0  0  0  0  0  0  0  0  0  0  0  0
    8.2890   -4.0529   50.6903 N   0  0  0  0  0  0  0  0  0  0  0  0
    9.3498   -3.1752   48.8138 C   0  0  0  0  0  0  0  0  0  0  0  0
   10.5521   -2.6765   49.5224 C   0  0  0  0  0  0  0  0  0  0  0  0
    8.5534   -2.8945   51.4954 C   0  0  0  0  0  0  0  0  0  0  0  0
   10.5704   -2.3457   50.8621 C   0  0  0  0  0  0  0  0  0  0  0  0
    9.5992   -2.4666   51.6965 C   0  0  0  0  0  0  0  0  0  0  0  0
  1  2  2  0
  1  3  1  0
  2  4  1  0
  3  5  1  0
  4  5  2  0
  5  6  1  0
  3  7  2  0
  4  8  1  0
  8  9  1  0
  8 10  2  0
 10 11  1  0
 10 12  1  0
  6 13  1  0
 11 13  1  0
 13 14  2  0
  9 15  2  0
  6 16  2  0
 12 17  1  0
 14 18  1  0
 12 19  2  0
 15 19  1  0
 15 20  1  0
 20 21  2  0
 16 22  1  0
 18 22  2  0
 21 23  1  0
 20 24  1  0
  7 25  1  0
 16 25  1  0
 24 26  1  0
 24 27  2  0
 27 28  1  0
 23 29  2  0
 27 29  1  0
 29 30  1  0
 28 31  1  0
 30 32  2  0
 31 33  1  0
 32 33  1  0
M  END
$$$$
O14757_Pocket2Mol_idx-in-all-generaetd-767
     RDKit          3D

 36 43  0  0  0  0  0  0  0  0999 V2000
    4.8037   -0.1366   42.7100 N   0  0  0  0  0  0  0  0  0  0  0  0
    3.6577   -0.7759   42.7186 C   0  0  0  0  0  0  0  0  0  0  0  0
    3.6660   -1.8665   43.4760 C   0  0  0  0  0  0  0  0  0  0  0  0
    2.7271   -2.8718   43.6599 C   0  0  0  0  0  0  0  0  0  0  0  0
    2.4846   -0.2994   42.1254 N   0  0  0  0  0  0  0  0  0  0  0  0
    5.0524   -1.7697   43.9367 C   0  0  0  0  0  0  0  0  0  0  0  0
    1.4917   -2.9000   43.0914 C   0  0  0  0  0  0  0  0  0  0  0  0
    3.1274   -3.9503   44.5163 C   0  0  0  0  0  0  0  0  0  0  0  0
    1.0744   -1.9066   42.1491 C   0  0  2  0  0  0  0  0  0  0  0  0
    5.6624   -0.7003   43.4895 C   0  0  0  0  0  0  0  0  0  0  0  0
    5.5753   -2.5784   45.0324 C   0  0  0  0  0  0  0  0  0  0  0  0
    0.4030   -3.6297   43.4883 N   0  0  0  0  0  0  0  0  0  0  0  0
    1.5052   -0.8077   41.7519 C   0  0  0  0  0  0  0  0  0  0  0  0
   -0.5645   -3.4039   42.5585 N   0  0  0  0  0  0  0  0  0  0  0  0
    2.5059   -5.1012   44.7935 C   0  0  0  0  0  0  0  0  0  0  0  0
    4.4581   -3.8218   45.2947 C   0  0  0  0  0  0  0  0  0  0  0  0
   -0.3089   -2.3979   41.8128 C   0  0  0  0  0  0  0  0  0  0  0  0
    6.6435   -2.6577   45.6991 C   0  0  0  0  0  0  0  0  0  0  0  0
    7.0869   -3.7008   46.4717 C   0  0  0  0  0  0  0  0  0  0  0  0
    7.5912   -1.5296   45.5455 C   0  0  0  0  0  0  0  0  0  0  0  0
    8.7765   -1.4352   46.2248 C   0  0  0  0  0  0  0  0  0  0  0  0
    6.3069   -4.7944   46.6836 O   0  0  0  0  0  0  0  0  0  0  0  0
    4.8984   -4.5252   46.1302 C   0  0  0  0  0  0  0  0  0  0  0  0
    4.2122   -5.9932   46.2216 C   0  0  0  0  0  0  0  0  0  0  0  0
    3.0046   -6.0549   45.6421 C   0  0  0  0  0  0  0  0  0  0  0  0
    8.2374   -3.8078   47.1146 C   0  0  0  0  0  0  0  0  0  0  0  0
    9.1909   -2.6332   47.0292 C   0  0  0  0  0  0  0  0  0  0  0  0
   10.4575   -2.6198   47.6824 O   0  0  0  0  0  0  0  0  0  0  0  0
   11.4873   -2.2059   46.9341 C   0  0  0  0  0  0  0  0  0  0  0  0
   12.2817   -1.4398   47.4308 O   0  0  0  0  0  0  0  0  0  0  0  0
   13.2946   -1.0299   46.6543 C   0  0  0  0  0  0  0  0  0  0  0  0
   13.0925   -1.0831   45.3218 C   0  0  0  0  0  0  0  0  0  0  0  0
   14.1643   -1.0297   44.5680 C   0  0  0  0  0  0  0  0  0  0  0  0
   14.4080   -0.3157   47.2384 C   0  0  0  0  0  0  0  0  0  0  0  0
   15.4788   -0.0956   46.3742 C   0  0  0  0  0  0  0  0  0  0  0  0
   15.3546   -0.4142   44.9499 C   0  0  0  0  0  0  0  0  0  0  0  0
  1  2  2  0
  2  3  1  0
  3  4  2  0
  2  5  1  0
  3  6  1  0
  4  7  1  0
  4  8  1  0
  7  9  1  0
  1 10  1  0
  6 10  1  0
  6 11  2  0
  7 12  2  0
  5 13  2  0
  9 13  1  1
 12 14  1  0
  8 15  2  0
  8 16  1  0
 11 16  1  0
  9 17  1  0
 14 17  2  0
 11 18  1  0
 18 19  2  0
 18 20  1  0
 20 21  2  0
 19 22  1  0
 16 23  2  0
 22 23  1  0
 23 24  1  0
 15 25  1  0
 24 25  2  0
 19 26  1  0
 21 27  1  0
 26 27  2  0
 27 28  1  0
 28 29  1  0
 29 30  1  0
 30 31  1  0
 31 32  2  0
 32 33  1  0
 31 34  1  0
 34 35  2  0
 33 36  2  0
 35 36  1  0
M  END
$$$$
O14757_Pocket2Mol_idx-in-all-generaetd-768
     RDKit          3D

 32 37  0  0  0  0  0  0  0  0999 V2000
    5.5575   -0.4055   43.2321 N   0  0  0  0  0  0  0  0  0  0  0  0
    5.4916   -1.4617   44.0350 C   0  0  0  0  0  0  0  0  0  0  0  0
    4.3553   -0.1547   42.7099 N   0  0  0  0  0  0  0  0  0  0  0  0
    3.5224   -1.1568   42.9284 C   0  0  0  0  0  0  0  0  0  0  0  0
    2.1507   -1.3006   42.5845 C   0  0  0  0  0  0  0  0  0  0  0  0
    4.2124   -1.9924   43.9667 C   0  0  1  0  0  0  0  0  0  0  0  0
    3.6929   -3.2283   44.3876 C   0  0  0  0  0  0  0  0  0  0  0  0
    6.5651   -2.0426   44.8298 C   0  0  0  0  0  0  0  0  0  0  0  0
    7.6833   -1.2716   45.0970 C   0  0  0  0  0  0  0  0  0  0  0  0
    6.2468   -2.9038   45.8838 C   0  0  0  0  0  0  0  0  0  0  0  0
    1.4576   -2.4785   42.6650 C   0  0  1  0  0  0  0  0  0  0  0  0
    1.5384   -0.1297   42.0802 C   0  0  0  0  0  0  0  0  0  0  0  0
    2.6511   -3.8570   44.0676 C   0  0  0  0  0  0  0  0  0  0  0  0
    1.6090   -3.4980   43.1647 C   0  0  0  0  0  0  0  0  0  0  0  0
    0.6908   -4.5477   43.0875 N   0  0  0  0  0  0  0  0  0  0  0  0
    0.2168   -2.0759   41.9239 C   0  0  0  0  0  0  0  0  0  0  0  0
    7.5356   -3.1085   46.6525 C   0  0  0  0  0  0  0  0  0  0  0  0
    2.4864   -5.1883   44.6960 C   0  0  0  0  0  0  0  0  0  0  0  0
    8.4346   -1.9391   46.2039 N   0  0  0  0  0  0  0  0  0  0  0  0
    9.7431   -1.8109   46.6107 C   0  0  0  0  0  0  0  0  0  0  0  0
    0.2121   -0.5211   41.5014 C   0  0  0  0  0  0  0  0  0  0  0  0
    0.7918   -5.6770   43.8758 C   0  0  0  0  0  0  0  0  0  0  0  0
    7.7909   -3.8448   47.6035 O   0  0  0  0  0  0  0  0  0  0  0  0
    9.9621   -1.5791   47.8181 C   0  0  0  0  0  0  0  0  0  0  0  0
   11.4098   -1.3838   48.1705 C   0  0  0  0  0  0  0  0  0  0  0  0
   10.7771   -1.8248   45.6312 C   0  0  0  0  0  0  0  0  0  0  0  0
   10.4398   -2.0836   44.2690 O   0  0  0  0  0  0  0  0  0  0  0  0
   11.6623   -1.1819   49.6600 C   0  0  0  0  0  0  0  0  0  0  0  0
   11.9332   -1.6743   45.9600 C   0  0  0  0  0  0  0  0  0  0  0  0
   12.3284   -1.4440   47.3339 C   0  0  0  0  0  0  0  0  0  0  0  0
   10.8583   -0.4650   50.3667 O   0  0  0  0  0  0  0  0  0  0  0  0
   12.9153   -1.3427   50.0676 O   0  0  0  0  0  0  0  0  0  0  0  0
  1  2  2  0
  1  3  1  0
  3  4  2  0
  4  5  1  0
  2  6  1  0
  4  6  1  0
  6  7  1  6
  2  8  1  0
  8  9  1  0
  8 10  2  0
  5 11  1  0
  5 12  2  0
  7 13  2  0
 11 14  1  0
 13 14  1  0
 14 15  2  0
 11 16  1  1
 10 17  1  0
 13 18  1  0
  9 19  1  0
 17 19  1  0
 19 20  1  0
 12 21  1  0
 16 21  2  0
 15 22  1  0
 18 22  2  0
 17 23  2  0
 20 24  2  0
 24 25  1  0
 20 26  1  0
 26 27  1  0
 25 28  1  0
 26 29  2  0
 25 30  2  0
 29 30  1  0
 28 31  1  0
 28 32  2  0
M  END
$$$$
O14757_Pocket2Mol_idx-in-all-generaetd-769
     RDKit          3D

 34 40  0  0  0  0  0  0  0  0999 V2000
    4.5156    0.0550   42.9895 N   0  0  0  0  0  0  0  0  0  0  0  0
    5.0618   -0.8645   43.5295 C   0  0  0  0  0  0  0  0  0  0  0  0
    4.4350   -2.0604   43.7783 C   0  0  0  0  0  0  0  0  0  0  0  0
    4.9987   -3.0994   44.5839 C   0  0  0  0  0  0  0  0  0  0  0  0
    3.2714   -1.8664   43.0632 C   0  0  0  0  0  0  0  0  0  0  0  0
    6.4064   -0.5942   44.3204 N   0  0  0  0  0  0  0  0  0  0  0  0
    4.3422   -4.3256   44.7203 C   0  0  0  0  0  0  0  0  0  0  0  0
    2.1845   -2.6668   42.8270 N   0  0  0  0  0  0  0  0  0  0  0  0
    3.3305   -0.5395   42.5465 N   0  0  0  0  0  0  0  0  0  0  0  0
    1.9502   -3.8972   43.4076 C   0  0  0  0  0  0  0  0  0  0  0  0
    2.7156   -4.1184   44.6954 N   0  0  0  0  0  0  0  0  0  0  0  0
    6.8581   -1.5862   45.1101 C   0  0  0  0  0  0  0  0  0  0  0  0
    6.1801   -2.8430   45.2383 C   0  0  0  0  0  0  0  0  0  0  0  0
    2.1454   -5.1901   45.5771 C   0  0  0  0  0  0  0  0  0  0  0  0
    8.0137   -1.3946   45.8526 C   0  0  0  0  0  0  0  0  0  0  0  0
    0.9733   -4.5725   43.2066 O   0  0  0  0  0  0  0  0  0  0  0  0
    2.2437    0.0035   41.8733 C   0  0  0  0  0  0  0  0  0  0  0  0
    1.3210   -2.2077   41.7009 C   0  0  0  0  0  0  0  0  0  0  0  0
    8.6047   -2.2876   46.6923 C   0  0  0  0  0  0  0  0  0  0  0  0
    7.9141   -3.5157   46.8869 C   0  0  0  0  0  0  0  0  0  0  0  0
    1.0501   -0.8658   41.6612 C   0  0  0  0  0  0  0  0  0  0  0  0
    6.7278   -3.7718   46.2525 C   0  0  0  0  0  0  0  0  0  0  0  0
    9.8280   -2.0492   47.3361 C   0  0  0  0  0  0  0  0  0  0  0  0
    9.8262   -1.5735   48.5432 C   0  0  0  0  0  0  0  0  0  0  0  0
   11.0745   -2.0905   46.6735 C   0  0  0  0  0  0  0  0  0  0  0  0
    8.5798   -1.4294   49.3788 F   0  0  0  0  0  0  0  0  0  0  0  0
   12.2255   -1.7445   47.2852 C   0  0  0  0  0  0  0  0  0  0  0  0
   11.0129   -1.2913   49.2988 C   0  0  0  0  0  0  0  0  0  0  0  0
   11.0580   -2.4152   45.0953 C   0  0  0  0  0  0  0  0  0  0  0  0
   12.2034   -1.4549   48.6570 C   0  0  0  0  0  0  0  0  0  0  0  0
   13.5890   -1.8964   46.5590 C   0  0  0  0  0  0  0  0  0  0  0  0
   12.4271   -2.2445   44.6004 N   0  0  0  0  0  0  0  0  0  0  0  0
   13.5040   -2.0723   45.2351 C   0  0  0  0  0  0  0  0  0  0  0  0
    1.0402   -4.5206   46.3527 C   0  0  0  0  0  0  0  0  0  0  0  0
  1  2  2  0
  2  3  1  0
  3  4  1  0
  3  5  2  0
  2  6  1  0
  4  7  1  0
  5  8  1  0
  1  9  1  0
  5  9  1  0
  8 10  1  0
  7 11  1  0
 10 11  1  0
  6 12  2  0
  4 13  2  0
 12 13  1  0
 11 14  1  0
 12 15  1  0
 10 16  2  0
  9 17  1  0
  8 18  1  0
 15 19  2  0
 19 20  1  0
 17 21  1  0
 18 21  1  0
 13 22  1  0
 20 22  2  0
 19 23  1  0
 23 24  2  0
 23 25  1  0
 24 26  1  0
 25 27  2  0
 24 28  1  0
 25 29  1  0
 27 30  1  0
 28 30  2  0
 27 31  1  0
 29 32  2  0
 31 33  2  0
 32 33  1  0
 14 34  1  0
M  END
$$$$
O14757_Pocket2Mol_idx-in-all-generaetd-770
     RDKit          3D

 36 41  0  0  0  0  0  0  0  0999 V2000
    4.5156    0.0550   42.9895 N   0  0  0  0  0  0  0  0  0  0  0  0
    5.0618   -0.8645   43.5295 C   0  0  0  0  0  0  0  0  0  0  0  0
    4.4350   -2.0604   43.7783 C   0  0  0  0  0  0  0  0  0  0  0  0
    4.9987   -3.0994   44.5839 C   0  0  0  0  0  0  0  0  0  0  0  0
    3.2714   -1.8664   43.0632 C   0  0  0  0  0  0  0  0  0  0  0  0
    6.4064   -0.5942   44.3204 N   0  0  0  0  0  0  0  0  0  0  0  0
    4.3422   -4.3256   44.7203 C   0  0  0  0  0  0  0  0  0  0  0  0
    2.1845   -2.6668   42.8270 N   0  0  0  0  0  0  0  0  0  0  0  0
    3.3305   -0.5395   42.5465 N   0  0  0  0  0  0  0  0  0  0  0  0
    1.9502   -3.8972   43.4076 C   0  0  0  0  0  0  0  0  0  0  0  0
    2.7156   -4.1184   44.6954 N   0  0  0  0  0  0  0  0  0  0  0  0
    6.8581   -1.5862   45.1101 C   0  0  0  0  0  0  0  0  0  0  0  0
    6.1801   -2.8430   45.2383 C   0  0  0  0  0  0  0  0  0  0  0  0
    2.1454   -5.1901   45.5771 C   0  0  0  0  0  0  0  0  0  0  0  0
    8.0137   -1.3946   45.8526 C   0  0  0  0  0  0  0  0  0  0  0  0
    0.9733   -4.5725   43.2066 O   0  0  0  0  0  0  0  0  0  0  0  0
    2.2437    0.0035   41.8733 C   0  0  0  0  0  0  0  0  0  0  0  0
    1.3210   -2.2077   41.7009 C   0  0  0  0  0  0  0  0  0  0  0  0
    8.6047   -2.2876   46.6923 C   0  0  0  0  0  0  0  0  0  0  0  0
    7.9141   -3.5157   46.8869 C   0  0  0  0  0  0  0  0  0  0  0  0
    1.0501   -0.8658   41.6612 C   0  0  0  0  0  0  0  0  0  0  0  0
    6.7278   -3.7718   46.2525 C   0  0  0  0  0  0  0  0  0  0  0  0
    9.8280   -2.0492   47.3361 C   0  0  0  0  0  0  0  0  0  0  0  0
    9.8262   -1.5735   48.5432 C   0  0  0  0  0  0  0  0  0  0  0  0
   11.0745   -2.0905   46.6735 C   0  0  0  0  0  0  0  0  0  0  0  0
    8.5798   -1.4294   49.3788 F   0  0  0  0  0  0  0  0  0  0  0  0
   12.2255   -1.7445   47.2852 C   0  0  0  0  0  0  0  0  0  0  0  0
   11.0129   -1.2913   49.2988 C   0  0  0  0  0  0  0  0  0  0  0  0
   10.9974   -0.9794   50.7055 O   0  0  0  0  0  0  0  0  0  0  0  0
   11.7986   -1.6311   51.4746 C   0  0  0  0  0  0  0  0  0  0  0  0
   12.2652   -1.3740   48.4834 C   0  0  0  0  0  0  0  0  0  0  0  0
   13.6236   -1.8485   46.4295 C   0  0  0  0  0  0  0  0  0  0  0  0
   13.5899   -1.2543   45.2659 N   0  0  0  0  0  0  0  0  0  0  0  0
   13.8942   -0.0194   45.1039 C   0  0  0  0  0  0  0  0  0  0  0  0
   13.8993    0.7768   46.0917 O   0  0  0  0  0  0  0  0  0  0  0  0
   14.0551    0.5267   43.8222 O   0  0  0  0  0  0  0  0  0  0  0  0
  1  2  2  0
  2  3  1  0
  3  4  1  0
  3  5  2  0
  2  6  1  0
  4  7  1  0
  5  8  1  0
  1  9  1  0
  5  9  1  0
  8 10  1  0
  7 11  1  0
 10 11  1  0
  6 12  2  0
  4 13  2  0
 12 13  1  0
 11 14  1  0
 12 15  1  0
 10 16  2  0
  9 17  1  0
  8 18  1  0
 15 19  2  0
 19 20  1  0
 17 21  1  0
 18 21  1  0
 13 22  1  0
 20 22  2  0
 19 23  1  0
 23 24  2  0
 23 25  1  0
 24 26  1  0
 25 27  2  0
 24 28  1  0
 28 29  1  0
 29 30  1  0
 27 31  1  0
 28 31  2  0
 27 32  1  0
 32 33  1  0
 33 34  1  0
 34 35  2  0
 34 36  1  0
M  END
$$$$
O14757_Pocket2Mol_idx-in-all-generaetd-771
     RDKit          3D

 45 52  0  0  0  0  0  0  0  0999 V2000
    1.5482   -0.3111   41.9233 C   0  0  0  0  0  0  0  0  0  0  0  0
    2.7284    0.2018   42.1525 N   0  0  0  0  0  0  0  0  0  0  0  0
    3.7893   -0.3016   42.7005 C   0  0  0  0  0  0  0  0  0  0  0  0
    3.3781   -1.7350   43.0000 C   0  0  0  0  0  0  0  0  0  0  0  0
    2.0339   -1.9619   42.6217 C   0  0  0  0  0  0  0  0  0  0  0  0
    4.1166   -2.4997   43.8458 C   0  0  0  0  0  0  0  0  0  0  0  0
    1.1731   -3.0051   42.5773 C   0  0  0  0  0  0  0  0  0  0  0  0
    0.4701   -3.2344   41.4901 C   0  0  0  0  0  0  0  0  0  0  0  0
    5.3799   -1.7814   44.2691 C   0  0  0  0  0  0  0  0  0  0  0  0
    5.0159   -0.0180   43.1201 N   0  0  0  0  0  0  0  0  0  0  0  0
    5.7693   -0.6937   43.8418 C   0  0  0  0  0  0  0  0  0  0  0  0
    0.8078   -3.6166   43.6782 C   0  0  0  0  0  0  0  0  0  0  0  0
    0.0663   -4.7011   43.7415 N   0  0  0  0  0  0  0  0  0  0  0  0
    6.2223   -2.6843   45.1565 C   0  0  0  0  0  0  0  0  0  0  0  0
    1.4459   -3.3095   45.0236 O   0  0  0  0  0  0  0  0  0  0  0  0
   -0.5278   -5.1074   42.5506 C   0  0  0  0  0  0  0  0  0  0  0  0
   -1.3099   -6.2193   42.5332 N   0  0  0  0  0  0  0  0  0  0  0  0
   -0.3906   -4.3573   41.3904 C   0  0  0  0  0  0  0  0  0  0  0  0
    7.0535   -0.4845   44.4478 N   0  0  0  0  0  0  0  0  0  0  0  0
    0.6210   -3.8397   46.1835 C   0  0  0  0  0  0  0  0  0  0  0  0
    6.2906   -3.7888   45.8815 C   0  0  0  0  0  0  0  0  0  0  0  0
    7.3965   -1.5466   45.3147 C   0  0  0  0  0  0  0  0  0  0  0  0
    5.1449   -4.4973   46.0473 O   0  0  0  0  0  0  0  0  0  0  0  0
    7.4148   -4.1081   46.6372 C   0  0  0  0  0  0  0  0  0  0  0  0
    8.5011   -3.1747   46.6693 C   0  0  0  0  0  0  0  0  0  0  0  0
    8.4580   -1.9168   46.0438 C   0  0  0  0  0  0  0  0  0  0  0  0
    9.8193   -3.4927   47.5654 C   0  0  1  0  0  0  0  0  0  0  0  0
    4.3482   -4.5667   47.1383 C   0  0  0  0  0  0  0  0  0  0  0  0
   10.8925   -3.4519   46.9633 C   0  0  0  0  0  0  0  0  0  0  0  0
   11.7691   -2.4393   47.2298 N   0  0  0  0  0  0  0  0  0  0  0  0
   11.5679   -1.6048   48.2682 C   0  0  0  0  0  0  0  0  0  0  0  0
   13.2337   -2.7224   46.9899 C   0  0  0  0  0  0  0  0  0  0  0  0
   11.1468   -4.1806   45.9346 O   0  0  0  0  0  0  0  0  0  0  0  0
   14.0674   -3.2434   47.7193 C   0  0  0  0  0  0  0  0  0  0  0  0
   13.7337   -3.8357   48.9955 C   0  0  0  0  0  0  0  0  0  0  0  0
   10.6978   -1.8484   49.2819 O   0  0  0  0  0  0  0  0  0  0  0  0
   15.4145   -3.0897   47.4674 C   0  0  0  0  0  0  0  0  0  0  0  0
    9.6185   -2.3722   48.7838 C   0  0  0  0  0  0  0  0  0  0  0  0
   13.6236   -2.2426   45.6742 C   0  0  0  0  0  0  0  0  0  0  0  0
   16.4002   -3.6862   48.4243 C   0  0  0  0  0  0  0  0  0  0  0  0
   14.5527   -4.4499   49.9458 C   0  0  0  0  0  0  0  0  0  0  0  0
   15.9884   -4.3436   49.5894 C   0  0  0  0  0  0  0  0  0  0  0  0
   12.7017   -1.6366   44.7366 O   0  0  0  0  0  0  0  0  0  0  0  0
   14.9886   -2.1522   45.3864 C   0  0  0  0  0  0  0  0  0  0  0  0
   15.8857   -2.6733   46.2228 C   0  0  0  0  0  0  0  0  0  0  0  0
  1  2  1  0
  2  3  2  0
  3  4  1  0
  1  5  2  0
  4  5  1  0
  4  6  2  0
  5  7  1  0
  7  8  2  0
  6  9  1  0
  3 10  1  0
  9 11  1  0
 10 11  1  0
  7 12  1  0
 12 13  2  0
  9 14  2  0
 12 15  1  0
 13 16  1  0
 16 17  1  0
  8 18  1  0
 16 18  2  0
 11 19  2  0
 15 20  1  0
 14 21  1  0
 14 22  1  0
 19 22  1  0
 21 23  1  0
 21 24  2  0
 24 25  1  0
 22 26  2  0
 25 26  2  0
 27 25  1  6
 23 28  1  0
 27 29  1  0
 29 30  1  0
 30 31  1  0
 30 32  1  0
 29 33  2  0
 32 34  1  0
 34 35  2  0
 31 36  1  0
 34 37  1  0
 27 38  1  0
 36 38  1  0
 32 39  2  0
 37 40  2  0
 35 41  1  0
 40 42  1  0
 41 42  2  0
 39 43  1  0
 39 44  1  0
 37 45  1  0
 44 45  2  0
M  END
$$$$
O14757_Pocket2Mol_idx-in-all-generaetd-772
     RDKit          3D

 47 56  0  0  0  0  0  0  0  0999 V2000
    1.5482   -0.3111   41.9233 C   0  0  0  0  0  0  0  0  0  0  0  0
    2.7284    0.2018   42.1525 N   0  0  0  0  0  0  0  0  0  0  0  0
    3.7893   -0.3016   42.7005 C   0  0  0  0  0  0  0  0  0  0  0  0
    3.3781   -1.7350   43.0000 C   0  0  0  0  0  0  0  0  0  0  0  0
    2.0339   -1.9619   42.6217 C   0  0  0  0  0  0  0  0  0  0  0  0
    5.0090    0.1219   42.9340 N   0  0  0  0  0  0  0  0  0  0  0  0
    4.2895   -2.4979   43.6707 C   0  0  0  0  0  0  0  0  0  0  0  0
    5.8391   -0.6675   43.6343 C   0  0  0  0  0  0  0  0  0  0  0  0
    6.9849   -0.2377   44.0028 N   0  0  0  0  0  0  0  0  0  0  0  0
    4.0426   -3.8794   44.0832 C   0  0  0  0  0  0  0  0  0  0  0  0
    7.6796   -0.8734   44.9326 C   0  0  0  0  0  0  0  0  0  0  0  0
    1.1064   -2.9576   42.4211 C   0  0  0  0  0  0  0  0  0  0  0  0
    5.5298   -1.9496   44.0315 C   0  0  0  0  0  0  0  0  0  0  0  0
    3.8954   -4.1817   45.4718 C   0  0  0  0  0  0  0  0  0  0  0  0
    0.6765   -3.5480   43.4006 C   0  0  1  0  0  0  0  0  0  0  0  0
    0.5804   -3.2191   41.1635 C   0  0  0  0  0  0  0  0  0  0  0  0
    2.8083   -4.8227   45.9203 N   0  0  0  0  0  0  0  0  0  0  0  0
   -0.1574   -4.5754   42.9329 N   0  0  0  0  0  0  0  0  0  0  0  0
    6.5271   -2.5531   44.9677 C   0  0  0  0  0  0  0  0  0  0  0  0
   -0.2272   -4.3703   41.5137 C   0  0  0  0  0  0  0  0  0  0  0  0
    7.5095   -2.0029   45.3993 C   0  0  0  0  0  0  0  0  0  0  0  0
    8.2550   -2.6982   46.3988 C   0  0  0  0  0  0  0  0  0  0  0  0
    8.8975   -0.3029   45.3267 O   0  0  0  0  0  0  0  0  0  0  0  0
    4.8299   -4.4637   46.4212 C   0  0  0  0  0  0  0  0  0  0  0  0
    4.2707   -4.9248   47.6295 N   0  0  0  0  0  0  0  0  0  0  0  0
    3.2045   -5.2092   47.1521 C   0  0  0  0  0  0  0  0  0  0  0  0
    1.4482   -4.6186   45.4134 C   0  0  1  0  0  0  0  0  0  0  0  0
    1.2398   -3.5043   44.6236 O   0  0  0  0  0  0  0  0  0  0  0  0
    6.3317   -3.9297   46.0870 C   0  0  2  0  0  0  0  0  0  0  0  0
    9.5296   -2.5449   46.9776 C   0  0  0  0  0  0  0  0  0  0  0  0
    9.7921   -1.7530   47.9018 O   0  0  0  0  0  0  0  0  0  0  0  0
    7.3972   -3.8130   46.7939 C   0  0  0  0  0  0  0  0  0  0  0  0
    1.2392   -5.7793   44.5610 C   0  0  0  0  0  0  0  0  0  0  0  0
   10.4934   -3.0755   46.3117 O   0  0  0  0  0  0  0  0  0  0  0  0
   11.7815   -2.6102   46.5288 C   0  0  0  0  0  0  0  0  0  0  0  0
   12.3688   -2.2857   45.2615 C   0  0  0  0  0  0  0  0  0  0  0  0
   13.6571   -1.6435   45.3063 C   0  0  0  0  0  0  0  0  0  0  0  0
   14.2956   -1.1724   44.0010 C   0  0  0  0  0  0  0  0  0  0  0  0
   14.2846   -1.4302   46.4743 C   0  0  0  0  0  0  0  0  0  0  0  0
   15.5365   -0.7666   46.4357 C   0  0  0  0  0  0  0  0  0  0  0  0
   12.3890   -2.3591   47.6394 C   0  0  0  0  0  0  0  0  0  0  0  0
   13.6384   -1.7981   47.6489 C   0  0  0  0  0  0  0  0  0  0  0  0
   16.1495   -0.5199   47.6820 O   0  0  0  0  0  0  0  0  0  0  0  0
   16.1510   -0.4154   45.3009 C   0  0  0  0  0  0  0  0  0  0  0  0
   13.6764   -1.4695   42.7976 O   0  0  0  0  0  0  0  0  0  0  0  0
   17.4413    0.2200   45.3113 O   0  0  0  0  0  0  0  0  0  0  0  0
   15.5771   -0.5922   43.9888 C   0  0  0  0  0  0  0  0  0  0  0  0
  1  2  1  0
  2  3  2  0
  3  4  1  0
  1  5  2  0
  4  5  1  0
  3  6  1  0
  4  7  2  0
  6  8  1  0
  8  9  1  0
  7 10  1  0
  9 11  1  0
  5 12  1  0
  7 13  1  0
  8 13  2  0
 10 14  1  0
 12 15  1  0
 12 16  2  0
 14 17  1  0
 15 18  1  0
 13 19  1  0
 16 20  1  0
 18 20  2  0
 11 21  1  0
 19 21  2  0
 21 22  1  0
 11 23  2  0
 14 24  2  0
 24 25  1  0
 17 26  1  0
 25 26  2  0
 17 27  1  0
 15 28  1  6
 27 28  1  0
 19 29  1  0
 24 29  1  0
 22 30  1  0
 30 31  2  0
 22 32  2  0
 29 32  1  1
 27 33  1  6
 30 34  1  0
 34 35  1  0
 35 36  2  0
 36 37  1  0
 37 38  2  0
 37 39  1  0
 39 40  2  0
 35 41  1  0
 39 42  1  0
 41 42  2  0
 40 43  1  0
 40 44  1  0
 38 45  1  0
 44 46  1  0
 38 47  1  0
 44 47  2  0
M  END
$$$$
O14757_Pocket2Mol_idx-in-all-generaetd-773
     RDKit          3D

 27 31  0  0  0  0  0  0  0  0999 V2000
    5.3420    0.2589   42.8836 O   0  0  0  0  0  0  0  0  0  0  0  0
    5.1627   -0.7554   43.4753 C   0  0  0  0  0  0  0  0  0  0  0  0
    4.0509   -1.4657   43.4177 N   0  0  0  0  0  0  0  0  0  0  0  0
    5.9969   -1.2317   44.6840 C   0  0  0  0  0  0  0  0  0  0  0  0
    2.9618   -1.1021   42.5918 C   0  0  0  0  0  0  0  0  0  0  0  0
    7.3392   -0.8596   44.8412 C   0  0  0  0  0  0  0  0  0  0  0  0
    1.9754   -2.0820   42.2741 C   0  0  0  0  0  0  0  0  0  0  0  0
    5.5910   -2.4282   45.3439 C   0  0  0  0  0  0  0  0  0  0  0  0
    6.5874   -2.9636   46.1581 C   0  0  0  0  0  0  0  0  0  0  0  0
    4.2763   -3.0680   45.0493 N   0  0  0  0  0  0  0  0  0  0  0  0
    3.6188   -2.5886   44.2024 C   0  0  0  0  0  0  0  0  0  0  0  0
    8.1921   -1.4071   45.7505 C   0  0  0  0  0  0  0  0  0  0  0  0
    1.0154   -1.8839   41.2980 C   0  0  0  0  0  0  0  0  0  0  0  0
    2.5720   -3.3564   43.9063 C   0  0  0  0  0  0  0  0  0  0  0  0
    0.2502   -2.8976   41.0751 C   0  0  0  0  0  0  0  0  0  0  0  0
    0.2230   -3.9124   42.0516 C   0  0  0  0  0  0  0  0  0  0  0  0
    2.2879   -4.6260   44.7113 N   0  0  0  0  0  0  0  0  0  0  0  0
    1.7585   -3.1585   42.9749 N   0  0  0  0  0  0  0  0  0  0  0  0
    7.7776   -2.5440   46.4766 C   0  0  0  0  0  0  0  0  0  0  0  0
    0.8620   -4.0153   42.9214 C   0  0  0  0  0  0  0  0  0  0  0  0
    2.9942   -0.0014   41.9856 O   0  0  0  0  0  0  0  0  0  0  0  0
    8.6110   -3.0684   47.3244 O   0  0  0  0  0  0  0  0  0  0  0  0
    9.5514   -2.3818   47.9544 C   0  0  0  0  0  0  0  0  0  0  0  0
    1.1237   -4.9544   43.9599 C   0  0  0  0  0  0  0  0  0  0  0  0
   10.7059   -2.4343   47.2569 C   0  0  0  0  0  0  0  0  0  0  0  0
   10.8370   -3.1479   46.1280 O   0  0  0  0  0  0  0  0  0  0  0  0
   12.0509   -3.0397   45.3509 C   0  0  0  0  0  0  0  0  0  0  0  0
  1  2  2  0
  2  3  1  0
  2  4  1  0
  3  5  1  0
  4  6  2  0
  5  7  1  0
  4  8  1  0
  8  9  2  0
  8 10  1  0
  3 11  1  0
 10 11  2  0
  6 12  1  0
  7 13  2  0
 11 14  1  0
 13 15  1  0
 15 16  2  0
 14 17  2  0
  7 18  1  0
 14 18  1  0
  9 19  1  0
 12 19  2  0
 16 20  1  0
 18 20  1  0
  5 21  2  0
 19 22  1  0
 22 23  1  0
 17 24  1  0
 20 24  2  0
 23 25  1  0
 25 26  1  0
 26 27  1  0
M  END
$$$$
O14757_Pocket2Mol_idx-in-all-generaetd-774
     RDKit          3D

 33 37  0  0  0  0  0  0  0  0999 V2000
    4.5156    0.0550   42.9895 N   0  0  0  0  0  0  0  0  0  0  0  0
    5.0618   -0.8645   43.5295 C   0  0  0  0  0  0  0  0  0  0  0  0
    4.4350   -2.0604   43.7783 C   0  0  0  0  0  0  0  0  0  0  0  0
    4.9987   -3.0994   44.5839 C   0  0  0  0  0  0  0  0  0  0  0  0
    3.2714   -1.8664   43.0632 C   0  0  0  0  0  0  0  0  0  0  0  0
    6.4064   -0.5942   44.3204 N   0  0  0  0  0  0  0  0  0  0  0  0
    4.3422   -4.3256   44.7203 C   0  0  0  0  0  0  0  0  0  0  0  0
    2.1845   -2.6668   42.8270 N   0  0  0  0  0  0  0  0  0  0  0  0
    3.3305   -0.5395   42.5465 N   0  0  0  0  0  0  0  0  0  0  0  0
    1.9502   -3.8972   43.4076 C   0  0  0  0  0  0  0  0  0  0  0  0
    2.7156   -4.1184   44.6954 N   0  0  0  0  0  0  0  0  0  0  0  0
    6.8581   -1.5862   45.1101 C   0  0  0  0  0  0  0  0  0  0  0  0
    6.1801   -2.8430   45.2383 C   0  0  0  0  0  0  0  0  0  0  0  0
    2.1454   -5.1901   45.5771 C   0  0  0  0  0  0  0  0  0  0  0  0
    8.0137   -1.3946   45.8526 C   0  0  0  0  0  0  0  0  0  0  0  0
    0.9733   -4.5725   43.2066 O   0  0  0  0  0  0  0  0  0  0  0  0
    2.2437    0.0035   41.8733 C   0  0  0  0  0  0  0  0  0  0  0  0
    1.3210   -2.2077   41.7009 C   0  0  0  0  0  0  0  0  0  0  0  0
    8.6047   -2.2876   46.6923 C   0  0  0  0  0  0  0  0  0  0  0  0
    7.9141   -3.5157   46.8869 C   0  0  0  0  0  0  0  0  0  0  0  0
    1.0501   -0.8658   41.6612 C   0  0  0  0  0  0  0  0  0  0  0  0
    6.7473   -3.8283   46.2372 C   0  0  0  0  0  0  0  0  0  0  0  0
    1.0568   -4.5170   46.3522 C   0  0  0  0  0  0  0  0  0  0  0  0
    9.8008   -2.0643   47.3760 C   0  0  1  0  0  0  0  0  0  0  0  0
   10.9776   -2.0111   46.7028 N   0  0  0  0  0  0  0  0  0  0  0  0
    9.7265   -1.0699   48.4017 C   0  0  0  0  0  0  0  0  0  0  0  0
   10.8082   -1.3450   49.4995 C   0  0  0  0  0  0  0  0  0  0  0  0
   10.8227   -0.6686   50.4999 O   0  0  0  0  0  0  0  0  0  0  0  0
   11.2700   -2.7396   45.7103 C   0  0  0  0  0  0  0  0  0  0  0  0
   10.7691   -3.8013   45.4776 O   0  0  0  0  0  0  0  0  0  0  0  0
   11.8182   -2.1155   49.1726 O   0  0  0  0  0  0  0  0  0  0  0  0
   12.5020   -2.2329   44.9740 O   0  0  0  0  0  0  0  0  0  0  0  0
   13.5392   -2.0077   45.7601 C   0  0  0  0  0  0  0  0  0  0  0  0
  1  2  2  0
  2  3  1  0
  3  4  1  0
  3  5  2  0
  2  6  1  0
  4  7  1  0
  5  8  1  0
  1  9  1  0
  5  9  1  0
  8 10  1  0
  7 11  1  0
 10 11  1  0
  6 12  2  0
  4 13  2  0
 12 13  1  0
 11 14  1  0
 12 15  1  0
 10 16  2  0
  9 17  1  0
  8 18  1  0
 15 19  2  0
 19 20  1  0
 17 21  1  0
 18 21  1  0
 13 22  1  0
 20 22  2  0
 14 23  1  0
 19 24  1  0
 24 25  1  0
 24 26  1  6
 26 27  1  0
 27 28  2  0
 25 29  1  0
 29 30  2  0
 27 31  1  0
 29 32  1  0
 32 33  1  0
M  END
$$$$
O14757_Pocket2Mol_idx-in-all-generaetd-775
     RDKit          3D

 36 41  0  0  0  0  0  0  0  0999 V2000
    5.3420    0.2589   42.8836 O   0  0  0  0  0  0  0  0  0  0  0  0
    5.1627   -0.7554   43.4753 C   0  0  0  0  0  0  0  0  0  0  0  0
    4.0509   -1.4657   43.4177 N   0  0  0  0  0  0  0  0  0  0  0  0
    5.9969   -1.2317   44.6840 C   0  0  0  0  0  0  0  0  0  0  0  0
    2.9618   -1.1021   42.5918 C   0  0  0  0  0  0  0  0  0  0  0  0
    7.3392   -0.8596   44.8412 C   0  0  0  0  0  0  0  0  0  0  0  0
    1.9754   -2.0820   42.2741 C   0  0  0  0  0  0  0  0  0  0  0  0
    5.5910   -2.4282   45.3439 C   0  0  0  0  0  0  0  0  0  0  0  0
    6.5874   -2.9636   46.1581 C   0  0  0  0  0  0  0  0  0  0  0  0
    4.2763   -3.0680   45.0493 N   0  0  0  0  0  0  0  0  0  0  0  0
    3.6188   -2.5886   44.2024 C   0  0  0  0  0  0  0  0  0  0  0  0
    8.1921   -1.4071   45.7505 C   0  0  0  0  0  0  0  0  0  0  0  0
    1.0154   -1.8839   41.2980 C   0  0  0  0  0  0  0  0  0  0  0  0
    2.5720   -3.3564   43.9063 C   0  0  0  0  0  0  0  0  0  0  0  0
    0.2502   -2.8976   41.0751 C   0  0  0  0  0  0  0  0  0  0  0  0
    6.1761   -4.1775   47.0209 C   0  0  0  0  0  0  0  0  0  0  0  0
    1.7266   -3.1047   43.0115 C   0  0  2  0  0  0  0  0  0  0  0  0
    2.3696   -4.5367   44.7536 N   0  0  0  0  0  0  0  0  0  0  0  0
    1.2264   -5.2346   44.4693 C   0  0  0  0  0  0  0  0  0  0  0  0
    0.7187   -3.8955   42.5465 C   0  0  0  0  0  0  0  0  0  0  0  0
    9.4576   -0.8949   46.0327 N   0  0  0  0  0  0  0  0  0  0  0  0
    0.8625   -6.3901   45.2462 C   0  0  0  0  0  0  0  0  0  0  0  0
    7.6467   -2.5139   46.4892 C   0  0  0  0  0  0  0  0  0  0  0  0
   10.4908   -1.5336   45.8242 C   0  0  0  0  0  0  0  0  0  0  0  0
    0.3057   -4.9299   43.2909 C   0  0  0  0  0  0  0  0  0  0  0  0
   11.5916   -1.4291   46.7436 C   0  0  0  0  0  0  0  0  0  0  0  0
   10.5566   -2.3672   44.8649 O   0  0  0  0  0  0  0  0  0  0  0  0
   12.8421   -1.9355   46.2823 C   0  0  0  0  0  0  0  0  0  0  0  0
   13.4833   -2.8582   46.9841 C   0  0  0  0  0  0  0  0  0  0  0  0
   13.2717   -2.8931   48.3731 C   0  0  0  0  0  0  0  0  0  0  0  0
    3.0200    0.0729   42.0596 O   0  0  0  0  0  0  0  0  0  0  0  0
   14.1189   -3.7584   49.1887 O   0  0  0  0  0  0  0  0  0  0  0  0
   11.3127   -1.8835   48.0872 C   0  0  0  0  0  0  0  0  0  0  0  0
    9.9623   -1.3596   48.6461 O   0  0  0  0  0  0  0  0  0  0  0  0
   10.0478   -0.6708   49.8353 C   0  0  0  0  0  0  0  0  0  0  0  0
   12.0970   -2.5563   48.9496 C   0  0  0  0  0  0  0  0  0  0  0  0
  1  2  2  0
  2  3  1  0
  2  4  1  0
  3  5  1  0
  4  6  2  0
  5  7  1  0
  4  8  1  0
  8  9  2  0
  8 10  1  0
  3 11  1  0
 10 11  2  0
  6 12  1  0
  7 13  2  0
 11 14  1  0
 13 15  1  0
  9 16  1  0
 17  7  1  6
 14 17  1  0
 14 18  2  0
 18 19  1  0
 15 20  2  0
 17 20  1  0
 12 21  1  0
 19 22  1  0
  9 23  1  0
 12 23  2  0
 21 24  1  0
 19 25  2  0
 20 25  1  0
 24 26  1  0
 24 27  2  0
 26 28  2  0
 28 29  1  0
 29 30  2  0
  5 31  2  0
 30 32  1  0
 26 33  1  0
 33 34  1  0
 34 35  1  0
 30 36  1  0
 33 36  2  0
M  END
$$$$
O14757_Pocket2Mol_idx-in-all-generaetd-776
     RDKit          3D

 39 44  0  0  0  0  0  0  0  0999 V2000
    1.5482   -0.3111   41.9233 C   0  0  0  0  0  0  0  0  0  0  0  0
    2.7284    0.2018   42.1525 N   0  0  0  0  0  0  0  0  0  0  0  0
    3.7893   -0.3016   42.7005 C   0  0  0  0  0  0  0  0  0  0  0  0
    3.3781   -1.7350   43.0000 C   0  0  0  0  0  0  0  0  0  0  0  0
    2.0339   -1.9619   42.6217 C   0  0  0  0  0  0  0  0  0  0  0  0
    4.1166   -2.4997   43.8458 C   0  0  0  0  0  0  0  0  0  0  0  0
    1.1731   -3.0051   42.5773 C   0  0  0  0  0  0  0  0  0  0  0  0
    0.4701   -3.2344   41.4901 C   0  0  0  0  0  0  0  0  0  0  0  0
    5.3799   -1.7814   44.2691 C   0  0  0  0  0  0  0  0  0  0  0  0
    5.0159   -0.0180   43.1201 N   0  0  0  0  0  0  0  0  0  0  0  0
    5.7693   -0.6937   43.8418 C   0  0  0  0  0  0  0  0  0  0  0  0
    0.8078   -3.6166   43.6782 C   0  0  0  0  0  0  0  0  0  0  0  0
    0.0663   -4.7011   43.7415 N   0  0  0  0  0  0  0  0  0  0  0  0
    6.2223   -2.6843   45.1565 C   0  0  0  0  0  0  0  0  0  0  0  0
    6.9599   -0.2351   44.2608 N   0  0  0  0  0  0  0  0  0  0  0  0
    5.9065   -3.9037   45.7499 N   0  0  0  0  0  0  0  0  0  0  0  0
   -0.5459   -5.1185   42.5870 C   0  0  0  0  0  0  0  0  0  0  0  0
    5.7480   -4.0340   46.9810 C   0  0  0  0  0  0  0  0  0  0  0  0
    7.4448   -1.8511   45.4198 C   0  0  0  0  0  0  0  0  0  0  0  0
    7.7572   -0.7827   45.0128 C   0  0  0  0  0  0  0  0  0  0  0  0
    8.4076   -2.7217   46.4541 C   0  0  0  0  0  0  0  0  0  0  0  0
    9.3167   -2.0988   47.1049 N   0  0  0  0  0  0  0  0  0  0  0  0
   -0.4719   -4.3893   41.5406 C   0  0  0  0  0  0  0  0  0  0  0  0
    8.3667   -4.0284   46.5743 N   0  0  0  0  0  0  0  0  0  0  0  0
   10.1532   -2.5726   47.9567 C   0  0  0  0  0  0  0  0  0  0  0  0
   11.0726   -1.7892   48.6998 C   0  0  0  0  0  0  0  0  0  0  0  0
   10.4886   -0.9372   49.4584 C   0  0  0  0  0  0  0  0  0  0  0  0
    8.9772   -4.5617   47.6013 C   0  0  0  0  0  0  0  0  0  0  0  0
    9.9765   -3.9922   48.2636 C   0  0  0  0  0  0  0  0  0  0  0  0
   11.3393   -0.1462   50.3539 C   0  0  0  0  0  0  0  0  0  0  0  0
   12.4892   -1.8956   48.4941 C   0  0  0  0  0  0  0  0  0  0  0  0
   12.8930   -0.3809   50.0834 C   0  0  0  0  0  0  0  0  0  0  0  0
   12.9994   -2.9244   47.4139 C   0  0  0  0  0  0  0  0  0  0  0  0
   13.2804   -1.1960   49.2234 C   0  0  0  0  0  0  0  0  0  0  0  0
   13.3446   -4.0675   47.7977 O   0  0  0  0  0  0  0  0  0  0  0  0
   13.4086   -2.4377   46.2633 N   0  0  0  0  0  0  0  0  0  0  0  0
   12.8120   -1.4125   45.5231 C   0  0  0  0  0  0  0  0  0  0  0  0
   13.5885   -0.4099   45.3592 O   0  0  0  0  0  0  0  0  0  0  0  0
   11.5915   -1.2787   45.3333 O   0  0  0  0  0  0  0  0  0  0  0  0
  1  2  1  0
  2  3  2  0
  3  4  1  0
  1  5  2  0
  4  5  1  0
  4  6  2  0
  5  7  1  0
  7  8  2  0
  6  9  1  0
  3 10  1  0
  9 11  2  0
 10 11  1  0
  7 12  1  0
 12 13  2  0
  9 14  1  0
 11 15  1  0
 14 16  1  0
 13 17  1  0
 16 18  1  0
 14 19  2  0
 15 20  2  0
 19 20  1  0
 19 21  1  0
 21 22  2  0
  8 23  1  0
 17 23  2  0
 21 24  1  0
 22 25  1  0
 25 26  1  0
 26 27  2  0
 24 28  2  0
 25 29  2  0
 28 29  1  0
 27 30  1  0
 26 31  1  0
 30 32  2  0
 31 33  1  0
 31 34  2  0
 32 34  1  0
 33 35  2  0
 33 36  1  0
 36 37  1  0
 37 38  1  0
 37 39  2  0
M  END
$$$$
O14757_Pocket2Mol_idx-in-all-generaetd-777
     RDKit          3D

 19 21  0  0  0  0  0  0  0  0999 V2000
    5.3420    0.2589   42.8836 N   0  0  0  0  0  0  0  0  0  0  0  0
    5.6740   -0.8311   43.5645 C   0  0  0  0  0  0  0  0  0  0  0  0
    3.9899   -0.0458   42.5141 N   0  0  0  0  0  0  0  0  0  0  0  0
    4.6606   -1.7163   43.6337 C   0  0  0  0  0  0  0  0  0  0  0  0
    3.6244   -1.2025   42.8928 C   0  0  0  0  0  0  0  0  0  0  0  0
    2.3780   -1.7713   42.6359 C   0  0  0  0  0  0  0  0  0  0  0  0
    4.5721   -3.0267   44.2590 C   0  0  0  0  0  0  0  0  0  0  0  0
    1.3110   -1.1954   41.9273 C   0  0  0  0  0  0  0  0  0  0  0  0
    6.9669   -1.0468   44.3352 C   0  0  0  0  0  0  0  0  0  0  0  0
    2.2279   -3.0554   43.2761 C   0  0  0  0  0  0  0  0  0  0  0  0
    7.2112   -1.1065   45.5035 C   0  0  0  0  0  0  0  0  0  0  0  0
    3.2239   -3.6182   44.0333 C   0  0  0  0  0  0  0  0  0  0  0  0
    8.4186   -1.4161   46.1085 C   0  0  0  0  0  0  0  0  0  0  0  0
    9.4169   -0.6822   46.1899 O   0  0  0  0  0  0  0  0  0  0  0  0
    1.0819   -3.7888   43.0896 N   0  0  0  0  0  0  0  0  0  0  0  0
    0.2209   -2.0052   41.7209 C   0  0  0  0  0  0  0  0  0  0  0  0
    8.5948   -2.6416   46.7911 O   0  0  0  0  0  0  0  0  0  0  0  0
    0.1778   -3.2718   42.2248 C   0  0  0  0  0  0  0  0  0  0  0  0
    9.7565   -3.2061   46.9549 C   0  0  0  0  0  0  0  0  0  0  0  0
  1  2  2  0
  1  3  1  0
  2  4  1  0
  3  5  1  0
  4  5  2  0
  5  6  1  0
  4  7  1  0
  6  8  2  0
  2  9  1  0
  6 10  1  0
  9 11  2  3
  7 12  2  0
 10 12  1  0
 11 13  1  0
 13 14  2  0
 10 15  2  0
  8 16  1  0
 13 17  1  0
 15 18  1  0
 16 18  2  0
 17 19  1  0
M  END
$$$$
O14757_Pocket2Mol_idx-in-all-generaetd-778
     RDKit          3D

 27 30  0  0  0  0  0  0  0  0999 V2000
    4.5142    0.3543   42.7132 N   0  0  0  0  0  0  0  0  0  0  0  0
    3.5107   -0.4860   42.6298 C   0  0  0  0  0  0  0  0  0  0  0  0
    3.5891   -1.7637   43.2512 N   0  0  0  0  0  0  0  0  0  0  0  0
    5.5470   -0.0112   43.3539 C   0  0  0  0  0  0  0  0  0  0  0  0
    2.1469   -0.1899   41.9512 C   0  0  0  0  0  0  0  0  0  0  0  0
    4.6725   -2.0734   43.8606 C   0  0  0  0  0  0  0  0  0  0  0  0
    5.7749   -1.1829   43.9325 C   0  0  0  0  0  0  0  0  0  0  0  0
    4.7150   -3.3068   44.6440 C   0  0  0  0  0  0  0  0  0  0  0  0
    6.9086   -1.5797   44.6919 C   0  0  0  0  0  0  0  0  0  0  0  0
    3.5691   -4.2517   44.6407 C   0  0  0  0  0  0  0  0  0  0  0  0
    2.3573   -4.0060   44.5430 C   0  0  0  0  0  0  0  0  0  0  0  0
    6.9170   -2.8018   45.4663 C   0  0  0  0  0  0  0  0  0  0  0  0
    5.8006   -3.6152   45.4297 C   0  0  0  0  0  0  0  0  0  0  0  0
    1.4121   -5.0069   44.5415 C   0  0  0  0  0  0  0  0  0  0  0  0
    3.7971   -5.7279   44.7344 C   0  0  0  0  0  0  0  0  0  0  0  0
    2.3987   -6.3703   44.6650 S   0  0  0  0  0  0  0  0  0  0  0  0
    8.1594   -3.0392   46.3481 C   0  0  0  0  0  0  0  0  0  0  0  0
    8.9239   -2.0940   46.8979 C   0  0  0  0  0  0  0  0  0  0  0  0
   -0.1377   -4.9421   44.5813 C   0  0  0  0  0  0  0  0  0  0  0  0
    8.4791   -4.2139   46.9383 C   0  0  0  0  0  0  0  0  0  0  0  0
    9.9638   -2.1758   47.7405 C   0  0  0  0  0  0  0  0  0  0  0  0
   10.1331   -3.7048   48.1687 C   0  0  0  0  0  0  0  0  0  0  0  0
   -0.5463   -4.9360   43.4533 O   0  0  0  0  0  0  0  0  0  0  0  0
   -0.6711   -4.7369   45.6167 O   0  0  0  0  0  0  0  0  0  0  0  0
   11.2127   -3.8637   49.1743 O   0  0  0  0  0  0  0  0  0  0  0  0
    9.3667   -4.5532   47.9193 C   0  0  0  0  0  0  0  0  0  0  0  0
   12.4633   -3.5514   48.7504 C   0  0  0  0  0  0  0  0  0  0  0  0
  1  2  2  0
  2  3  1  0
  1  4  1  0
  2  5  1  0
  3  6  2  0
  4  7  2  0
  6  7  1  0
  6  8  1  0
  7  9  1  0
  8 10  1  0
 10 11  1  0
  9 12  2  0
  8 13  2  0
 12 13  1  0
 11 14  2  0
 10 15  2  0
 14 16  1  0
 15 16  1  0
 12 17  1  0
 17 18  2  0
 14 19  1  0
 17 20  1  0
 18 21  1  0
 21 22  2  0
 19 23  1  0
 19 24  2  0
 22 25  1  0
 20 26  2  0
 22 26  1  0
 25 27  1  0
M  END
$$$$
O14757_Pocket2Mol_idx-in-all-generaetd-779
     RDKit          3D

 46 53  0  0  0  0  0  0  0  0999 V2000
    1.5482   -0.3111   41.9233 C   0  0  0  0  0  0  0  0  0  0  0  0
    2.7284    0.2018   42.1525 N   0  0  0  0  0  0  0  0  0  0  0  0
    3.7893   -0.3016   42.7005 C   0  0  0  0  0  0  0  0  0  0  0  0
    3.3781   -1.7350   43.0000 C   0  0  0  0  0  0  0  0  0  0  0  0
    2.0339   -1.9619   42.6217 C   0  0  0  0  0  0  0  0  0  0  0  0
    4.1166   -2.4997   43.8458 C   0  0  0  0  0  0  0  0  0  0  0  0
    1.1731   -3.0051   42.5773 C   0  0  0  0  0  0  0  0  0  0  0  0
    0.4701   -3.2344   41.4901 C   0  0  0  0  0  0  0  0  0  0  0  0
    5.3799   -1.7814   44.2691 C   0  0  0  0  0  0  0  0  0  0  0  0
    5.0159   -0.0180   43.1201 N   0  0  0  0  0  0  0  0  0  0  0  0
    5.7693   -0.6937   43.8418 C   0  0  0  0  0  0  0  0  0  0  0  0
    0.8078   -3.6166   43.6782 C   0  0  0  0  0  0  0  0  0  0  0  0
    0.0663   -4.7011   43.7415 N   0  0  0  0  0  0  0  0  0  0  0  0
    6.2223   -2.6843   45.1565 C   0  0  0  0  0  0  0  0  0  0  0  0
    1.4459   -3.3095   45.0236 O   0  0  0  0  0  0  0  0  0  0  0  0
   -0.5278   -5.1074   42.5506 C   0  0  0  0  0  0  0  0  0  0  0  0
   -1.3099   -6.2193   42.5332 N   0  0  0  0  0  0  0  0  0  0  0  0
   -0.3906   -4.3573   41.3904 C   0  0  0  0  0  0  0  0  0  0  0  0
    7.0535   -0.4845   44.4478 N   0  0  0  0  0  0  0  0  0  0  0  0
    0.6210   -3.8397   46.1835 C   0  0  0  0  0  0  0  0  0  0  0  0
    6.2906   -3.7888   45.8815 C   0  0  0  0  0  0  0  0  0  0  0  0
    7.3965   -1.5466   45.3147 C   0  0  0  0  0  0  0  0  0  0  0  0
    5.1449   -4.4973   46.0473 O   0  0  0  0  0  0  0  0  0  0  0  0
    7.4148   -4.1081   46.6372 C   0  0  0  0  0  0  0  0  0  0  0  0
    8.5011   -3.1747   46.6693 C   0  0  0  0  0  0  0  0  0  0  0  0
    8.4580   -1.9168   46.0438 C   0  0  0  0  0  0  0  0  0  0  0  0
    9.8193   -3.4927   47.5654 C   0  0  1  0  0  0  0  0  0  0  0  0
    4.3482   -4.5667   47.1383 C   0  0  0  0  0  0  0  0  0  0  0  0
   10.8925   -3.4519   46.9633 C   0  0  0  0  0  0  0  0  0  0  0  0
   11.7691   -2.4393   47.2298 N   0  0  0  0  0  0  0  0  0  0  0  0
   11.5679   -1.6048   48.2682 C   0  0  0  0  0  0  0  0  0  0  0  0
   13.2337   -2.7224   46.9899 C   0  0  0  0  0  0  0  0  0  0  0  0
   11.1468   -4.1806   45.9346 O   0  0  0  0  0  0  0  0  0  0  0  0
   14.0674   -3.2434   47.7193 C   0  0  0  0  0  0  0  0  0  0  0  0
   13.7337   -3.8357   48.9955 C   0  0  0  0  0  0  0  0  0  0  0  0
   10.6978   -1.8484   49.2819 O   0  0  0  0  0  0  0  0  0  0  0  0
    9.4523   -2.4064   48.7424 C   0  0  0  0  0  0  0  0  0  0  0  0
   15.3983   -3.3716   47.3589 C   0  0  0  0  0  0  0  0  0  0  0  0
   13.6455   -2.4134   45.5677 C   0  0  0  0  0  0  0  0  0  0  0  0
   16.3780   -3.9452   48.3150 C   0  0  0  0  0  0  0  0  0  0  0  0
   14.9521   -2.4412   45.2684 C   0  0  0  0  0  0  0  0  0  0  0  0
   15.8731   -2.9361   46.2310 C   0  0  0  0  0  0  0  0  0  0  0  0
   14.5519   -4.3698   49.9422 C   0  0  0  0  0  0  0  0  0  0  0  0
   14.1461   -4.9143   51.2361 O   0  0  0  0  0  0  0  0  0  0  0  0
   17.7667   -4.0306   48.0045 O   0  0  0  0  0  0  0  0  0  0  0  0
   15.9367   -4.4291   49.5612 C   0  0  0  0  0  0  0  0  0  0  0  0
  1  2  1  0
  2  3  2  0
  3  4  1  0
  1  5  2  0
  4  5  1  0
  4  6  2  0
  5  7  1  0
  7  8  2  0
  6  9  1  0
  3 10  1  0
  9 11  1  0
 10 11  1  0
  7 12  1  0
 12 13  2  0
  9 14  2  0
 12 15  1  0
 13 16  1  0
 16 17  1  0
  8 18  1  0
 16 18  2  0
 11 19  2  0
 15 20  1  0
 14 21  1  0
 14 22  1  0
 19 22  1  0
 21 23  1  0
 21 24  2  0
 24 25  1  0
 22 26  2  0
 25 26  2  0
 27 25  1  6
 23 28  1  0
 27 29  1  0
 29 30  1  0
 30 31  1  0
 30 32  1  0
 29 33  2  0
 32 34  1  0
 34 35  2  0
 31 36  1  0
 27 37  1  0
 36 37  1  0
 34 38  1  0
 32 39  2  0
 38 40  2  0
 39 41  1  0
 38 42  1  0
 41 42  2  0
 35 43  1  0
 43 44  1  0
 40 45  1  0
 40 46  1  0
 43 46  2  0
M  END
$$$$
O14757_Pocket2Mol_idx-in-all-generaetd-780
     RDKit          3D

 43 51  0  0  0  0  0  0  0  0999 V2000
    1.5482   -0.3111   41.9233 C   0  0  0  0  0  0  0  0  0  0  0  0
    2.7284    0.2018   42.1525 N   0  0  0  0  0  0  0  0  0  0  0  0
    3.7893   -0.3016   42.7005 C   0  0  0  0  0  0  0  0  0  0  0  0
    3.3781   -1.7350   43.0000 C   0  0  0  0  0  0  0  0  0  0  0  0
    2.0339   -1.9619   42.6217 C   0  0  0  0  0  0  0  0  0  0  0  0
    5.0090    0.1219   42.9340 N   0  0  0  0  0  0  0  0  0  0  0  0
    4.2895   -2.4979   43.6707 C   0  0  0  0  0  0  0  0  0  0  0  0
    5.8391   -0.6675   43.6343 C   0  0  0  0  0  0  0  0  0  0  0  0
    6.9849   -0.2377   44.0028 N   0  0  0  0  0  0  0  0  0  0  0  0
    4.0426   -3.8794   44.0832 C   0  0  0  0  0  0  0  0  0  0  0  0
    7.6796   -0.8734   44.9326 C   0  0  0  0  0  0  0  0  0  0  0  0
    1.1064   -2.9576   42.4211 C   0  0  0  0  0  0  0  0  0  0  0  0
    5.5298   -1.9496   44.0315 C   0  0  0  0  0  0  0  0  0  0  0  0
    3.8954   -4.1817   45.4718 C   0  0  0  0  0  0  0  0  0  0  0  0
    0.6765   -3.5480   43.4006 C   0  0  1  0  0  0  0  0  0  0  0  0
    0.5804   -3.2191   41.1635 C   0  0  0  0  0  0  0  0  0  0  0  0
    2.8083   -4.8227   45.9203 N   0  0  0  0  0  0  0  0  0  0  0  0
   -0.1574   -4.5754   42.9329 N   0  0  0  0  0  0  0  0  0  0  0  0
    6.5271   -2.5531   44.9677 C   0  0  0  0  0  0  0  0  0  0  0  0
   -0.2272   -4.3703   41.5137 C   0  0  0  0  0  0  0  0  0  0  0  0
    7.5095   -2.0029   45.3993 C   0  0  0  0  0  0  0  0  0  0  0  0
    8.2550   -2.6982   46.3988 C   0  0  1  0  0  0  0  0  0  0  0  0
    8.8975   -0.3029   45.3267 O   0  0  0  0  0  0  0  0  0  0  0  0
    4.8299   -4.4637   46.4212 C   0  0  0  0  0  0  0  0  0  0  0  0
    4.2707   -4.9248   47.6295 N   0  0  0  0  0  0  0  0  0  0  0  0
    3.2045   -5.2092   47.1521 C   0  0  0  0  0  0  0  0  0  0  0  0
    1.4482   -4.6186   45.4134 C   0  0  0  0  0  0  0  0  0  0  0  0
    1.3256   -3.7660   44.6394 N   0  0  0  0  0  0  0  0  0  0  0  0
    9.2816   -2.1418   47.1273 N   0  0  0  0  0  0  0  0  0  0  0  0
   10.0629   -3.1324   47.8508 C   0  0  0  0  0  0  0  0  0  0  0  0
    6.3491   -3.8960   46.0844 C   0  0  2  0  0  0  0  0  0  0  0  0
    7.4349   -3.5889   46.9054 C   0  0  0  0  0  0  0  0  0  0  0  0
   10.3145   -2.7271   49.0818 O   0  0  0  0  0  0  0  0  0  0  0  0
   11.0221   -3.8171   47.1052 C   0  0  0  0  0  0  0  0  0  0  0  0
    0.8710   -5.7412   45.2074 O   0  0  0  0  0  0  0  0  0  0  0  0
   12.1654   -3.3890   46.7468 C   0  0  0  0  0  0  0  0  0  0  0  0
   10.6095   -5.0619   46.5869 C   0  0  0  0  0  0  0  0  0  0  0  0
   11.4809   -5.8528   45.8718 C   0  0  0  0  0  0  0  0  0  0  0  0
   12.6501   -1.9646   47.2855 O   0  0  0  0  0  0  0  0  0  0  0  0
   13.8630   -1.6154   47.0437 C   0  0  0  0  0  0  0  0  0  0  0  0
   11.0869   -7.1220   45.4484 O   0  0  0  0  0  0  0  0  0  0  0  0
   12.7464   -5.4045   45.6862 C   0  0  0  0  0  0  0  0  0  0  0  0
   13.2043   -4.0242   46.1243 C   0  0  0  0  0  0  0  0  0  0  0  0
  1  2  1  0
  2  3  2  0
  3  4  1  0
  1  5  2  0
  4  5  1  0
  3  6  1  0
  4  7  2  0
  6  8  1  0
  8  9  1  0
  7 10  1  0
  9 11  1  0
  5 12  1  0
  7 13  1  0
  8 13  2  0
 10 14  1  0
 12 15  1  0
 12 16  2  0
 14 17  1  0
 15 18  1  0
 13 19  1  0
 16 20  1  0
 18 20  2  0
 11 21  1  0
 19 21  2  0
 21 22  1  0
 11 23  2  0
 14 24  2  0
 24 25  1  0
 17 26  1  0
 25 26  2  0
 17 27  1  0
 15 28  1  6
 27 28  1  0
 22 29  1  1
 29 30  1  0
 19 31  1  0
 24 31  1  0
 22 32  1  0
 31 32  1  1
 30 33  2  0
 30 34  1  0
 27 35  2  0
 34 36  2  0
 34 37  1  0
 37 38  2  0
 36 39  1  0
 39 40  1  0
 38 41  1  0
 38 42  1  0
 36 43  1  0
 42 43  2  0
M  END
$$$$
O14757_Pocket2Mol_idx-in-all-generaetd-781
     RDKit          3D

 43 49  0  0  0  0  0  0  0  0999 V2000
    5.3420    0.2589   42.8836 O   0  0  0  0  0  0  0  0  0  0  0  0
    5.1627   -0.7554   43.4753 C   0  0  0  0  0  0  0  0  0  0  0  0
    4.0509   -1.4657   43.4177 N   0  0  0  0  0  0  0  0  0  0  0  0
    5.9969   -1.2317   44.6840 C   0  0  0  0  0  0  0  0  0  0  0  0
    2.9618   -1.1021   42.5918 C   0  0  1  0  0  0  0  0  0  0  0  0
    7.3392   -0.8596   44.8412 C   0  0  0  0  0  0  0  0  0  0  0  0
    1.9754   -2.0820   42.2741 C   0  0  0  0  0  0  0  0  0  0  0  0
    5.5910   -2.4282   45.3439 C   0  0  0  0  0  0  0  0  0  0  0  0
    6.5874   -2.9636   46.1581 C   0  0  0  0  0  0  0  0  0  0  0  0
    4.2763   -3.0680   45.0493 N   0  0  0  0  0  0  0  0  0  0  0  0
    3.6188   -2.5886   44.2024 C   0  0  0  0  0  0  0  0  0  0  0  0
    8.1921   -1.4071   45.7505 C   0  0  0  0  0  0  0  0  0  0  0  0
    1.0154   -1.8839   41.2980 C   0  0  0  0  0  0  0  0  0  0  0  0
    2.5720   -3.3564   43.9063 C   0  0  0  0  0  0  0  0  0  0  0  0
    0.2502   -2.8976   41.0751 C   0  0  0  0  0  0  0  0  0  0  0  0
    6.1761   -4.1775   47.0209 C   0  0  0  0  0  0  0  0  0  0  0  0
    1.7266   -3.1047   43.0115 C   0  0  2  0  0  0  0  0  0  0  0  0
    2.3696   -4.5367   44.7536 N   0  0  0  0  0  0  0  0  0  0  0  0
    1.2264   -5.2346   44.4693 C   0  0  0  0  0  0  0  0  0  0  0  0
    0.7187   -3.8955   42.5465 C   0  0  0  0  0  0  0  0  0  0  0  0
    9.4576   -0.8949   46.0327 N   0  0  0  0  0  0  0  0  0  0  0  0
    0.8625   -6.3901   45.2462 C   0  0  0  0  0  0  0  0  0  0  0  0
    7.6467   -2.5139   46.4892 C   0  0  0  0  0  0  0  0  0  0  0  0
   10.4908   -1.5336   45.8242 C   0  0  0  0  0  0  0  0  0  0  0  0
    0.3057   -4.9299   43.2909 C   0  0  0  0  0  0  0  0  0  0  0  0
   11.5916   -1.4291   46.7436 C   0  0  0  0  0  0  0  0  0  0  0  0
   10.5566   -2.3672   44.8649 O   0  0  0  0  0  0  0  0  0  0  0  0
   12.8421   -1.9355   46.2823 C   0  0  0  0  0  0  0  0  0  0  0  0
   13.4833   -2.8582   46.9841 C   0  0  0  0  0  0  0  0  0  0  0  0
   11.4002   -1.1447   48.0540 C   0  0  0  0  0  0  0  0  0  0  0  0
   10.2867   -0.4569   48.4999 O   0  0  0  0  0  0  0  0  0  0  0  0
   12.3327   -1.4798   48.9564 C   0  0  0  0  0  0  0  0  0  0  0  0
   14.7901   -3.3162   46.6439 C   0  0  0  0  0  0  0  0  0  0  0  0
   12.1651   -1.3050   50.3239 O   0  0  0  0  0  0  0  0  0  0  0  0
   15.6765   -2.5740   46.0979 C   0  0  0  0  0  0  0  0  0  0  0  0
   13.4417   -2.4710   48.5369 C   0  0  0  0  0  0  0  0  0  0  0  0
   15.5553   -1.2853   45.8338 C   0  0  0  0  0  0  0  0  0  0  0  0
    2.4633    0.2112   42.8553 O   0  0  0  0  0  0  0  0  0  0  0  0
   15.3909   -0.8808   44.5119 C   0  0  0  0  0  0  0  0  0  0  0  0
   14.8684    0.3217   44.1996 C   0  0  0  0  0  0  0  0  0  0  0  0
   14.8875    1.3968   45.0496 C   0  0  0  0  0  0  0  0  0  0  0  0
   15.2456    1.1187   46.3532 C   0  0  0  0  0  0  0  0  0  0  0  0
   15.6334   -0.1679   46.7508 C   0  0  0  0  0  0  0  0  0  0  0  0
  1  2  2  0
  2  3  1  0
  2  4  1  0
  3  5  1  0
  4  6  2  0
  5  7  1  0
  4  8  1  0
  8  9  2  0
  8 10  1  0
  3 11  1  0
 10 11  2  0
  6 12  1  0
  7 13  2  0
 11 14  1  0
 13 15  1  0
  9 16  1  0
 17  7  1  6
 14 17  1  0
 14 18  2  0
 18 19  1  0
 15 20  2  0
 17 20  1  0
 12 21  1  0
 19 22  1  0
  9 23  1  0
 12 23  2  0
 21 24  1  0
 19 25  2  0
 20 25  1  0
 24 26  1  0
 24 27  2  0
 26 28  2  0
 28 29  1  0
 26 30  1  0
 30 31  1  0
 30 32  2  0
 29 33  1  0
 32 34  1  0
 33 35  2  3
 29 36  2  0
 32 36  1  0
 35 37  1  0
  5 38  1  1
 37 39  2  0
 39 40  1  0
 40 41  2  0
 41 42  1  0
 37 43  1  0
 42 43  2  0
M  END
$$$$
O14757_Pocket2Mol_idx-in-all-generaetd-782
     RDKit          3D

 41 48  0  0  0  0  0  0  0  0999 V2000
    1.5482   -0.3111   41.9233 C   0  0  0  0  0  0  0  0  0  0  0  0
    2.7284    0.2018   42.1525 N   0  0  0  0  0  0  0  0  0  0  0  0
    3.7893   -0.3016   42.7005 C   0  0  0  0  0  0  0  0  0  0  0  0
    3.3781   -1.7350   43.0000 C   0  0  0  0  0  0  0  0  0  0  0  0
    2.0339   -1.9619   42.6217 C   0  0  0  0  0  0  0  0  0  0  0  0
    4.1166   -2.4997   43.8458 C   0  0  0  0  0  0  0  0  0  0  0  0
    1.1731   -3.0051   42.5773 C   0  0  0  0  0  0  0  0  0  0  0  0
    0.4701   -3.2344   41.4901 C   0  0  0  0  0  0  0  0  0  0  0  0
    5.3799   -1.7814   44.2691 C   0  0  0  0  0  0  0  0  0  0  0  0
    5.0159   -0.0180   43.1201 N   0  0  0  0  0  0  0  0  0  0  0  0
    5.7693   -0.6937   43.8418 C   0  0  0  0  0  0  0  0  0  0  0  0
    0.8078   -3.6166   43.6782 C   0  0  0  0  0  0  0  0  0  0  0  0
    0.0663   -4.7011   43.7415 N   0  0  0  0  0  0  0  0  0  0  0  0
    6.2223   -2.6843   45.1565 C   0  0  0  0  0  0  0  0  0  0  0  0
    6.9599   -0.2351   44.2608 N   0  0  0  0  0  0  0  0  0  0  0  0
    5.9065   -3.9037   45.7499 N   0  0  0  0  0  0  0  0  0  0  0  0
   -0.5459   -5.1185   42.5870 C   0  0  0  0  0  0  0  0  0  0  0  0
    5.7480   -4.0340   46.9810 C   0  0  0  0  0  0  0  0  0  0  0  0
    7.4448   -1.8511   45.4198 C   0  0  0  0  0  0  0  0  0  0  0  0
    7.7572   -0.7827   45.0128 C   0  0  0  0  0  0  0  0  0  0  0  0
    8.4076   -2.7217   46.4541 C   0  0  0  0  0  0  0  0  0  0  0  0
    9.3167   -2.0988   47.1049 N   0  0  0  0  0  0  0  0  0  0  0  0
   -0.4719   -4.3893   41.5406 C   0  0  0  0  0  0  0  0  0  0  0  0
    8.3667   -4.0284   46.5743 N   0  0  0  0  0  0  0  0  0  0  0  0
    9.5309   -4.3147   47.3094 C   0  0  0  0  0  0  0  0  0  0  0  0
    5.3113   -3.3789   47.8005 O   0  0  0  0  0  0  0  0  0  0  0  0
    9.9022   -5.6301   47.7684 C   0  0  0  0  0  0  0  0  0  0  0  0
    5.4470   -5.5868   47.2096 C   0  0  0  0  0  0  0  0  0  0  0  0
   11.2254   -5.8679   48.0402 C   0  0  0  0  0  0  0  0  0  0  0  0
    8.9736   -6.6532   47.8548 C   0  0  0  0  0  0  0  0  0  0  0  0
   10.0616   -3.0670   47.6360 C   0  0  0  0  0  0  0  0  0  0  0  0
    7.5566   -6.3564   47.5477 N   0  0  0  0  0  0  0  0  0  0  0  0
   12.3328   -4.8893   47.9268 C   0  0  2  0  0  0  0  0  0  0  0  0
   12.2085   -3.9673   46.9997 C   0  0  0  0  0  0  0  0  0  0  0  0
   11.5720   -2.8294   47.8112 C   0  0  0  0  0  0  0  0  0  0  0  0
   11.5497   -7.1871   48.4172 C   0  0  0  0  0  0  0  0  0  0  0  0
   13.5576   -5.8273   47.6737 C   0  0  0  0  0  0  0  0  0  0  0  0
   10.6555   -8.2234   48.5860 C   0  0  0  0  0  0  0  0  0  0  0  0
    6.3831   -6.1764   48.0883 C   0  0  0  0  0  0  0  0  0  0  0  0
    9.3463   -7.9016   48.2697 C   0  0  0  0  0  0  0  0  0  0  0  0
   14.8317   -5.2813   47.8583 O   0  0  0  0  0  0  0  0  0  0  0  0
  1  2  1  0
  2  3  2  0
  3  4  1  0
  1  5  2  0
  4  5  1  0
  4  6  2  0
  5  7  1  0
  7  8  2  0
  6  9  1  0
  3 10  1  0
  9 11  2  0
 10 11  1  0
  7 12  1  0
 12 13  2  0
  9 14  1  0
 11 15  1  0
 14 16  1  0
 13 17  1  0
 16 18  1  0
 14 19  2  0
 15 20  2  0
 19 20  1  0
 19 21  1  0
 21 22  2  0
  8 23  1  0
 17 23  2  0
 21 24  1  0
 24 25  1  0
 18 26  2  0
 25 27  1  0
 18 28  1  0
 27 29  2  0
 27 30  1  0
 22 31  1  0
 25 31  2  0
 30 32  1  0
 29 33  1  0
 33 34  1  0
 31 35  1  0
 34 35  1  0
 29 36  1  0
 33 37  1  6
 36 38  2  0
 28 39  1  0
 32 39  1  0
 30 40  2  0
 38 40  1  0
 37 41  1  0
M  END
$$$$
O14757_Pocket2Mol_idx-in-all-generaetd-783
     RDKit          3D

 30 35  0  0  0  0  0  0  0  0999 V2000
    4.8173    0.2791   42.6993 N   0  0  0  0  0  0  0  0  0  0  0  0
    5.3297   -0.7477   43.3688 C   0  0  0  0  0  0  0  0  0  0  0  0
    3.4732   -0.2235   42.4530 C   0  0  0  0  0  0  0  0  0  0  0  0
    4.4984   -1.7876   43.6214 C   0  0  0  0  0  0  0  0  0  0  0  0
    3.3438   -1.5190   42.9379 C   0  0  0  0  0  0  0  0  0  0  0  0
    2.1381   -2.3401   42.8254 C   0  0  0  0  0  0  0  0  0  0  0  0
    2.3894    0.3572   41.9843 N   0  0  0  0  0  0  0  0  0  0  0  0
    4.9180   -3.0430   44.3829 C   0  0  0  0  0  0  0  0  0  0  0  0
    5.9444   -2.9314   45.3934 C   0  0  0  0  0  0  0  0  0  0  0  0
    4.2808   -4.1329   44.3252 C   0  0  0  0  0  0  0  0  0  0  0  0
    3.1588   -4.4221   43.4852 O   0  0  0  0  0  0  0  0  0  0  0  0
    4.5704   -5.2518   45.1995 C   0  0  0  0  0  0  0  0  0  0  0  0
    1.9853   -3.6792   43.3495 C   0  0  0  0  0  0  0  0  0  0  0  0
    0.9181   -4.3294   43.4638 C   0  0  0  0  0  0  0  0  0  0  0  0
    6.1667   -3.9106   46.0813 C   0  0  0  0  0  0  0  0  0  0  0  0
    0.9627   -1.7613   42.3940 C   0  0  0  0  0  0  0  0  0  0  0  0
    3.8296   -6.4325   45.0544 F   0  0  0  0  0  0  0  0  0  0  0  0
   -0.2646   -3.7780   42.9121 C   0  0  0  0  0  0  0  0  0  0  0  0
    5.4599   -5.1112   46.0385 C   0  0  0  0  0  0  0  0  0  0  0  0
    7.3541   -3.7011   47.1652 C   0  0  0  0  0  0  0  0  0  0  0  0
    8.4146   -3.0196   46.7433 C   0  0  0  0  0  0  0  0  0  0  0  0
   -0.1899   -2.5032   42.3318 C   0  0  0  0  0  0  0  0  0  0  0  0
    9.3886   -3.3983   46.2645 N   0  0  0  0  0  0  0  0  0  0  0  0
    1.1427   -0.3754   41.8728 C   0  0  0  0  0  0  0  0  0  0  0  0
   10.3974   -2.4006   46.0702 C   0  0  0  0  0  0  0  0  0  0  0  0
    9.9888   -1.2817   46.7299 C   0  0  0  0  0  0  0  0  0  0  0  0
    8.6473   -1.5048   47.0407 O   0  0  0  0  0  0  0  0  0  0  0  0
   11.7329   -2.6143   45.6320 C   0  0  0  0  0  0  0  0  0  0  0  0
   12.4134   -1.6549   45.2809 O   0  0  0  0  0  0  0  0  0  0  0  0
   12.0934   -3.8056   45.4463 O   0  0  0  0  0  0  0  0  0  0  0  0
  1  2  2  0
  1  3  1  0
  2  4  1  0
  3  5  1  0
  4  5  2  0
  5  6  1  0
  3  7  2  0
  4  8  1  0
  8  9  1  0
  8 10  2  0
 10 11  1  0
 10 12  1  0
  6 13  1  0
 11 13  1  0
 13 14  2  0
  9 15  2  0
  6 16  2  0
 12 17  1  0
 14 18  1  0
 12 19  2  0
 15 19  1  0
 15 20  1  0
 20 21  1  0
 16 22  1  0
 18 22  2  0
 21 23  2  0
  7 24  1  0
 16 24  1  0
 23 25  1  0
 25 26  2  0
 21 27  1  0
 26 27  1  0
 25 28  1  0
 28 29  2  0
 28 30  1  0
M  END
$$$$
O14757_Pocket2Mol_idx-in-all-generaetd-784
     RDKit          3D

 44 52  0  0  0  0  0  0  0  0999 V2000
    1.5482   -0.3111   41.9233 C   0  0  0  0  0  0  0  0  0  0  0  0
    2.7284    0.2018   42.1525 N   0  0  0  0  0  0  0  0  0  0  0  0
    3.7893   -0.3016   42.7005 C   0  0  0  0  0  0  0  0  0  0  0  0
    3.3781   -1.7350   43.0000 C   0  0  0  0  0  0  0  0  0  0  0  0
    2.0339   -1.9619   42.6217 C   0  0  0  0  0  0  0  0  0  0  0  0
    4.1166   -2.4997   43.8458 C   0  0  0  0  0  0  0  0  0  0  0  0
    1.1731   -3.0051   42.5773 C   0  0  0  0  0  0  0  0  0  0  0  0
    0.4701   -3.2344   41.4901 C   0  0  0  0  0  0  0  0  0  0  0  0
    5.3799   -1.7814   44.2691 C   0  0  0  0  0  0  0  0  0  0  0  0
    5.0159   -0.0180   43.1201 N   0  0  0  0  0  0  0  0  0  0  0  0
    5.7693   -0.6937   43.8418 C   0  0  0  0  0  0  0  0  0  0  0  0
    0.8078   -3.6166   43.6782 C   0  0  0  0  0  0  0  0  0  0  0  0
    0.0663   -4.7011   43.7415 N   0  0  0  0  0  0  0  0  0  0  0  0
    6.2223   -2.6843   45.1565 C   0  0  0  0  0  0  0  0  0  0  0  0
    6.9599   -0.2351   44.2608 N   0  0  0  0  0  0  0  0  0  0  0  0
    5.9065   -3.9037   45.7499 N   0  0  0  0  0  0  0  0  0  0  0  0
   -0.5459   -5.1185   42.5870 C   0  0  0  0  0  0  0  0  0  0  0  0
    5.7480   -4.0340   46.9810 C   0  0  0  0  0  0  0  0  0  0  0  0
    7.4448   -1.8511   45.4198 C   0  0  0  0  0  0  0  0  0  0  0  0
    7.7572   -0.7827   45.0128 C   0  0  0  0  0  0  0  0  0  0  0  0
    8.4076   -2.7217   46.4541 C   0  0  0  0  0  0  0  0  0  0  0  0
    9.3167   -2.0988   47.1049 N   0  0  0  0  0  0  0  0  0  0  0  0
   -0.4719   -4.3893   41.5406 C   0  0  0  0  0  0  0  0  0  0  0  0
    8.3667   -4.0284   46.5743 N   0  0  0  0  0  0  0  0  0  0  0  0
    9.5309   -4.3147   47.3094 C   0  0  0  0  0  0  0  0  0  0  0  0
    5.3113   -3.3789   47.8005 O   0  0  0  0  0  0  0  0  0  0  0  0
    9.9022   -5.6301   47.7684 C   0  0  0  0  0  0  0  0  0  0  0  0
    5.4470   -5.5868   47.2096 C   0  0  0  0  0  0  0  0  0  0  0  0
   11.2254   -5.8679   48.0402 C   0  0  0  0  0  0  0  0  0  0  0  0
    8.9736   -6.6532   47.8548 C   0  0  0  0  0  0  0  0  0  0  0  0
   10.0616   -3.0670   47.6360 C   0  0  0  0  0  0  0  0  0  0  0  0
    7.5566   -6.3564   47.5477 N   0  0  0  0  0  0  0  0  0  0  0  0
   12.3328   -4.8893   47.9268 C   0  0  2  0  0  0  0  0  0  0  0  0
   12.2085   -3.9673   46.9997 C   0  0  0  0  0  0  0  0  0  0  0  0
   11.5720   -2.8294   47.8112 C   0  0  0  0  0  0  0  0  0  0  0  0
   11.5497   -7.1871   48.4172 C   0  0  0  0  0  0  0  0  0  0  0  0
   13.5576   -5.8273   47.6737 C   0  0  0  0  0  0  0  0  0  0  0  0
   10.6555   -8.2234   48.5860 C   0  0  0  0  0  0  0  0  0  0  0  0
    9.3214   -7.9341   48.2947 C   0  0  0  0  0  0  0  0  0  0  0  0
   14.8413   -5.2792   47.8604 C   0  0  0  0  0  0  0  0  0  0  0  0
   13.5763   -6.4127   46.3135 C   0  0  0  0  0  0  0  0  0  0  0  0
   13.2056   -7.0086   48.6405 C   0  0  0  0  0  0  0  0  0  0  0  0
    6.6343   -6.3151   48.5313 C   0  0  0  0  0  0  0  0  0  0  0  0
    5.5676   -6.0450   48.4425 C   0  0  0  0  0  0  0  0  0  0  0  0
  1  2  1  0
  2  3  2  0
  3  4  1  0
  1  5  2  0
  4  5  1  0
  4  6  2  0
  5  7  1  0
  7  8  2  0
  6  9  1  0
  3 10  1  0
  9 11  2  0
 10 11  1  0
  7 12  1  0
 12 13  2  0
  9 14  1  0
 11 15  1  0
 14 16  1  0
 13 17  1  0
 16 18  1  0
 14 19  2  0
 15 20  2  0
 19 20  1  0
 19 21  1  0
 21 22  2  0
  8 23  1  0
 17 23  2  0
 21 24  1  0
 24 25  1  0
 18 26  2  0
 25 27  1  0
 18 28  1  0
 27 29  2  0
 27 30  1  0
 22 31  1  0
 25 31  2  0
 30 32  1  0
 29 33  1  0
 33 34  1  6
 31 35  1  0
 34 35  1  0
 29 36  1  0
 33 37  1  0
 36 38  2  0
 30 39  2  0
 38 39  1  0
 37 40  1  0
 37 41  1  0
 36 42  1  0
 37 42  1  0
 32 43  1  0
 28 44  1  0
 43 44  2  3
M  END
$$$$
O14757_Pocket2Mol_idx-in-all-generaetd-785
     RDKit          3D

 23 26  0  0  0  0  0  0  0  0999 V2000
    5.1775    0.2381   42.7925 N   0  0  0  0  0  0  0  0  0  0  0  0
    3.8485    0.3515   42.4285 N   0  0  0  0  0  0  0  0  0  0  0  0
    5.5201   -0.8216   43.5188 C   0  0  0  0  0  0  0  0  0  0  0  0
    4.5575   -1.7838   43.9113 C   0  0  0  0  0  0  0  0  0  0  0  0
    2.9777   -0.5504   42.6073 C   0  0  0  0  0  0  0  0  0  0  0  0
    4.8521   -2.9209   44.7316 C   0  0  0  0  0  0  0  0  0  0  0  0
    3.2351   -1.5675   43.1903 C   0  0  0  0  0  0  0  0  0  0  0  0
    1.6955   -0.2711   41.8967 C   0  0  0  0  0  0  0  0  0  0  0  0
    0.8864   -1.3663   42.0618 C   0  0  0  0  0  0  0  0  0  0  0  0
    2.3187   -2.7500   43.4543 C   0  0  0  0  0  0  0  0  0  0  0  0
    1.1071   -2.5907   42.7445 C   0  0  0  0  0  0  0  0  0  0  0  0
    6.0979   -2.8249   45.5633 C   0  0  0  0  0  0  0  0  0  0  0  0
    0.0423   -3.6939   42.8205 C   0  0  0  0  0  0  0  0  0  0  0  0
    4.2011   -4.0423   44.9363 C   0  0  0  0  0  0  0  0  0  0  0  0
    4.5424   -5.0339   45.7893 C   0  0  0  0  0  0  0  0  0  0  0  0
   -0.0110   -4.4040   41.6463 N   0  0  0  0  0  0  0  0  0  0  0  0
    2.8431   -3.9954   44.0809 C   0  0  0  0  0  0  0  0  0  0  0  0
    7.0703   -1.6758   45.5388 C   0  0  0  0  0  0  0  0  0  0  0  0
    8.0247   -1.5814   46.7140 C   0  0  0  0  0  0  0  0  0  0  0  0
    9.0826   -0.8566   46.5840 C   0  0  0  0  0  0  0  0  0  0  0  0
   10.0432   -1.4137   45.7942 O   0  0  0  0  0  0  0  0  0  0  0  0
    6.4721   -3.8694   46.3870 C   0  0  0  0  0  0  0  0  0  0  0  0
    5.4696   -4.9166   46.4342 C   0  0  0  0  0  0  0  0  0  0  0  0
  1  2  2  0
  1  3  1  0
  3  4  2  0
  2  5  1  0
  4  6  1  0
  4  7  1  0
  5  7  2  0
  5  8  1  0
  8  9  2  0
  7 10  1  0
  9 11  1  0
 10 11  2  0
  6 12  2  0
 11 13  1  0
  6 14  1  0
 14 15  2  0
 13 16  1  0
 10 17  1  0
 14 17  1  0
 12 18  1  0
 18 19  1  0
 19 20  1  0
 20 21  1  0
 12 22  1  0
 15 23  1  0
 22 23  2  0
M  END
$$$$
O14757_Pocket2Mol_idx-in-all-generaetd-786
     RDKit          3D

 23 25  0  0  0  0  0  0  0  0999 V2000
    5.3420    0.2589   42.8836 O   0  0  0  0  0  0  0  0  0  0  0  0
    5.1627   -0.7554   43.4753 C   0  0  0  0  0  0  0  0  0  0  0  0
    4.0509   -1.4657   43.4177 N   0  0  0  0  0  0  0  0  0  0  0  0
    5.9969   -1.2317   44.6840 C   0  0  0  0  0  0  0  0  0  0  0  0
    2.9618   -1.1021   42.5918 C   0  0  0  0  0  0  0  0  0  0  0  0
    2.0342   -2.0118   42.3240 C   0  0  0  0  0  0  0  0  0  0  0  0
    5.7960   -2.3731   45.4134 C   0  0  0  0  0  0  0  0  0  0  0  0
    6.7643   -2.8673   46.3300 C   0  0  0  0  0  0  0  0  0  0  0  0
    7.8839   -1.8161   46.2935 C   0  0  0  0  0  0  0  0  0  0  0  0
    7.4792   -0.7120   45.0123 S   0  0  0  0  0  0  0  0  0  0  0  0
    2.7700    0.1737   42.3209 N   0  0  0  0  0  0  0  0  0  0  0  0
    9.0153   -1.9289   47.1051 C   0  0  0  0  0  0  0  0  0  0  0  0
    0.9354   -1.7573   41.5151 C   0  0  0  0  0  0  0  0  0  0  0  0
    0.6272   -0.4586   41.2502 C   0  0  0  0  0  0  0  0  0  0  0  0
   -0.0223   -2.9188   41.0859 C   0  0  0  0  0  0  0  0  0  0  0  0
    1.5843    0.4258   41.7547 C   0  0  0  0  0  0  0  0  0  0  0  0
   10.0729   -1.8829   46.5161 N   0  0  0  0  0  0  0  0  0  0  0  0
    8.9399   -2.2901   48.4208 N   0  0  0  0  0  0  0  0  0  0  0  0
   11.0224   -2.0696   47.5152 C   0  0  0  0  0  0  0  0  0  0  0  0
   10.3498   -2.2489   48.6854 C   0  0  0  0  0  0  0  0  0  0  0  0
   12.4596   -2.0092   47.2254 C   0  0  0  0  0  0  0  0  0  0  0  0
   12.8162   -2.1507   45.9768 O   0  0  0  0  0  0  0  0  0  0  0  0
   13.2655   -1.4012   48.0747 O   0  0  0  0  0  0  0  0  0  0  0  0
  1  2  2  0
  2  3  1  0
  2  4  1  0
  3  5  1  0
  5  6  2  0
  4  7  2  0
  7  8  1  0
  8  9  2  0
  4 10  1  0
  9 10  1  0
  5 11  1  0
  9 12  1  0
  6 13  1  0
 13 14  2  0
 13 15  1  0
 11 16  2  0
 14 16  1  0
 12 17  2  0
 12 18  1  0
 17 19  1  0
 18 20  1  0
 19 20  2  0
 19 21  1  0
 21 22  1  0
 21 23  2  0
M  END
$$$$
O14757_Pocket2Mol_idx-in-all-generaetd-787
     RDKit          3D

 47 56  0  0  0  0  0  0  0  0999 V2000
    1.5482   -0.3111   41.9233 C   0  0  0  0  0  0  0  0  0  0  0  0
    2.7284    0.2018   42.1525 N   0  0  0  0  0  0  0  0  0  0  0  0
    3.7893   -0.3016   42.7005 C   0  0  0  0  0  0  0  0  0  0  0  0
    3.3781   -1.7350   43.0000 C   0  0  0  0  0  0  0  0  0  0  0  0
    2.0339   -1.9619   42.6217 C   0  0  0  0  0  0  0  0  0  0  0  0
    5.0090    0.1219   42.9340 N   0  0  0  0  0  0  0  0  0  0  0  0
    4.2895   -2.4979   43.6707 C   0  0  0  0  0  0  0  0  0  0  0  0
    5.8391   -0.6675   43.6343 C   0  0  0  0  0  0  0  0  0  0  0  0
    6.9849   -0.2377   44.0028 N   0  0  0  0  0  0  0  0  0  0  0  0
    4.0426   -3.8794   44.0832 C   0  0  0  0  0  0  0  0  0  0  0  0
    7.6796   -0.8734   44.9326 C   0  0  0  0  0  0  0  0  0  0  0  0
    1.1064   -2.9576   42.4211 C   0  0  0  0  0  0  0  0  0  0  0  0
    5.5298   -1.9496   44.0315 C   0  0  0  0  0  0  0  0  0  0  0  0
    3.8954   -4.1817   45.4718 C   0  0  0  0  0  0  0  0  0  0  0  0
    0.6765   -3.5480   43.4006 C   0  0  1  0  0  0  0  0  0  0  0  0
    0.5804   -3.2191   41.1635 C   0  0  0  0  0  0  0  0  0  0  0  0
    2.8083   -4.8227   45.9203 N   0  0  0  0  0  0  0  0  0  0  0  0
   -0.1574   -4.5754   42.9329 N   0  0  0  0  0  0  0  0  0  0  0  0
    6.5271   -2.5531   44.9677 C   0  0  0  0  0  0  0  0  0  0  0  0
   -0.2272   -4.3703   41.5137 C   0  0  0  0  0  0  0  0  0  0  0  0
    7.5095   -2.0029   45.3993 C   0  0  0  0  0  0  0  0  0  0  0  0
    8.2550   -2.6982   46.3988 C   0  0  0  0  0  0  0  0  0  0  0  0
    8.8975   -0.3029   45.3267 O   0  0  0  0  0  0  0  0  0  0  0  0
    4.8299   -4.4637   46.4212 C   0  0  0  0  0  0  0  0  0  0  0  0
    4.2707   -4.9248   47.6295 N   0  0  0  0  0  0  0  0  0  0  0  0
    3.2045   -5.2092   47.1521 C   0  0  0  0  0  0  0  0  0  0  0  0
    1.4482   -4.6186   45.4134 C   0  0  2  0  0  0  0  0  0  0  0  0
    1.2398   -3.5043   44.6236 O   0  0  0  0  0  0  0  0  0  0  0  0
    6.3317   -3.9297   46.0870 C   0  0  2  0  0  0  0  0  0  0  0  0
    9.5296   -2.5449   46.9776 C   0  0  0  0  0  0  0  0  0  0  0  0
    9.7921   -1.7530   47.9018 O   0  0  0  0  0  0  0  0  0  0  0  0
    7.3972   -3.8130   46.7939 C   0  0  0  0  0  0  0  0  0  0  0  0
   10.4154   -3.4217   46.6883 O   0  0  0  0  0  0  0  0  0  0  0  0
    0.5555   -4.7535   46.5674 C   0  0  0  0  0  0  0  0  0  0  0  0
   11.6497   -3.0596   47.0439 C   0  0  0  0  0  0  0  0  0  0  0  0
   12.3878   -4.1125   47.6990 C   0  0  1  0  0  0  0  0  0  0  0  0
   11.8800   -5.2760   47.5659 O   0  0  0  0  0  0  0  0  0  0  0  0
   12.1402   -1.9273   46.5416 C   0  0  0  0  0  0  0  0  0  0  0  0
   13.7566   -3.9428   47.4635 C   0  0  0  0  0  0  0  0  0  0  0  0
   11.3924   -5.9178   48.7514 C   0  0  0  0  0  0  0  0  0  0  0  0
   14.4126   -2.7430   47.0678 C   0  0  0  0  0  0  0  0  0  0  0  0
   13.4817   -1.7494   46.5455 C   0  0  0  0  0  0  0  0  0  0  0  0
   15.7358   -2.5357   47.0594 C   0  0  1  0  0  0  0  0  0  0  0  0
   14.0100   -0.6243   46.0829 C   0  0  0  0  0  0  0  0  0  0  0  0
   16.6116   -3.5372   47.4683 O   0  0  0  0  0  0  0  0  0  0  0  0
   15.3911   -0.3392   46.0948 C   0  0  0  0  0  0  0  0  0  0  0  0
   16.3498   -1.3793   46.5448 C   0  0  0  0  0  0  0  0  0  0  0  0
  1  2  1  0
  2  3  2  0
  3  4  1  0
  1  5  2  0
  4  5  1  0
  3  6  1  0
  4  7  2  0
  6  8  1  0
  8  9  1  0
  7 10  1  0
  9 11  1  0
  5 12  1  0
  7 13  1  0
  8 13  2  0
 10 14  1  0
 12 15  1  0
 12 16  2  0
 14 17  1  0
 15 18  1  0
 13 19  1  0
 16 20  1  0
 18 20  2  0
 11 21  1  0
 19 21  2  0
 21 22  1  0
 11 23  2  0
 14 24  2  0
 24 25  1  0
 17 26  1  0
 25 26  2  0
 17 27  1  0
 15 28  1  6
 27 28  1  0
 19 29  1  0
 24 29  1  0
 22 30  1  0
 30 31  2  0
 22 32  2  0
 29 32  1  1
 30 33  1  0
 27 34  1  1
 33 35  1  0
 35 36  1  0
 36 37  1  6
 35 38  2  0
 36 39  1  0
 37 40  1  0
 39 41  2  0
 38 42  1  0
 41 42  1  0
 41 43  1  0
 42 44  2  0
 43 45  1  6
 44 46  1  0
 43 47  1  0
 46 47  2  0
M  END
$$$$
O14757_Pocket2Mol_idx-in-all-generaetd-788
     RDKit          3D

 35 39  0  0  0  0  0  0  0  0999 V2000
    4.5156    0.0550   42.9895 N   0  0  0  0  0  0  0  0  0  0  0  0
    5.0618   -0.8645   43.5295 C   0  0  0  0  0  0  0  0  0  0  0  0
    4.4350   -2.0604   43.7783 C   0  0  0  0  0  0  0  0  0  0  0  0
    4.9987   -3.0994   44.5839 C   0  0  0  0  0  0  0  0  0  0  0  0
    3.2714   -1.8664   43.0632 C   0  0  0  0  0  0  0  0  0  0  0  0
    6.4064   -0.5942   44.3204 N   0  0  0  0  0  0  0  0  0  0  0  0
    4.3422   -4.3256   44.7203 C   0  0  0  0  0  0  0  0  0  0  0  0
    2.1845   -2.6668   42.8270 N   0  0  0  0  0  0  0  0  0  0  0  0
    6.7872   -1.6740   45.1626 C   0  0  0  0  0  0  0  0  0  0  0  0
    3.3364   -0.5682   42.5216 C   0  0  0  0  0  0  0  0  0  0  0  0
    6.0794   -2.8367   45.2418 C   0  0  0  0  0  0  0  0  0  0  0  0
    2.2080   -0.0040   41.8105 N   0  0  0  0  0  0  0  0  0  0  0  0
    3.5122   -4.5717   45.8882 C   0  0  0  0  0  0  0  0  0  0  0  0
    8.0343   -1.3439   45.8176 C   0  0  0  0  0  0  0  0  0  0  0  0
    8.5676   -2.2678   46.6666 C   0  0  0  0  0  0  0  0  0  0  0  0
    1.2034   -0.9715   41.7505 C   0  0  0  0  0  0  0  0  0  0  0  0
    9.7543   -2.0263   47.4257 C   0  0  1  0  0  0  0  0  0  0  0  0
   10.9435   -2.3462   46.8726 C   0  0  0  0  0  0  0  0  0  0  0  0
    2.0759   -4.8825   45.5393 N   0  0  0  0  0  0  0  0  0  0  0  0
    1.2148   -2.2334   42.1576 C   0  0  0  0  0  0  0  0  0  0  0  0
    9.6982   -0.8148   48.0427 O   0  0  0  0  0  0  0  0  0  0  0  0
   11.0881   -3.3882   46.0717 O   0  0  0  0  0  0  0  0  0  0  0  0
    7.6623   -3.4449   46.9706 C   0  0  0  0  0  0  0  0  0  0  0  0
    6.5323   -3.6370   46.2770 C   0  0  0  0  0  0  0  0  0  0  0  0
    0.0607   -3.1280   41.9172 C   0  0  0  0  0  0  0  0  0  0  0  0
   12.3311   -3.5802   45.4279 C   0  0  0  0  0  0  0  0  0  0  0  0
   11.7186   -1.3261   46.7020 C   0  0  0  0  0  0  0  0  0  0  0  0
   12.1074   -0.6139   47.6871 O   0  0  0  0  0  0  0  0  0  0  0  0
   -0.3863   -3.3709   40.6959 O   0  0  0  0  0  0  0  0  0  0  0  0
    1.0768   -4.0688   45.7368 C   0  0  0  0  0  0  0  0  0  0  0  0
    0.2411   -3.9036   44.8688 N   0  0  0  0  0  0  0  0  0  0  0  0
   -0.6544   -3.6460   42.8525 N   0  0  0  0  0  0  0  0  0  0  0  0
    0.2536   -4.3583   43.6456 C   0  0  0  0  0  0  0  0  0  0  0  0
    0.7582   -5.4578   43.4462 O   0  0  0  0  0  0  0  0  0  0  0  0
    0.7414   -3.6468   47.0320 N   0  0  0  0  0  0  0  0  0  0  0  0
  1  2  2  0
  2  3  1  0
  3  4  1  0
  3  5  2  0
  2  6  1  0
  4  7  1  0
  5  8  1  0
  6  9  2  0
  1 10  1  0
  5 10  1  0
  4 11  2  0
  9 11  1  0
 10 12  2  0
  7 13  1  0
  9 14  1  0
 14 15  2  0
 12 16  1  0
 15 17  1  0
 17 18  1  0
 13 19  1  0
  8 20  2  0
 16 20  1  0
 17 21  1  6
 18 22  1  0
 15 23  1  0
 11 24  1  0
 23 24  2  0
 20 25  1  0
 22 26  1  0
 18 27  2  3
 27 28  1  0
 25 29  2  0
 19 30  1  0
 30 31  2  3
 25 32  1  0
 31 33  1  0
 32 33  1  0
 33 34  2  0
 30 35  1  0
M  END
$$$$
O14757_Pocket2Mol_idx-in-all-generaetd-789
     RDKit          3D

 41 48  0  0  0  0  0  0  0  0999 V2000
    4.8173    0.2791   42.6993 N   0  0  0  0  0  0  0  0  0  0  0  0
    5.3297   -0.7477   43.3688 C   0  0  0  0  0  0  0  0  0  0  0  0
    3.4732   -0.2235   42.4530 C   0  0  0  0  0  0  0  0  0  0  0  0
    4.4984   -1.7876   43.6214 C   0  0  0  0  0  0  0  0  0  0  0  0
    3.3438   -1.5190   42.9379 C   0  0  0  0  0  0  0  0  0  0  0  0
    2.1381   -2.3401   42.8254 C   0  0  0  0  0  0  0  0  0  0  0  0
    2.3894    0.3572   41.9843 N   0  0  0  0  0  0  0  0  0  0  0  0
    4.9180   -3.0430   44.3829 C   0  0  0  0  0  0  0  0  0  0  0  0
    5.9444   -2.9314   45.3934 C   0  0  0  0  0  0  0  0  0  0  0  0
    4.2808   -4.1329   44.3252 C   0  0  0  0  0  0  0  0  0  0  0  0
    3.1588   -4.4221   43.4852 O   0  0  0  0  0  0  0  0  0  0  0  0
    4.5704   -5.2518   45.1995 C   0  0  0  0  0  0  0  0  0  0  0  0
    1.9853   -3.6792   43.3495 C   0  0  0  0  0  0  0  0  0  0  0  0
    0.9181   -4.3294   43.4638 C   0  0  0  0  0  0  0  0  0  0  0  0
    6.7403   -1.6226   45.5272 C   0  0  2  0  0  0  0  0  0  0  0  0
    0.9752   -1.7845   42.3366 C   0  0  0  0  0  0  0  0  0  0  0  0
    6.2516   -3.7287   46.2722 C   0  0  0  0  0  0  0  0  0  0  0  0
   -0.2404   -2.4179   42.2529 C   0  0  0  0  0  0  0  0  0  0  0  0
   -1.3835   -1.8904   41.6559 N   0  0  0  0  0  0  0  0  0  0  0  0
    3.8706   -6.4216   45.1394 O   0  0  0  0  0  0  0  0  0  0  0  0
    0.9456   -0.2789   41.7649 C   0  0  0  0  0  0  0  0  0  0  0  0
   -0.2678   -3.6969   42.7575 C   0  0  0  0  0  0  0  0  0  0  0  0
    6.3913   -0.7000   44.3807 N   0  0  0  0  0  0  0  0  0  0  0  0
    7.9391   -1.5867   46.0069 C   0  0  0  0  0  0  0  0  0  0  0  0
    8.7787   -0.4879   45.9761 O   0  0  0  0  0  0  0  0  0  0  0  0
    5.3853   -5.1216   46.3780 C   0  0  0  0  0  0  0  0  0  0  0  0
    8.4504   -2.7517   46.6262 N   0  0  0  0  0  0  0  0  0  0  0  0
    7.4807   -3.7374   47.0380 C   0  0  0  0  0  0  0  0  0  0  0  0
    9.7261   -2.6138   47.3732 C   0  0  0  0  0  0  0  0  0  0  0  0
    9.9606   -3.7577   48.0581 C   0  0  0  0  0  0  0  0  0  0  0  0
   11.0999   -4.4648   47.7368 O   0  0  0  0  0  0  0  0  0  0  0  0
   10.9199   -5.0316   46.4526 C   0  0  0  0  0  0  0  0  0  0  0  0
   10.2272   -6.0822   46.3751 C   0  0  0  0  0  0  0  0  0  0  0  0
   11.3454   -4.3181   45.2884 C   0  0  0  0  0  0  0  0  0  0  0  0
    9.6833   -6.6841   47.5703 O   0  0  0  0  0  0  0  0  0  0  0  0
   10.2626   -7.0665   45.3234 C   0  0  0  0  0  0  0  0  0  0  0  0
    9.1410   -7.9540   47.6979 C   0  0  0  0  0  0  0  0  0  0  0  0
   11.9885   -3.0879   45.2862 C   0  0  0  0  0  0  0  0  0  0  0  0
   10.9553   -6.4812   44.2464 C   0  0  0  0  0  0  0  0  0  0  0  0
   10.9355   -7.2824   43.0587 O   0  0  0  0  0  0  0  0  0  0  0  0
   11.4527   -5.1640   44.1559 C   0  0  0  0  0  0  0  0  0  0  0  0
  1  2  2  0
  1  3  1  0
  2  4  1  0
  3  5  1  0
  4  5  2  0
  5  6  1  0
  3  7  2  0
  4  8  1  0
  8  9  1  0
  8 10  2  0
 10 11  1  0
 10 12  1  0
  6 13  1  0
 11 13  1  0
 13 14  2  0
  9 15  1  0
  6 16  2  0
  9 17  2  0
 16 18  1  0
 18 19  1  0
 12 20  1  0
  7 21  1  0
 16 21  1  0
 14 22  1  0
 18 22  2  0
  2 23  1  0
 15 23  1  6
 15 24  1  0
 24 25  2  0
 12 26  2  0
 17 26  1  0
 24 27  1  0
 17 28  1  0
 27 28  1  0
 27 29  1  0
 29 30  1  0
 30 31  1  0
 31 32  1  0
 32 33  2  0
 32 34  1  0
 33 35  1  0
 33 36  1  0
 35 37  1  0
 34 38  1  0
 36 39  2  0
 39 40  1  0
 34 41  2  0
 39 41  1  0
M  END
$$$$
O14757_Pocket2Mol_idx-in-all-generaetd-790
     RDKit          3D

 35 39  0  0  0  0  0  0  0  0999 V2000
    4.5156    0.0550   42.9895 N   0  0  0  0  0  0  0  0  0  0  0  0
    5.0618   -0.8645   43.5295 C   0  0  0  0  0  0  0  0  0  0  0  0
    4.4350   -2.0604   43.7783 C   0  0  0  0  0  0  0  0  0  0  0  0
    4.9987   -3.0994   44.5839 C   0  0  0  0  0  0  0  0  0  0  0  0
    3.2714   -1.8664   43.0632 C   0  0  0  0  0  0  0  0  0  0  0  0
    6.4064   -0.5942   44.3204 N   0  0  0  0  0  0  0  0  0  0  0  0
    4.3422   -4.3256   44.7203 C   0  0  0  0  0  0  0  0  0  0  0  0
    2.1845   -2.6668   42.8270 N   0  0  0  0  0  0  0  0  0  0  0  0
    6.7872   -1.6740   45.1626 C   0  0  0  0  0  0  0  0  0  0  0  0
    3.3364   -0.5682   42.5216 C   0  0  0  0  0  0  0  0  0  0  0  0
    6.0794   -2.8367   45.2418 C   0  0  0  0  0  0  0  0  0  0  0  0
    2.2080   -0.0040   41.8105 N   0  0  0  0  0  0  0  0  0  0  0  0
    3.5122   -4.5717   45.8882 C   0  0  0  0  0  0  0  0  0  0  0  0
    8.0343   -1.3439   45.8176 C   0  0  0  0  0  0  0  0  0  0  0  0
    8.5676   -2.2678   46.6666 C   0  0  0  0  0  0  0  0  0  0  0  0
    1.2034   -0.9715   41.7505 C   0  0  0  0  0  0  0  0  0  0  0  0
    9.7543   -2.0263   47.4257 C   0  0  1  0  0  0  0  0  0  0  0  0
   10.9435   -2.3462   46.8726 C   0  0  0  0  0  0  0  0  0  0  0  0
    2.0759   -4.8825   45.5393 N   0  0  0  0  0  0  0  0  0  0  0  0
    1.2148   -2.2334   42.1576 C   0  0  0  0  0  0  0  0  0  0  0  0
    9.6982   -0.8148   48.0427 O   0  0  0  0  0  0  0  0  0  0  0  0
   11.0881   -3.3882   46.0717 O   0  0  0  0  0  0  0  0  0  0  0  0
    7.6623   -3.4449   46.9706 C   0  0  0  0  0  0  0  0  0  0  0  0
    6.5323   -3.6370   46.2770 C   0  0  0  0  0  0  0  0  0  0  0  0
    0.0607   -3.1280   41.9172 C   0  0  0  0  0  0  0  0  0  0  0  0
   12.3311   -3.5802   45.4279 C   0  0  0  0  0  0  0  0  0  0  0  0
   11.7186   -1.3261   46.7020 C   0  0  0  0  0  0  0  0  0  0  0  0
   12.1074   -0.6139   47.6871 O   0  0  0  0  0  0  0  0  0  0  0  0
   -0.3863   -3.3709   40.6959 O   0  0  0  0  0  0  0  0  0  0  0  0
    1.7867   -5.7975   44.8928 C   0  0  0  0  0  0  0  0  0  0  0  0
    1.2123   -3.7433   45.4568 C   0  0  0  0  0  0  0  0  0  0  0  0
   -0.1520   -4.2594   45.7463 C   0  0  0  0  0  0  0  0  0  0  0  0
   -0.6168   -3.5725   42.8827 O   0  0  0  0  0  0  0  0  0  0  0  0
   -0.2578   -5.5569   45.3426 N   0  0  0  0  0  0  0  0  0  0  0  0
    0.6429   -6.4888   45.3246 C   0  0  0  0  0  0  0  0  0  0  0  0
  1  2  2  0
  2  3  1  0
  3  4  1  0
  3  5  2  0
  2  6  1  0
  4  7  1  0
  5  8  1  0
  6  9  2  0
  1 10  1  0
  5 10  1  0
  4 11  2  0
  9 11  1  0
 10 12  2  0
  7 13  1  0
  9 14  1  0
 14 15  2  0
 12 16  1  0
 15 17  1  0
 17 18  1  0
 13 19  1  0
  8 20  2  0
 16 20  1  0
 17 21  1  6
 18 22  1  0
 15 23  1  0
 11 24  1  0
 23 24  2  0
 20 25  1  0
 22 26  1  0
 18 27  2  3
 27 28  1  0
 25 29  2  0
 19 30  1  0
 19 31  1  0
 31 32  1  0
 25 33  1  0
 32 34  1  0
 30 35  1  0
 34 35  1  0
M  END
$$$$
O14757_Pocket2Mol_idx-in-all-generaetd-791
     RDKit          3D

 31 36  0  0  0  0  0  0  0  0999 V2000
    5.3420    0.2589   42.8836 N   0  0  0  0  0  0  0  0  0  0  0  0
    5.6740   -0.8311   43.5645 C   0  0  0  0  0  0  0  0  0  0  0  0
    4.6589   -1.7043   43.6799 C   0  0  0  0  0  0  0  0  0  0  0  0
    3.6286   -1.0900   42.8577 C   0  0  0  0  0  0  0  0  0  0  0  0
    4.0610    0.1743   42.5227 N   0  0  0  0  0  0  0  0  0  0  0  0
    2.2711   -1.4200   42.4728 C   0  0  0  0  0  0  0  0  0  0  0  0
    4.3843   -2.8218   44.3745 C   0  0  0  0  0  0  0  0  0  0  0  0
    1.4505   -0.5265   41.9137 C   0  0  0  0  0  0  0  0  0  0  0  0
    1.9236   -2.8327   42.4366 C   0  0  0  0  0  0  0  0  0  0  0  0
    0.5317   -2.7729   41.9287 C   0  0  0  0  0  0  0  0  0  0  0  0
    6.8587   -1.2119   44.3293 C   0  0  0  0  0  0  0  0  0  0  0  0
    0.2175   -1.3031   41.4860 C   0  0  0  0  0  0  0  0  0  0  0  0
   -0.3459   -3.9057   41.6978 C   0  0  0  0  0  0  0  0  0  0  0  0
    7.8877   -0.5486   44.6088 N   0  0  0  0  0  0  0  0  0  0  0  0
    6.7301   -2.3898   45.2144 C   0  0  0  0  0  0  0  0  0  0  0  0
    5.5335   -3.2051   45.1511 C   0  0  0  0  0  0  0  0  0  0  0  0
    7.9111   -2.4568   45.9191 C   0  0  0  0  0  0  0  0  0  0  0  0
    8.6956   -1.2139   45.6145 C   0  0  0  0  0  0  0  0  0  0  0  0
    8.4387   -3.4065   46.9399 C   0  0  0  0  0  0  0  0  0  0  0  0
    9.6434   -3.2081   47.4488 C   0  0  0  0  0  0  0  0  0  0  0  0
   10.1454   -4.1698   48.4457 C   0  0  0  0  0  0  0  0  0  0  0  0
    9.9571   -1.0853   46.2999 C   0  0  0  0  0  0  0  0  0  0  0  0
   10.3696   -2.0115   47.1904 C   0  0  0  0  0  0  0  0  0  0  0  0
   10.5141   -5.3875   47.9390 N   0  0  0  0  0  0  0  0  0  0  0  0
   11.5759   -5.4913   47.1327 C   0  0  0  0  0  0  0  0  0  0  0  0
    9.7709   -6.5250   48.2414 C   0  0  0  0  0  0  0  0  0  0  0  0
   11.3326   -5.8221   45.7860 C   0  0  0  0  0  0  0  0  0  0  0  0
    8.9138   -6.6554   49.0519 O   0  0  0  0  0  0  0  0  0  0  0  0
   10.2549   -7.8920   47.7300 C   0  0  0  0  0  0  0  0  0  0  0  0
   10.5525   -7.9885   46.5443 N   0  0  0  0  0  0  0  0  0  0  0  0
   11.4429   -7.3239   45.7108 C   0  0  0  0  0  0  0  0  0  0  0  0
  1  2  2  0
  2  3  1  0
  3  4  2  0
  1  5  1  0
  4  5  1  0
  4  6  1  0
  3  7  1  0
  6  8  2  0
  6  9  1  0
  9 10  2  0
  2 11  1  0
  8 12  1  0
 10 12  1  0
 10 13  1  0
 11 14  1  0
 11 15  2  0
  7 16  2  0
 15 16  1  0
 15 17  1  0
 14 18  1  0
 17 18  2  0
 17 19  1  0
 19 20  2  0
 20 21  1  0
 18 22  1  0
 20 23  1  0
 22 23  2  0
 21 24  1  0
 24 25  1  0
 24 26  1  0
 25 27  1  0
 26 28  2  0
 26 29  1  0
 29 30  1  0
 27 31  1  0
 30 31  1  0
M  END
$$$$
O14757_Pocket2Mol_idx-in-all-generaetd-792
     RDKit          3D

 32 37  0  0  0  0  0  0  0  0999 V2000
    5.3420    0.2589   42.8836 N   0  0  0  0  0  0  0  0  0  0  0  0
    5.6740   -0.8311   43.5645 C   0  0  0  0  0  0  0  0  0  0  0  0
    6.8416   -0.9240   44.3627 N   0  0  0  0  0  0  0  0  0  0  0  0
    4.1141    0.2821   42.2689 C   0  0  0  0  0  0  0  0  0  0  0  0
    3.2237   -0.7484   42.3921 N   0  0  0  0  0  0  0  0  0  0  0  0
    6.8097   -1.9585   45.3182 C   0  0  0  0  0  0  0  0  0  0  0  0
    3.5007   -1.8060   43.1511 C   0  0  0  0  0  0  0  0  0  0  0  0
    4.7020   -1.8573   43.8328 C   0  0  0  0  0  0  0  0  0  0  0  0
    5.4887   -2.6670   44.9856 C   0  0  0  0  0  0  0  0  0  0  0  0
    2.5208   -2.8458   43.2671 C   0  0  0  0  0  0  0  0  0  0  0  0
    2.6558   -3.8570   44.2541 C   0  0  0  0  0  0  0  0  0  0  0  0
    7.6468   -2.3589   46.2854 C   0  0  0  0  0  0  0  0  0  0  0  0
    3.8579   -4.1296   44.9532 N   0  0  0  0  0  0  0  0  0  0  0  0
    1.3096   -2.7520   42.6410 C   0  0  0  0  0  0  0  0  0  0  0  0
    4.9776   -3.8402   45.4939 C   0  0  0  0  0  0  0  0  0  0  0  0
    8.7023   -1.6088   46.4743 C   0  0  0  0  0  0  0  0  0  0  0  0
    9.5984   -1.8433   47.5139 C   0  0  0  0  0  0  0  0  0  0  0  0
    7.3782   -3.4221   47.2077 C   0  0  0  0  0  0  0  0  0  0  0  0
    1.5977   -4.7338   44.4801 C   0  0  0  0  0  0  0  0  0  0  0  0
    1.0668   -1.7644   41.4981 C   0  0  0  0  0  0  0  0  0  0  0  0
   10.8175   -0.9959   47.6882 O   0  0  0  0  0  0  0  0  0  0  0  0
   11.6053   -1.2371   48.6095 C   0  0  0  0  0  0  0  0  0  0  0  0
    0.3244   -3.6976   42.8655 C   0  0  0  0  0  0  0  0  0  0  0  0
   -0.8593   -3.6685   42.0130 N   0  0  0  0  0  0  0  0  0  0  0  0
    1.8517   -5.8131   45.4828 O   0  0  0  0  0  0  0  0  0  0  0  0
    0.4775   -4.6810   43.7729 C   0  0  0  0  0  0  0  0  0  0  0  0
    0.8739   -6.6382   45.6662 C   0  0  0  0  0  0  0  0  0  0  0  0
   -1.0916   -2.5994   41.2602 C   0  0  2  0  0  0  0  0  0  0  0  0
   -2.2866   -2.5222   40.6481 C   0  0  0  0  0  0  0  0  0  0  0  0
    0.0119   -1.5291   41.0569 C   0  0  0  0  0  0  0  0  0  0  0  0
    9.4004   -2.8767   48.3267 C   0  0  0  0  0  0  0  0  0  0  0  0
    8.4142   -3.6448   48.3013 C   0  0  0  0  0  0  0  0  0  0  0  0
  1  2  2  0
  2  3  1  0
  1  4  1  0
  4  5  2  0
  3  6  1  0
  5  7  1  0
  2  8  1  0
  7  8  2  0
  6  9  2  0
  8  9  1  0
  7 10  1  0
 10 11  2  0
  6 12  1  0
 11 13  1  0
 10 14  1  0
  9 15  1  0
 13 15  1  0
 12 16  2  0
 16 17  1  0
 12 18  1  0
 11 19  1  0
 14 20  1  0
 17 21  1  0
 21 22  1  0
 14 23  2  0
 23 24  1  0
 19 25  1  0
 19 26  2  0
 23 26  1  0
 25 27  1  0
 24 28  1  0
 28 29  1  6
 20 30  1  0
 28 30  1  0
 17 31  2  0
 18 32  2  0
 31 32  1  0
M  END
$$$$
O14757_Pocket2Mol_idx-in-all-generaetd-793
     RDKit          3D

 31 35  0  0  0  0  0  0  0  0999 V2000
    5.3420    0.2589   42.8836 O   0  0  0  0  0  0  0  0  0  0  0  0
    5.1627   -0.7554   43.4753 C   0  0  0  0  0  0  0  0  0  0  0  0
    4.0509   -1.4657   43.4177 N   0  0  0  0  0  0  0  0  0  0  0  0
    5.9969   -1.2317   44.6840 C   0  0  0  0  0  0  0  0  0  0  0  0
    2.9618   -1.1021   42.5918 C   0  0  1  0  0  0  0  0  0  0  0  0
    7.3392   -0.8596   44.8412 C   0  0  0  0  0  0  0  0  0  0  0  0
    1.9754   -2.0820   42.2741 C   0  0  0  0  0  0  0  0  0  0  0  0
    5.5910   -2.4282   45.3439 C   0  0  0  0  0  0  0  0  0  0  0  0
    6.5874   -2.9636   46.1581 C   0  0  0  0  0  0  0  0  0  0  0  0
    4.2763   -3.0680   45.0493 N   0  0  0  0  0  0  0  0  0  0  0  0
    3.6188   -2.5886   44.2024 C   0  0  0  0  0  0  0  0  0  0  0  0
    8.1921   -1.4071   45.7505 C   0  0  0  0  0  0  0  0  0  0  0  0
    1.0154   -1.8839   41.2980 C   0  0  0  0  0  0  0  0  0  0  0  0
    2.5720   -3.3564   43.9063 C   0  0  0  0  0  0  0  0  0  0  0  0
    0.2502   -2.8976   41.0751 C   0  0  0  0  0  0  0  0  0  0  0  0
    6.1761   -4.1775   47.0209 C   0  0  0  0  0  0  0  0  0  0  0  0
    1.7266   -3.1047   43.0115 C   0  0  2  0  0  0  0  0  0  0  0  0
    2.3696   -4.5367   44.7536 N   0  0  0  0  0  0  0  0  0  0  0  0
    1.2264   -5.2346   44.4693 C   0  0  0  0  0  0  0  0  0  0  0  0
    0.7187   -3.8955   42.5465 C   0  0  0  0  0  0  0  0  0  0  0  0
    9.4576   -0.8949   46.0327 N   0  0  0  0  0  0  0  0  0  0  0  0
    0.8625   -6.3901   45.2462 C   0  0  0  0  0  0  0  0  0  0  0  0
    7.6467   -2.5139   46.4892 C   0  0  0  0  0  0  0  0  0  0  0  0
   10.4908   -1.5336   45.8242 C   0  0  0  0  0  0  0  0  0  0  0  0
    0.3057   -4.9299   43.2909 C   0  0  0  0  0  0  0  0  0  0  0  0
   11.5916   -1.4291   46.7436 C   0  0  0  0  0  0  0  0  0  0  0  0
   10.5566   -2.3672   44.8649 O   0  0  0  0  0  0  0  0  0  0  0  0
   11.6051   -2.2111   47.7709 N   0  0  0  0  0  0  0  0  0  0  0  0
    2.4805    0.2099   42.8350 O   0  0  0  0  0  0  0  0  0  0  0  0
   11.2530   -1.7460   49.0330 C   0  0  0  0  0  0  0  0  0  0  0  0
   11.7195   -3.6010   47.5822 C   0  0  0  0  0  0  0  0  0  0  0  0
  1  2  2  0
  2  3  1  0
  2  4  1  0
  3  5  1  0
  4  6  2  0
  5  7  1  0
  4  8  1  0
  8  9  2  0
  8 10  1  0
  3 11  1  0
 10 11  2  0
  6 12  1  0
  7 13  2  0
 11 14  1  0
 13 15  1  0
  9 16  1  0
 17  7  1  6
 14 17  1  0
 14 18  2  0
 18 19  1  0
 15 20  2  0
 17 20  1  0
 12 21  1  0
 19 22  1  0
  9 23  1  0
 12 23  2  0
 21 24  1  0
 19 25  2  0
 20 25  1  0
 24 26  1  0
 24 27  2  0
 26 28  1  0
  5 29  1  1
 28 30  1  0
 28 31  1  0
M  END
$$$$
O14757_Pocket2Mol_idx-in-all-generaetd-794
     RDKit          3D

 41 48  0  0  0  0  0  0  0  0999 V2000
    4.8037   -0.1366   42.7100 N   0  0  0  0  0  0  0  0  0  0  0  0
    3.6577   -0.7759   42.7186 C   0  0  0  0  0  0  0  0  0  0  0  0
    3.6660   -1.8665   43.4760 C   0  0  0  0  0  0  0  0  0  0  0  0
    2.7271   -2.8718   43.6599 C   0  0  0  0  0  0  0  0  0  0  0  0
    2.4846   -0.2994   42.1254 N   0  0  0  0  0  0  0  0  0  0  0  0
    5.0524   -1.7697   43.9367 C   0  0  0  0  0  0  0  0  0  0  0  0
    1.4917   -2.9000   43.0914 C   0  0  0  0  0  0  0  0  0  0  0  0
    3.1274   -3.9503   44.5163 C   0  0  0  0  0  0  0  0  0  0  0  0
    1.0744   -1.9066   42.1491 C   0  0  2  0  0  0  0  0  0  0  0  0
    5.6624   -0.7003   43.4895 C   0  0  0  0  0  0  0  0  0  0  0  0
    5.5753   -2.5784   45.0324 C   0  0  0  0  0  0  0  0  0  0  0  0
    0.4030   -3.6297   43.4883 N   0  0  0  0  0  0  0  0  0  0  0  0
    1.5052   -0.8077   41.7519 C   0  0  0  0  0  0  0  0  0  0  0  0
   -0.5645   -3.4039   42.5585 N   0  0  0  0  0  0  0  0  0  0  0  0
    2.5059   -5.1012   44.7935 C   0  0  0  0  0  0  0  0  0  0  0  0
    4.4581   -3.8218   45.2947 C   0  0  0  0  0  0  0  0  0  0  0  0
   -0.3089   -2.3979   41.8128 C   0  0  0  0  0  0  0  0  0  0  0  0
    6.6435   -2.6577   45.6991 C   0  0  0  0  0  0  0  0  0  0  0  0
    7.0869   -3.7008   46.4717 C   0  0  0  0  0  0  0  0  0  0  0  0
    7.5912   -1.5296   45.5455 C   0  0  0  0  0  0  0  0  0  0  0  0
    8.7765   -1.4352   46.2248 C   0  0  0  0  0  0  0  0  0  0  0  0
    6.3069   -4.7944   46.6836 O   0  0  0  0  0  0  0  0  0  0  0  0
    4.8984   -4.5252   46.1302 C   0  0  0  0  0  0  0  0  0  0  0  0
    4.2122   -5.9932   46.2216 C   0  0  0  0  0  0  0  0  0  0  0  0
    8.3395   -3.6608   47.2172 C   0  0  0  0  0  0  0  0  0  0  0  0
    4.6690   -6.8778   47.1549 O   0  0  0  0  0  0  0  0  0  0  0  0
    9.1822   -2.5745   47.1243 C   0  0  0  0  0  0  0  0  0  0  0  0
   10.4419   -2.3733   47.8332 C   0  0  0  0  0  0  0  0  0  0  0  0
   10.5277   -1.5655   48.7043 O   0  0  0  0  0  0  0  0  0  0  0  0
    2.9373   -6.0805   45.7037 C   0  0  0  0  0  0  0  0  0  0  0  0
   11.4886   -2.8791   47.1590 O   0  0  0  0  0  0  0  0  0  0  0  0
   12.5752   -2.3359   47.1530 C   0  0  1  0  0  0  0  0  0  0  0  0
   13.6119   -3.1431   47.5861 C   0  0  0  0  0  0  0  0  0  0  0  0
   14.6644   -3.4220   46.7962 C   0  0  0  0  0  0  0  0  0  0  0  0
   12.9389   -1.8552   45.7477 C   0  0  0  0  0  0  0  0  0  0  0  0
   14.1411   -1.8765   45.1799 C   0  0  0  0  0  0  0  0  0  0  0  0
   14.3971   -1.2248   44.0264 C   0  0  0  0  0  0  0  0  0  0  0  0
   15.7323   -4.3946   47.3537 C   0  0  0  0  0  0  0  0  0  0  0  0
   14.9879   -2.7872   45.6848 C   0  0  0  0  0  0  0  0  0  0  0  0
   13.6015   -0.6480   43.3369 O   0  0  0  0  0  0  0  0  0  0  0  0
   15.6489   -0.9626   43.8038 O   0  0  0  0  0  0  0  0  0  0  0  0
  1  2  2  0
  2  3  1  0
  3  4  2  0
  2  5  1  0
  3  6  1  0
  4  7  1  0
  4  8  1  0
  7  9  1  0
  1 10  1  0
  6 10  1  0
  6 11  2  0
  7 12  2  0
  5 13  2  0
  9 13  1  1
 12 14  1  0
  8 15  2  0
  8 16  1  0
 11 16  1  0
  9 17  1  0
 14 17  2  0
 11 18  1  0
 18 19  2  0
 18 20  1  0
 20 21  2  0
 19 22  1  0
 16 23  2  0
 22 23  1  0
 23 24  1  0
 19 25  1  0
 24 26  1  0
 21 27  1  0
 25 27  2  0
 27 28  1  0
 28 29  2  0
 15 30  1  0
 24 30  2  0
 28 31  1  0
 32 31  1  6
 32 33  1  0
 33 34  2  0
 32 35  1  0
 35 36  1  0
 36 37  1  0
 34 38  1  0
 34 39  1  0
 36 39  2  0
 37 40  1  0
 37 41  2  0
M  END
$$$$
O14757_Pocket2Mol_idx-in-all-generaetd-795
     RDKit          3D

 45 53  0  0  0  0  0  0  0  0999 V2000
    1.5482   -0.3111   41.9233 C   0  0  0  0  0  0  0  0  0  0  0  0
    2.7284    0.2018   42.1525 N   0  0  0  0  0  0  0  0  0  0  0  0
    3.7893   -0.3016   42.7005 C   0  0  0  0  0  0  0  0  0  0  0  0
    3.3781   -1.7350   43.0000 C   0  0  0  0  0  0  0  0  0  0  0  0
    2.0339   -1.9619   42.6217 C   0  0  0  0  0  0  0  0  0  0  0  0
    4.1166   -2.4997   43.8458 C   0  0  0  0  0  0  0  0  0  0  0  0
    1.1731   -3.0051   42.5773 C   0  0  0  0  0  0  0  0  0  0  0  0
    0.4701   -3.2344   41.4901 C   0  0  0  0  0  0  0  0  0  0  0  0
    5.3799   -1.7814   44.2691 C   0  0  0  0  0  0  0  0  0  0  0  0
    5.0159   -0.0180   43.1201 N   0  0  0  0  0  0  0  0  0  0  0  0
    5.7693   -0.6937   43.8418 C   0  0  0  0  0  0  0  0  0  0  0  0
    0.8078   -3.6166   43.6782 C   0  0  0  0  0  0  0  0  0  0  0  0
    0.0663   -4.7011   43.7415 N   0  0  0  0  0  0  0  0  0  0  0  0
    6.2223   -2.6843   45.1565 C   0  0  0  0  0  0  0  0  0  0  0  0
    6.9599   -0.2351   44.2608 N   0  0  0  0  0  0  0  0  0  0  0  0
    5.9065   -3.9037   45.7499 N   0  0  0  0  0  0  0  0  0  0  0  0
   -0.5459   -5.1185   42.5870 C   0  0  0  0  0  0  0  0  0  0  0  0
    5.7480   -4.0340   46.9810 C   0  0  0  0  0  0  0  0  0  0  0  0
    7.4448   -1.8511   45.4198 C   0  0  0  0  0  0  0  0  0  0  0  0
    7.7572   -0.7827   45.0128 C   0  0  0  0  0  0  0  0  0  0  0  0
    8.4076   -2.7217   46.4541 C   0  0  0  0  0  0  0  0  0  0  0  0
    9.3167   -2.0988   47.1049 N   0  0  0  0  0  0  0  0  0  0  0  0
   -0.4719   -4.3893   41.5406 C   0  0  0  0  0  0  0  0  0  0  0  0
    8.3667   -4.0284   46.5743 N   0  0  0  0  0  0  0  0  0  0  0  0
    9.5309   -4.3147   47.3094 C   0  0  0  0  0  0  0  0  0  0  0  0
    5.3113   -3.3789   47.8005 O   0  0  0  0  0  0  0  0  0  0  0  0
    9.9022   -5.6301   47.7684 C   0  0  0  0  0  0  0  0  0  0  0  0
    5.4470   -5.5868   47.2096 C   0  0  0  0  0  0  0  0  0  0  0  0
   11.2254   -5.8679   48.0402 C   0  0  0  0  0  0  0  0  0  0  0  0
    8.9736   -6.6532   47.8548 C   0  0  0  0  0  0  0  0  0  0  0  0
   10.0616   -3.0670   47.6360 C   0  0  0  0  0  0  0  0  0  0  0  0
    7.5566   -6.3564   47.5477 N   0  0  0  0  0  0  0  0  0  0  0  0
   12.3328   -4.8893   47.9268 C   0  0  2  0  0  0  0  0  0  0  0  0
   12.2085   -3.9673   46.9997 C   0  0  0  0  0  0  0  0  0  0  0  0
   11.5720   -2.8294   47.8112 C   0  0  0  0  0  0  0  0  0  0  0  0
   11.5497   -7.1871   48.4172 C   0  0  0  0  0  0  0  0  0  0  0  0
   13.5576   -5.8273   47.6737 C   0  0  0  0  0  0  0  0  0  0  0  0
   10.6555   -8.2234   48.5860 C   0  0  0  0  0  0  0  0  0  0  0  0
    9.3214   -7.9341   48.2947 C   0  0  0  0  0  0  0  0  0  0  0  0
   14.8413   -5.2792   47.8604 C   0  0  0  0  0  0  0  0  0  0  0  0
   13.5763   -6.4127   46.3135 C   0  0  0  0  0  0  0  0  0  0  0  0
   13.2056   -7.0086   48.6405 C   0  0  0  0  0  0  0  0  0  0  0  0
    6.6343   -6.3151   48.5313 C   0  0  0  0  0  0  0  0  0  0  0  0
    5.5080   -6.0004   48.3784 N   0  0  0  0  0  0  0  0  0  0  0  0
    7.1674   -6.4654   49.7574 O   0  0  0  0  0  0  0  0  0  0  0  0
  1  2  1  0
  2  3  2  0
  3  4  1  0
  1  5  2  0
  4  5  1  0
  4  6  2  0
  5  7  1  0
  7  8  2  0
  6  9  1  0
  3 10  1  0
  9 11  2  0
 10 11  1  0
  7 12  1  0
 12 13  2  0
  9 14  1  0
 11 15  1  0
 14 16  1  0
 13 17  1  0
 16 18  1  0
 14 19  2  0
 15 20  2  0
 19 20  1  0
 19 21  1  0
 21 22  2  0
  8 23  1  0
 17 23  2  0
 21 24  1  0
 24 25  1  0
 18 26  2  0
 25 27  1  0
 18 28  1  0
 27 29  2  0
 27 30  1  0
 22 31  1  0
 25 31  2  0
 30 32  1  0
 29 33  1  0
 33 34  1  6
 31 35  1  0
 34 35  1  0
 29 36  1  0
 33 37  1  0
 36 38  2  0
 30 39  2  0
 38 39  1  0
 37 40  1  0
 37 41  1  0
 36 42  1  0
 37 42  1  0
 32 43  1  0
 28 44  1  0
 43 44  1  0
 43 45  2  0
M  END
$$$$
O14757_Pocket2Mol_idx-in-all-generaetd-796
     RDKit          3D

 29 34  0  0  0  0  0  0  0  0999 V2000
    5.3420    0.2589   42.8836 N   0  0  0  0  0  0  0  0  0  0  0  0
    5.6740   -0.8311   43.5645 C   0  0  0  0  0  0  0  0  0  0  0  0
    4.6589   -1.7043   43.6799 C   0  0  0  0  0  0  0  0  0  0  0  0
    3.6286   -1.0900   42.8577 C   0  0  0  0  0  0  0  0  0  0  0  0
    4.0610    0.1743   42.5227 N   0  0  0  0  0  0  0  0  0  0  0  0
    2.2711   -1.4200   42.4728 C   0  0  0  0  0  0  0  0  0  0  0  0
    4.3843   -2.8218   44.3745 C   0  0  0  0  0  0  0  0  0  0  0  0
    1.4505   -0.5265   41.9137 C   0  0  0  0  0  0  0  0  0  0  0  0
    1.9236   -2.8327   42.4366 C   0  0  0  0  0  0  0  0  0  0  0  0
    0.5317   -2.7729   41.9287 C   0  0  0  0  0  0  0  0  0  0  0  0
    6.8587   -1.2119   44.3293 C   0  0  0  0  0  0  0  0  0  0  0  0
    0.2175   -1.3031   41.4860 C   0  0  0  0  0  0  0  0  0  0  0  0
   -0.3459   -3.9057   41.6978 C   0  0  0  0  0  0  0  0  0  0  0  0
    7.8877   -0.5486   44.6088 N   0  0  0  0  0  0  0  0  0  0  0  0
    6.7301   -2.3898   45.2144 C   0  0  0  0  0  0  0  0  0  0  0  0
    5.5335   -3.2051   45.1511 C   0  0  0  0  0  0  0  0  0  0  0  0
    7.9111   -2.4568   45.9191 C   0  0  0  0  0  0  0  0  0  0  0  0
    8.6956   -1.2139   45.6145 C   0  0  0  0  0  0  0  0  0  0  0  0
    8.4387   -3.4065   46.9399 C   0  0  0  0  0  0  0  0  0  0  0  0
    9.6434   -3.2081   47.4488 C   0  0  0  0  0  0  0  0  0  0  0  0
   10.1454   -4.1698   48.4457 C   0  0  0  0  0  0  0  0  0  0  0  0
    9.9571   -1.0853   46.2999 C   0  0  0  0  0  0  0  0  0  0  0  0
   10.3696   -2.0115   47.1904 C   0  0  0  0  0  0  0  0  0  0  0  0
   10.5141   -5.3875   47.9390 N   0  0  0  0  0  0  0  0  0  0  0  0
   11.5759   -5.4913   47.1327 C   0  0  2  0  0  0  0  0  0  0  0  0
   11.4810   -5.3696   45.7723 C   0  0  0  0  0  0  0  0  0  0  0  0
   12.1971   -6.8682   47.0596 C   0  0  0  0  0  0  0  0  0  0  0  0
   12.6840   -7.1292   45.9088 C   0  0  0  0  0  0  0  0  0  0  0  0
   11.9752   -6.2849   44.9683 N   0  0  0  0  0  0  0  0  0  0  0  0
  1  2  2  0
  2  3  1  0
  3  4  2  0
  1  5  1  0
  4  5  1  0
  4  6  1  0
  3  7  1  0
  6  8  2  0
  6  9  1  0
  9 10  2  0
  2 11  1  0
  8 12  1  0
 10 12  1  0
 10 13  1  0
 11 14  1  0
 11 15  2  0
  7 16  2  0
 15 16  1  0
 15 17  1  0
 14 18  1  0
 17 18  2  0
 17 19  1  0
 19 20  2  0
 20 21  1  0
 18 22  1  0
 20 23  1  0
 22 23  2  0
 21 24  1  0
 25 24  1  1
 25 26  1  0
 25 27  1  0
 27 28  1  0
 26 29  1  0
 28 29  1  0
M  END
$$$$
O14757_Pocket2Mol_idx-in-all-generaetd-797
     RDKit          3D

 30 35  0  0  0  0  0  0  0  0999 V2000
    5.3420    0.2589   42.8836 O   0  0  0  0  0  0  0  0  0  0  0  0
    5.1627   -0.7554   43.4753 C   0  0  0  0  0  0  0  0  0  0  0  0
    4.0509   -1.4657   43.4177 N   0  0  0  0  0  0  0  0  0  0  0  0
    5.9969   -1.2317   44.6840 C   0  0  0  0  0  0  0  0  0  0  0  0
    2.9618   -1.1021   42.5918 C   0  0  1  0  0  0  0  0  0  0  0  0
    7.3392   -0.8596   44.8412 C   0  0  0  0  0  0  0  0  0  0  0  0
    1.9754   -2.0820   42.2741 C   0  0  0  0  0  0  0  0  0  0  0  0
    5.5910   -2.4282   45.3439 C   0  0  0  0  0  0  0  0  0  0  0  0
    6.5874   -2.9636   46.1581 C   0  0  0  0  0  0  0  0  0  0  0  0
    4.2763   -3.0680   45.0493 N   0  0  0  0  0  0  0  0  0  0  0  0
    3.6188   -2.5886   44.2024 C   0  0  0  0  0  0  0  0  0  0  0  0
    8.1921   -1.4071   45.7505 C   0  0  0  0  0  0  0  0  0  0  0  0
    1.0154   -1.8839   41.2980 C   0  0  0  0  0  0  0  0  0  0  0  0
    2.5720   -3.3564   43.9063 C   0  0  0  0  0  0  0  0  0  0  0  0
    0.2502   -2.8976   41.0751 C   0  0  0  0  0  0  0  0  0  0  0  0
    6.1761   -4.1775   47.0209 C   0  0  0  0  0  0  0  0  0  0  0  0
    1.7266   -3.1047   43.0115 C   0  0  2  0  0  0  0  0  0  0  0  0
    2.3696   -4.5367   44.7536 N   0  0  0  0  0  0  0  0  0  0  0  0
    1.2264   -5.2346   44.4693 C   0  0  0  0  0  0  0  0  0  0  0  0
    0.7187   -3.8955   42.5465 C   0  0  0  0  0  0  0  0  0  0  0  0
    9.4576   -0.8949   46.0327 N   0  0  0  0  0  0  0  0  0  0  0  0
    2.4628    0.2076   42.7867 C   0  0  0  0  0  0  0  0  0  0  0  0
    0.9064   -6.4149   45.2248 C   0  0  0  0  0  0  0  0  0  0  0  0
    0.3107   -5.0600   43.3630 C   0  0  0  0  0  0  0  0  0  0  0  0
    7.8349   -2.4469   46.4709 C   0  0  0  0  0  0  0  0  0  0  0  0
   10.1474   -1.4478   46.9669 C   0  0  0  0  0  0  0  0  0  0  0  0
    9.6325   -2.5356   47.5734 C   0  0  0  0  0  0  0  0  0  0  0  0
    8.5497   -3.1049   47.3841 N   0  0  0  0  0  0  0  0  0  0  0  0
   10.5179   -3.0826   48.6706 C   0  0  0  0  0  0  0  0  0  0  0  0
   11.3283   -0.8985   47.1334 O   0  0  0  0  0  0  0  0  0  0  0  0
  1  2  2  0
  2  3  1  0
  2  4  1  0
  3  5  1  0
  4  6  2  0
  5  7  1  0
  4  8  1  0
  8  9  2  0
  8 10  1  0
  3 11  1  0
 10 11  2  0
  6 12  1  0
  7 13  2  0
 11 14  1  0
 13 15  1  0
  9 16  1  0
 17  7  1  6
 14 17  1  0
 14 18  2  0
 18 19  1  0
 15 20  2  0
 17 20  1  0
 12 21  1  0
  5 22  1  1
 19 23  1  0
 19 24  2  0
 20 24  1  0
  9 25  1  0
 12 25  2  0
 21 26  1  0
 26 27  1  0
 25 28  1  0
 27 28  2  0
 27 29  1  0
 26 30  2  0
M  END
$$$$
O14757_Pocket2Mol_idx-in-all-generaetd-798
     RDKit          3D

 39 47  0  0  0  0  0  0  0  0999 V2000
    4.8037   -0.1366   42.7100 N   0  0  0  0  0  0  0  0  0  0  0  0
    3.6577   -0.7759   42.7186 C   0  0  0  0  0  0  0  0  0  0  0  0
    3.6660   -1.8665   43.4760 C   0  0  0  0  0  0  0  0  0  0  0  0
    2.7271   -2.8718   43.6599 C   0  0  0  0  0  0  0  0  0  0  0  0
    2.4846   -0.2994   42.1254 N   0  0  0  0  0  0  0  0  0  0  0  0
    5.0524   -1.7697   43.9367 C   0  0  0  0  0  0  0  0  0  0  0  0
    1.4917   -2.9000   43.0914 C   0  0  0  0  0  0  0  0  0  0  0  0
    3.1274   -3.9503   44.5163 C   0  0  0  0  0  0  0  0  0  0  0  0
    1.0744   -1.9066   42.1491 C   0  0  2  0  0  0  0  0  0  0  0  0
    5.6624   -0.7003   43.4895 C   0  0  0  0  0  0  0  0  0  0  0  0
    5.5753   -2.5784   45.0324 C   0  0  0  0  0  0  0  0  0  0  0  0
    0.4030   -3.6297   43.4883 N   0  0  0  0  0  0  0  0  0  0  0  0
    1.5052   -0.8077   41.7519 C   0  0  0  0  0  0  0  0  0  0  0  0
   -0.5645   -3.4039   42.5585 N   0  0  0  0  0  0  0  0  0  0  0  0
    2.5059   -5.1012   44.7935 C   0  0  0  0  0  0  0  0  0  0  0  0
    4.4581   -3.8218   45.2947 C   0  0  0  0  0  0  0  0  0  0  0  0
   -0.3089   -2.3979   41.8128 C   0  0  0  0  0  0  0  0  0  0  0  0
    6.6435   -2.6577   45.6991 C   0  0  0  0  0  0  0  0  0  0  0  0
    7.0869   -3.7008   46.4717 C   0  0  0  0  0  0  0  0  0  0  0  0
    7.5912   -1.5296   45.5455 C   0  0  0  0  0  0  0  0  0  0  0  0
    8.7765   -1.4352   46.2248 C   0  0  0  0  0  0  0  0  0  0  0  0
    6.3069   -4.7944   46.6836 O   0  0  0  0  0  0  0  0  0  0  0  0
    4.8984   -4.5252   46.1302 C   0  0  0  0  0  0  0  0  0  0  0  0
    4.2122   -5.9932   46.2216 C   0  0  0  0  0  0  0  0  0  0  0  0
    3.0046   -6.0549   45.6421 C   0  0  0  0  0  0  0  0  0  0  0  0
    8.2374   -3.8078   47.1146 C   0  0  0  0  0  0  0  0  0  0  0  0
    9.1909   -2.6332   47.0292 C   0  0  0  0  0  0  0  0  0  0  0  0
   10.4575   -2.6198   47.6824 O   0  0  0  0  0  0  0  0  0  0  0  0
   11.4873   -2.2059   46.9341 C   0  0  0  0  0  0  0  0  0  0  0  0
   12.2817   -1.4398   47.4308 O   0  0  0  0  0  0  0  0  0  0  0  0
   13.2946   -1.0299   46.6543 C   0  0  0  0  0  0  0  0  0  0  0  0
   13.0925   -1.0831   45.3218 C   0  0  0  0  0  0  0  0  0  0  0  0
   11.8014   -2.7848   45.6647 C   0  0  0  0  0  0  0  0  0  0  0  0
   12.3675   -2.0988   44.8604 C   0  0  0  0  0  0  0  0  0  0  0  0
   14.1163    0.0513   47.2686 C   0  0  0  0  0  0  0  0  0  0  0  0
   12.4167   -2.3007   43.5176 O   0  0  0  0  0  0  0  0  0  0  0  0
   14.9028    0.6274   46.3987 C   0  0  0  0  0  0  0  0  0  0  0  0
   14.2694   -0.3370   44.5671 C   0  0  0  0  0  0  0  0  0  0  0  0
   14.9942    0.4932   45.0788 C   0  0  0  0  0  0  0  0  0  0  0  0
  1  2  2  0
  2  3  1  0
  3  4  2  0
  2  5  1  0
  3  6  1  0
  4  7  1  0
  4  8  1  0
  7  9  1  0
  1 10  1  0
  6 10  1  0
  6 11  2  0
  7 12  2  0
  5 13  2  0
  9 13  1  1
 12 14  1  0
  8 15  2  0
  8 16  1  0
 11 16  1  0
  9 17  1  0
 14 17  2  0
 11 18  1  0
 18 19  2  0
 18 20  1  0
 20 21  2  0
 19 22  1  0
 16 23  2  0
 22 23  1  0
 23 24  1  0
 15 25  1  0
 24 25  2  0
 19 26  1  0
 21 27  1  0
 26 27  2  0
 27 28  1  0
 28 29  1  0
 29 30  1  0
 30 31  1  0
 31 32  2  0
 29 33  2  0
 32 34  1  0
 33 34  1  0
 31 35  1  0
 34 36  2  0
 35 37  2  0
 32 38  1  0
 37 39  1  0
 38 39  2  0
M  END
$$$$
O14757_Pocket2Mol_idx-in-all-generaetd-799
     RDKit          3D

 45 53  0  0  0  0  0  0  0  0999 V2000
    1.5482   -0.3111   41.9233 C   0  0  0  0  0  0  0  0  0  0  0  0
    2.7284    0.2018   42.1525 N   0  0  0  0  0  0  0  0  0  0  0  0
    3.7893   -0.3016   42.7005 C   0  0  0  0  0  0  0  0  0  0  0  0
    3.3781   -1.7350   43.0000 C   0  0  0  0  0  0  0  0  0  0  0  0
    2.0339   -1.9619   42.6217 C   0  0  0  0  0  0  0  0  0  0  0  0
    5.0090    0.1219   42.9340 N   0  0  0  0  0  0  0  0  0  0  0  0
    4.2895   -2.4979   43.6707 C   0  0  0  0  0  0  0  0  0  0  0  0
    5.8391   -0.6675   43.6343 C   0  0  0  0  0  0  0  0  0  0  0  0
    6.9849   -0.2377   44.0028 N   0  0  0  0  0  0  0  0  0  0  0  0
    4.0426   -3.8794   44.0832 C   0  0  0  0  0  0  0  0  0  0  0  0
    7.6796   -0.8734   44.9326 C   0  0  0  0  0  0  0  0  0  0  0  0
    1.1064   -2.9576   42.4211 C   0  0  0  0  0  0  0  0  0  0  0  0
    5.5298   -1.9496   44.0315 C   0  0  0  0  0  0  0  0  0  0  0  0
    3.8954   -4.1817   45.4718 C   0  0  0  0  0  0  0  0  0  0  0  0
    0.6765   -3.5480   43.4006 C   0  0  1  0  0  0  0  0  0  0  0  0
    0.5804   -3.2191   41.1635 C   0  0  0  0  0  0  0  0  0  0  0  0
    2.8083   -4.8227   45.9203 N   0  0  0  0  0  0  0  0  0  0  0  0
   -0.1574   -4.5754   42.9329 N   0  0  0  0  0  0  0  0  0  0  0  0
    6.5271   -2.5531   44.9677 C   0  0  0  0  0  0  0  0  0  0  0  0
   -0.2272   -4.3703   41.5137 C   0  0  0  0  0  0  0  0  0  0  0  0
    7.5095   -2.0029   45.3993 C   0  0  0  0  0  0  0  0  0  0  0  0
    8.2550   -2.6982   46.3988 C   0  0  0  0  0  0  0  0  0  0  0  0
    8.8975   -0.3029   45.3267 O   0  0  0  0  0  0  0  0  0  0  0  0
    4.8299   -4.4637   46.4212 C   0  0  0  0  0  0  0  0  0  0  0  0
    4.2707   -4.9248   47.6295 N   0  0  0  0  0  0  0  0  0  0  0  0
    3.2045   -5.2092   47.1521 C   0  0  0  0  0  0  0  0  0  0  0  0
    1.4482   -4.6186   45.4134 C   0  0  2  0  0  0  0  0  0  0  0  0
    1.2398   -3.5043   44.6236 O   0  0  0  0  0  0  0  0  0  0  0  0
    6.3317   -3.9297   46.0870 C   0  0  2  0  0  0  0  0  0  0  0  0
    9.5296   -2.5449   46.9776 C   0  0  0  0  0  0  0  0  0  0  0  0
    9.7921   -1.7530   47.9018 O   0  0  0  0  0  0  0  0  0  0  0  0
    7.3972   -3.8130   46.7939 C   0  0  0  0  0  0  0  0  0  0  0  0
   10.4154   -3.4217   46.6883 O   0  0  0  0  0  0  0  0  0  0  0  0
    0.5555   -4.7535   46.5674 C   0  0  0  0  0  0  0  0  0  0  0  0
   11.6497   -3.0596   47.0439 C   0  0  0  0  0  0  0  0  0  0  0  0
   12.3878   -4.1125   47.6990 C   0  0  0  0  0  0  0  0  0  0  0  0
   11.8800   -5.2760   47.5659 O   0  0  0  0  0  0  0  0  0  0  0  0
   12.1402   -1.9273   46.5416 C   0  0  0  0  0  0  0  0  0  0  0  0
   11.8157   -6.1124   48.5967 C   0  0  0  0  0  0  0  0  0  0  0  0
   13.6850   -3.8408   48.0012 C   0  0  0  0  0  0  0  0  0  0  0  0
   13.4241   -1.5206   46.7180 C   0  0  0  0  0  0  0  0  0  0  0  0
   14.0225   -0.3533   46.3530 C   0  0  0  0  0  0  0  0  0  0  0  0
   14.8794   -0.3401   45.4443 O   0  0  0  0  0  0  0  0  0  0  0  0
   14.2435   -2.4538   47.5360 C   0  0  0  0  0  0  0  0  0  0  0  0
   13.3233    0.7361   46.5220 O   0  0  0  0  0  0  0  0  0  0  0  0
  1  2  1  0
  2  3  2  0
  3  4  1  0
  1  5  2  0
  4  5  1  0
  3  6  1  0
  4  7  2  0
  6  8  1  0
  8  9  1  0
  7 10  1  0
  9 11  1  0
  5 12  1  0
  7 13  1  0
  8 13  2  0
 10 14  1  0
 12 15  1  0
 12 16  2  0
 14 17  1  0
 15 18  1  0
 13 19  1  0
 16 20  1  0
 18 20  2  0
 11 21  1  0
 19 21  2  0
 21 22  1  0
 11 23  2  0
 14 24  2  0
 24 25  1  0
 17 26  1  0
 25 26  2  0
 17 27  1  0
 15 28  1  6
 27 28  1  0
 19 29  1  0
 24 29  1  0
 22 30  1  0
 30 31  2  0
 22 32  2  0
 29 32  1  1
 30 33  1  0
 27 34  1  1
 33 35  1  0
 35 36  2  0
 36 37  1  0
 35 38  1  0
 37 39  1  0
 36 40  1  0
 38 41  2  0
 41 42  1  0
 42 43  2  0
 40 44  2  0
 41 44  1  0
 42 45  1  0
M  END
$$$$
O14757_Pocket2Mol_idx-in-all-generaetd-800
     RDKit          3D

 26 30  0  0  0  0  0  0  0  0999 V2000
    1.5482   -0.3111   41.9233 C   0  0  0  0  0  0  0  0  0  0  0  0
    2.7284    0.2018   42.1525 N   0  0  0  0  0  0  0  0  0  0  0  0
    3.7893   -0.3016   42.7005 C   0  0  0  0  0  0  0  0  0  0  0  0
    3.3781   -1.7350   43.0000 C   0  0  0  0  0  0  0  0  0  0  0  0
    2.0339   -1.9619   42.6217 C   0  0  0  0  0  0  0  0  0  0  0  0
    5.0090    0.1219   42.9340 N   0  0  0  0  0  0  0  0  0  0  0  0
    4.2895   -2.4979   43.6707 C   0  0  0  0  0  0  0  0  0  0  0  0
    5.8391   -0.6675   43.6343 C   0  0  0  0  0  0  0  0  0  0  0  0
    6.9849   -0.2377   44.0028 N   0  0  0  0  0  0  0  0  0  0  0  0
    4.0426   -3.8794   44.0832 C   0  0  0  0  0  0  0  0  0  0  0  0
    7.6796   -0.8734   44.9326 C   0  0  0  0  0  0  0  0  0  0  0  0
    1.1064   -2.9576   42.4211 C   0  0  0  0  0  0  0  0  0  0  0  0
    5.5298   -1.9496   44.0315 C   0  0  0  0  0  0  0  0  0  0  0  0
    3.8954   -4.1817   45.4718 C   0  0  0  0  0  0  0  0  0  0  0  0
    0.6765   -3.5480   43.4006 C   0  0  0  0  0  0  0  0  0  0  0  0
    0.5804   -3.2191   41.1635 C   0  0  0  0  0  0  0  0  0  0  0  0
    2.8083   -4.8227   45.9203 N   0  0  0  0  0  0  0  0  0  0  0  0
   -0.2895   -4.3411   41.4783 C   0  0  0  0  0  0  0  0  0  0  0  0
    1.6241   -4.1113   46.2493 C   0  0  0  0  0  0  0  0  0  0  0  0
    6.2863   -2.7050   44.9803 C   0  0  0  0  0  0  0  0  0  0  0  0
    1.0882   -3.7164   44.7216 C   0  0  0  0  0  0  0  0  0  0  0  0
    8.8985   -0.3341   45.3420 O   0  0  0  0  0  0  0  0  0  0  0  0
   -0.2726   -4.5743   42.8227 N   0  0  0  0  0  0  0  0  0  0  0  0
    7.2663   -2.0422   45.6051 C   0  0  0  0  0  0  0  0  0  0  0  0
    7.9115   -2.5947   46.6553 O   0  0  0  0  0  0  0  0  0  0  0  0
    8.6205   -3.8299   46.5017 C   0  0  0  0  0  0  0  0  0  0  0  0
  1  2  1  0
  2  3  2  0
  3  4  1  0
  1  5  2  0
  4  5  1  0
  3  6  1  0
  4  7  2  0
  6  8  1  0
  8  9  1  0
  7 10  1  0
  9 11  1  0
  5 12  1  0
  7 13  1  0
  8 13  2  0
 10 14  1  0
 12 15  1  0
 12 16  2  0
 14 17  1  0
 16 18  1  0
 17 19  1  0
 13 20  1  0
 15 21  2  3
 19 21  1  0
 11 22  2  0
 15 23  1  0
 18 23  2  0
 11 24  1  0
 20 24  2  0
 24 25  1  0
 25 26  1  0
M  END
$$$$
O14757_Pocket2Mol_idx-in-all-generaetd-801
     RDKit          3D

 47 54  0  0  0  0  0  0  0  0999 V2000
    5.3420    0.2589   42.8836 O   0  0  0  0  0  0  0  0  0  0  0  0
    5.1627   -0.7554   43.4753 C   0  0  0  0  0  0  0  0  0  0  0  0
    4.0509   -1.4657   43.4177 N   0  0  0  0  0  0  0  0  0  0  0  0
    5.9969   -1.2317   44.6840 C   0  0  0  0  0  0  0  0  0  0  0  0
    2.9618   -1.1021   42.5918 C   0  0  1  0  0  0  0  0  0  0  0  0
    7.3392   -0.8596   44.8412 C   0  0  0  0  0  0  0  0  0  0  0  0
    1.9754   -2.0820   42.2741 C   0  0  0  0  0  0  0  0  0  0  0  0
    5.5910   -2.4282   45.3439 C   0  0  0  0  0  0  0  0  0  0  0  0
    6.5874   -2.9636   46.1581 C   0  0  0  0  0  0  0  0  0  0  0  0
    4.2763   -3.0680   45.0493 N   0  0  0  0  0  0  0  0  0  0  0  0
    3.6188   -2.5886   44.2024 C   0  0  0  0  0  0  0  0  0  0  0  0
    8.1921   -1.4071   45.7505 C   0  0  0  0  0  0  0  0  0  0  0  0
    1.0154   -1.8839   41.2980 C   0  0  0  0  0  0  0  0  0  0  0  0
    2.5720   -3.3564   43.9063 C   0  0  0  0  0  0  0  0  0  0  0  0
    0.2502   -2.8976   41.0751 C   0  0  0  0  0  0  0  0  0  0  0  0
    6.1761   -4.1775   47.0209 C   0  0  0  0  0  0  0  0  0  0  0  0
    1.7266   -3.1047   43.0115 C   0  0  2  0  0  0  0  0  0  0  0  0
    2.3696   -4.5367   44.7536 N   0  0  0  0  0  0  0  0  0  0  0  0
    1.2264   -5.2346   44.4693 C   0  0  0  0  0  0  0  0  0  0  0  0
    0.7187   -3.8955   42.5465 C   0  0  0  0  0  0  0  0  0  0  0  0
    9.4576   -0.8949   46.0327 N   0  0  0  0  0  0  0  0  0  0  0  0
    0.8625   -6.3901   45.2462 C   0  0  0  0  0  0  0  0  0  0  0  0
    7.6467   -2.5139   46.4892 C   0  0  0  0  0  0  0  0  0  0  0  0
   10.4908   -1.5336   45.8242 C   0  0  0  0  0  0  0  0  0  0  0  0
    0.3057   -4.9299   43.2909 C   0  0  0  0  0  0  0  0  0  0  0  0
   11.5916   -1.4291   46.7436 C   0  0  0  0  0  0  0  0  0  0  0  0
   10.5566   -2.3672   44.8649 O   0  0  0  0  0  0  0  0  0  0  0  0
    2.4730    0.2084   42.8389 O   0  0  0  0  0  0  0  0  0  0  0  0
   11.6027   -2.2081   47.7725 N   0  0  0  0  0  0  0  0  0  0  0  0
   12.6189   -0.5862   46.5415 C   0  0  0  0  0  0  0  0  0  0  0  0
   13.6413   -0.4484   47.4129 C   0  0  0  0  0  0  0  0  0  0  0  0
   10.4764   -3.1097   48.1134 C   0  0  0  0  0  0  0  0  0  0  0  0
    9.5762   -2.4717   49.0753 C   0  0  0  0  0  0  0  0  0  0  0  0
    9.7761   -1.2394   49.5167 C   0  0  0  0  0  0  0  0  0  0  0  0
    8.6397   -3.3252   49.7339 C   0  0  0  0  0  0  0  0  0  0  0  0
    8.9861   -0.7034   50.5819 C   0  0  0  0  0  0  0  0  0  0  0  0
   14.7137    0.5128   47.0925 C   0  0  0  0  0  0  0  0  0  0  0  0
    8.1815   -1.5423   51.2387 C   0  0  0  0  0  0  0  0  0  0  0  0
    8.4156   -4.7176   49.2102 O   0  0  0  0  0  0  0  0  0  0  0  0
   13.6915   -1.2597   48.4795 C   0  0  0  0  0  0  0  0  0  0  0  0
   14.7842   -1.1839   49.3622 C   0  0  0  0  0  0  0  0  0  0  0  0
   15.7412    0.6156   47.9897 C   0  0  0  0  0  0  0  0  0  0  0  0
    7.9465   -2.8417   50.8178 C   0  0  0  0  0  0  0  0  0  0  0  0
   12.6985   -2.2783   48.7736 C   0  0  0  0  0  0  0  0  0  0  0  0
   16.8142    1.5491   47.7884 O   0  0  0  0  0  0  0  0  0  0  0  0
    8.0638   -5.5991   49.9665 C   0  0  0  0  0  0  0  0  0  0  0  0
   15.7948   -0.2200   49.1201 C   0  0  0  0  0  0  0  0  0  0  0  0
  1  2  2  0
  2  3  1  0
  2  4  1  0
  3  5  1  0
  4  6  2  0
  5  7  1  0
  4  8  1  0
  8  9  2  0
  8 10  1  0
  3 11  1  0
 10 11  2  0
  6 12  1  0
  7 13  2  0
 11 14  1  0
 13 15  1  0
  9 16  1  0
 17  7  1  6
 14 17  1  0
 14 18  2  0
 18 19  1  0
 15 20  2  0
 17 20  1  0
 12 21  1  0
 19 22  1  0
  9 23  1  0
 12 23  2  0
 21 24  1  0
 19 25  2  0
 20 25  1  0
 24 26  1  0
 24 27  2  0
  5 28  1  1
 26 29  1  0
 26 30  2  0
 30 31  1  0
 29 32  1  0
 32 33  1  0
 33 34  2  0
 33 35  1  0
 34 36  1  0
 31 37  2  0
 36 38  2  0
 35 39  1  0
 31 40  1  0
 40 41  2  0
 37 42  1  0
 35 43  2  0
 38 43  1  0
 29 44  1  0
 40 44  1  0
 42 45  1  0
 39 46  1  0
 41 47  1  0
 42 47  2  0
M  END
$$$$
O14757_Pocket2Mol_idx-in-all-generaetd-802
     RDKit          3D

 39 46  0  0  0  0  0  0  0  0999 V2000
    1.5482   -0.3111   41.9233 C   0  0  0  0  0  0  0  0  0  0  0  0
    2.7284    0.2018   42.1525 N   0  0  0  0  0  0  0  0  0  0  0  0
    3.7893   -0.3016   42.7005 C   0  0  0  0  0  0  0  0  0  0  0  0
    3.3781   -1.7350   43.0000 C   0  0  0  0  0  0  0  0  0  0  0  0
    2.0339   -1.9619   42.6217 C   0  0  0  0  0  0  0  0  0  0  0  0
    5.0090    0.1219   42.9340 N   0  0  0  0  0  0  0  0  0  0  0  0
    4.2895   -2.4979   43.6707 C   0  0  0  0  0  0  0  0  0  0  0  0
    5.8391   -0.6675   43.6343 C   0  0  0  0  0  0  0  0  0  0  0  0
    6.9849   -0.2377   44.0028 N   0  0  0  0  0  0  0  0  0  0  0  0
    4.0426   -3.8794   44.0832 C   0  0  0  0  0  0  0  0  0  0  0  0
    7.6796   -0.8734   44.9326 C   0  0  0  0  0  0  0  0  0  0  0  0
    1.1064   -2.9576   42.4211 C   0  0  0  0  0  0  0  0  0  0  0  0
    5.5298   -1.9496   44.0315 C   0  0  0  0  0  0  0  0  0  0  0  0
    3.8954   -4.1817   45.4718 C   0  0  0  0  0  0  0  0  0  0  0  0
    0.6765   -3.5480   43.4006 C   0  0  1  0  0  0  0  0  0  0  0  0
    0.5804   -3.2191   41.1635 C   0  0  0  0  0  0  0  0  0  0  0  0
    2.8083   -4.8227   45.9203 N   0  0  0  0  0  0  0  0  0  0  0  0
   -0.1574   -4.5754   42.9329 N   0  0  0  0  0  0  0  0  0  0  0  0
    6.5271   -2.5531   44.9677 C   0  0  0  0  0  0  0  0  0  0  0  0
   -0.2272   -4.3703   41.5137 C   0  0  0  0  0  0  0  0  0  0  0  0
    7.5095   -2.0029   45.3993 C   0  0  0  0  0  0  0  0  0  0  0  0
    8.2550   -2.6982   46.3988 C   0  0  0  0  0  0  0  0  0  0  0  0
    8.8975   -0.3029   45.3267 O   0  0  0  0  0  0  0  0  0  0  0  0
    4.8299   -4.4637   46.4212 C   0  0  0  0  0  0  0  0  0  0  0  0
    4.2707   -4.9248   47.6295 N   0  0  0  0  0  0  0  0  0  0  0  0
    3.2045   -5.2092   47.1521 C   0  0  0  0  0  0  0  0  0  0  0  0
    1.4482   -4.6186   45.4134 C   0  0  1  0  0  0  0  0  0  0  0  0
    1.2398   -3.5043   44.6236 O   0  0  0  0  0  0  0  0  0  0  0  0
    6.3317   -3.9297   46.0870 C   0  0  2  0  0  0  0  0  0  0  0  0
    9.5296   -2.5449   46.9776 C   0  0  0  0  0  0  0  0  0  0  0  0
    9.7921   -1.7530   47.9018 O   0  0  0  0  0  0  0  0  0  0  0  0
    7.3972   -3.8130   46.7939 C   0  0  0  0  0  0  0  0  0  0  0  0
    1.2392   -5.7793   44.5610 C   0  0  0  0  0  0  0  0  0  0  0  0
   10.4934   -3.0755   46.3117 N   0  0  0  0  0  0  0  0  0  0  0  0
   10.3750   -4.1130   45.4302 C   0  0  0  0  0  0  0  0  0  0  0  0
   11.8947   -2.7998   46.7984 C   0  0  0  0  0  0  0  0  0  0  0  0
   12.8362   -2.7998   45.7275 C   0  0  0  0  0  0  0  0  0  0  0  0
   10.5317   -5.4615   45.8572 C   0  0  0  0  0  0  0  0  0  0  0  0
   12.6950   -1.5621   44.9206 O   0  0  0  0  0  0  0  0  0  0  0  0
  1  2  1  0
  2  3  2  0
  3  4  1  0
  1  5  2  0
  4  5  1  0
  3  6  1  0
  4  7  2  0
  6  8  1  0
  8  9  1  0
  7 10  1  0
  9 11  1  0
  5 12  1  0
  7 13  1  0
  8 13  2  0
 10 14  1  0
 12 15  1  0
 12 16  2  0
 14 17  1  0
 15 18  1  0
 13 19  1  0
 16 20  1  0
 18 20  2  0
 11 21  1  0
 19 21  2  0
 21 22  1  0
 11 23  2  0
 14 24  2  0
 24 25  1  0
 17 26  1  0
 25 26  2  0
 17 27  1  0
 15 28  1  6
 27 28  1  0
 19 29  1  0
 24 29  1  0
 22 30  1  0
 30 31  2  0
 22 32  2  0
 29 32  1  1
 27 33  1  6
 30 34  1  0
 34 35  1  0
 34 36  1  0
 36 37  1  0
 35 38  1  0
 37 39  1  0
M  END
$$$$
O14757_Pocket2Mol_idx-in-all-generaetd-803
     RDKit          3D

 48 57  0  0  0  0  0  0  0  0999 V2000
    1.5482   -0.3111   41.9233 C   0  0  0  0  0  0  0  0  0  0  0  0
    2.7284    0.2018   42.1525 N   0  0  0  0  0  0  0  0  0  0  0  0
    3.7893   -0.3016   42.7005 C   0  0  0  0  0  0  0  0  0  0  0  0
    3.3781   -1.7350   43.0000 C   0  0  0  0  0  0  0  0  0  0  0  0
    2.0339   -1.9619   42.6217 C   0  0  0  0  0  0  0  0  0  0  0  0
    5.0090    0.1219   42.9340 N   0  0  0  0  0  0  0  0  0  0  0  0
    4.2895   -2.4979   43.6707 C   0  0  0  0  0  0  0  0  0  0  0  0
    5.8391   -0.6675   43.6343 C   0  0  0  0  0  0  0  0  0  0  0  0
    6.9849   -0.2377   44.0028 N   0  0  0  0  0  0  0  0  0  0  0  0
    4.0426   -3.8794   44.0832 C   0  0  0  0  0  0  0  0  0  0  0  0
    7.6796   -0.8734   44.9326 C   0  0  0  0  0  0  0  0  0  0  0  0
    1.1064   -2.9576   42.4211 C   0  0  0  0  0  0  0  0  0  0  0  0
    5.5298   -1.9496   44.0315 C   0  0  0  0  0  0  0  0  0  0  0  0
    3.8954   -4.1817   45.4718 C   0  0  0  0  0  0  0  0  0  0  0  0
    0.6765   -3.5480   43.4006 C   0  0  1  0  0  0  0  0  0  0  0  0
    0.5804   -3.2191   41.1635 C   0  0  0  0  0  0  0  0  0  0  0  0
    2.8083   -4.8227   45.9203 N   0  0  0  0  0  0  0  0  0  0  0  0
   -0.1574   -4.5754   42.9329 N   0  0  0  0  0  0  0  0  0  0  0  0
    6.5271   -2.5531   44.9677 C   0  0  0  0  0  0  0  0  0  0  0  0
   -0.2272   -4.3703   41.5137 C   0  0  0  0  0  0  0  0  0  0  0  0
    7.5095   -2.0029   45.3993 C   0  0  0  0  0  0  0  0  0  0  0  0
    8.2550   -2.6982   46.3988 C   0  0  0  0  0  0  0  0  0  0  0  0
    8.8975   -0.3029   45.3267 O   0  0  0  0  0  0  0  0  0  0  0  0
    4.8299   -4.4637   46.4212 C   0  0  0  0  0  0  0  0  0  0  0  0
    4.2707   -4.9248   47.6295 N   0  0  0  0  0  0  0  0  0  0  0  0
    3.2045   -5.2092   47.1521 C   0  0  0  0  0  0  0  0  0  0  0  0
    1.4482   -4.6186   45.4134 C   0  0  2  0  0  0  0  0  0  0  0  0
    1.2398   -3.5043   44.6236 O   0  0  0  0  0  0  0  0  0  0  0  0
    6.3317   -3.9297   46.0870 C   0  0  2  0  0  0  0  0  0  0  0  0
    9.5296   -2.5449   46.9776 C   0  0  0  0  0  0  0  0  0  0  0  0
    9.7921   -1.7530   47.9018 O   0  0  0  0  0  0  0  0  0  0  0  0
    7.3972   -3.8130   46.7939 C   0  0  0  0  0  0  0  0  0  0  0  0
   10.4154   -3.4217   46.6883 O   0  0  0  0  0  0  0  0  0  0  0  0
    0.5555   -4.7535   46.5674 C   0  0  0  0  0  0  0  0  0  0  0  0
   11.6497   -3.0596   47.0439 C   0  0  0  0  0  0  0  0  0  0  0  0
   12.3878   -4.1125   47.6990 C   0  0  1  0  0  0  0  0  0  0  0  0
   11.8800   -5.2760   47.5659 O   0  0  0  0  0  0  0  0  0  0  0  0
   12.1402   -1.9273   46.5416 C   0  0  0  0  0  0  0  0  0  0  0  0
   13.7566   -3.9428   47.4635 C   0  0  0  0  0  0  0  0  0  0  0  0
   11.3924   -5.9178   48.7514 C   0  0  0  0  0  0  0  0  0  0  0  0
   14.4126   -2.7430   47.0678 C   0  0  0  0  0  0  0  0  0  0  0  0
   13.4817   -1.7494   46.5455 C   0  0  0  0  0  0  0  0  0  0  0  0
   15.7358   -2.5357   47.0594 C   0  0  1  0  0  0  0  0  0  0  0  0
   14.1460   -0.8459   45.7964 C   0  0  0  0  0  0  0  0  0  0  0  0
   16.5904   -3.5170   47.6347 O   0  0  0  0  0  0  0  0  0  0  0  0
   15.4448   -0.4963   45.8519 C   0  0  0  0  0  0  0  0  0  0  0  0
   16.2789   -1.4108   46.4217 C   0  0  0  0  0  0  0  0  0  0  0  0
   17.6042   -1.1323   46.4917 O   0  0  0  0  0  0  0  0  0  0  0  0
  1  2  1  0
  2  3  2  0
  3  4  1  0
  1  5  2  0
  4  5  1  0
  3  6  1  0
  4  7  2  0
  6  8  1  0
  8  9  1  0
  7 10  1  0
  9 11  1  0
  5 12  1  0
  7 13  1  0
  8 13  2  0
 10 14  1  0
 12 15  1  0
 12 16  2  0
 14 17  1  0
 15 18  1  0
 13 19  1  0
 16 20  1  0
 18 20  2  0
 11 21  1  0
 19 21  2  0
 21 22  1  0
 11 23  2  0
 14 24  2  0
 24 25  1  0
 17 26  1  0
 25 26  2  0
 17 27  1  0
 15 28  1  6
 27 28  1  0
 19 29  1  0
 24 29  1  0
 22 30  1  0
 30 31  2  0
 22 32  2  0
 29 32  1  1
 30 33  1  0
 27 34  1  1
 33 35  1  0
 35 36  1  0
 36 37  1  6
 35 38  2  0
 36 39  1  0
 37 40  1  0
 39 41  2  0
 38 42  1  0
 41 42  1  0
 41 43  1  0
 42 44  2  0
 43 45  1  6
 44 46  1  0
 43 47  1  0
 46 47  1  0
 47 48  2  0
M  END
$$$$
O14757_Pocket2Mol_idx-in-all-generaetd-804
     RDKit          3D

 27 31  0  0  0  0  0  0  0  0999 V2000
    5.3420    0.2589   42.8836 N   0  0  0  0  0  0  0  0  0  0  0  0
    5.6740   -0.8311   43.5645 C   0  0  0  0  0  0  0  0  0  0  0  0
    4.6589   -1.7043   43.6799 C   0  0  0  0  0  0  0  0  0  0  0  0
    3.6286   -1.0900   42.8577 C   0  0  0  0  0  0  0  0  0  0  0  0
    4.0610    0.1743   42.5227 N   0  0  0  0  0  0  0  0  0  0  0  0
    2.2711   -1.4200   42.4728 C   0  0  0  0  0  0  0  0  0  0  0  0
    4.3843   -2.8218   44.3745 C   0  0  0  0  0  0  0  0  0  0  0  0
    1.4505   -0.5265   41.9137 C   0  0  0  0  0  0  0  0  0  0  0  0
    1.9236   -2.8327   42.4366 C   0  0  0  0  0  0  0  0  0  0  0  0
    0.5317   -2.7729   41.9287 C   0  0  0  0  0  0  0  0  0  0  0  0
    6.8587   -1.2119   44.3293 C   0  0  0  0  0  0  0  0  0  0  0  0
    0.2175   -1.3031   41.4860 C   0  0  0  0  0  0  0  0  0  0  0  0
   -0.3459   -3.9057   41.6978 C   0  0  0  0  0  0  0  0  0  0  0  0
    7.8877   -0.5486   44.6088 N   0  0  0  0  0  0  0  0  0  0  0  0
    6.7301   -2.3898   45.2144 C   0  0  0  0  0  0  0  0  0  0  0  0
    5.5335   -3.2051   45.1511 C   0  0  0  0  0  0  0  0  0  0  0  0
    7.9111   -2.4568   45.9191 C   0  0  0  0  0  0  0  0  0  0  0  0
    8.6956   -1.2139   45.6145 C   0  0  0  0  0  0  0  0  0  0  0  0
    8.4387   -3.4065   46.9399 C   0  0  0  0  0  0  0  0  0  0  0  0
    9.6434   -3.2081   47.4488 C   0  0  0  0  0  0  0  0  0  0  0  0
   10.1454   -4.1698   48.4457 C   0  0  0  0  0  0  0  0  0  0  0  0
    9.9571   -1.0853   46.2999 C   0  0  0  0  0  0  0  0  0  0  0  0
   10.3696   -2.0115   47.1904 C   0  0  0  0  0  0  0  0  0  0  0  0
   10.5141   -5.3875   47.9390 N   0  0  0  0  0  0  0  0  0  0  0  0
   11.5759   -5.4913   47.1327 C   0  0  1  0  0  0  0  0  0  0  0  0
   11.4810   -5.3696   45.7723 C   0  0  0  0  0  0  0  0  0  0  0  0
   12.6937   -4.7738   47.5166 O   0  0  0  0  0  0  0  0  0  0  0  0
  1  2  2  0
  2  3  1  0
  3  4  2  0
  1  5  1  0
  4  5  1  0
  4  6  1  0
  3  7  1  0
  6  8  2  0
  6  9  1  0
  9 10  2  0
  2 11  1  0
  8 12  1  0
 10 12  1  0
 10 13  1  0
 11 14  1  0
 11 15  2  0
  7 16  2  0
 15 16  1  0
 15 17  1  0
 14 18  1  0
 17 18  2  0
 17 19  1  0
 19 20  2  0
 20 21  1  0
 18 22  1  0
 20 23  1  0
 22 23  2  0
 21 24  1  0
 24 25  1  0
 25 26  1  6
 25 27  1  0
M  END
$$$$
O14757_Pocket2Mol_idx-in-all-generaetd-805
     RDKit          3D

 28 32  0  0  0  0  0  0  0  0999 V2000
    4.5156    0.0550   42.9895 N   0  0  0  0  0  0  0  0  0  0  0  0
    3.2960    0.1633   42.4470 C   0  0  0  0  0  0  0  0  0  0  0  0
    2.7621   -1.2305   42.4476 C   0  0  0  0  0  0  0  0  0  0  0  0
    5.2005   -0.8099   43.5858 C   0  0  0  0  0  0  0  0  0  0  0  0
    4.4157   -2.0357   43.6745 C   0  0  0  0  0  0  0  0  0  0  0  0
    3.3964   -2.2069   43.1195 C   0  0  0  0  0  0  0  0  0  0  0  0
    2.6107   -3.4636   43.1542 N   0  0  0  0  0  0  0  0  0  0  0  0
    1.4467   -1.2849   41.8335 C   0  0  0  0  0  0  0  0  0  0  0  0
    5.1851   -3.1348   44.4538 N   0  0  0  0  0  0  0  0  0  0  0  0
    6.4172   -0.8203   44.3346 N   0  0  0  0  0  0  0  0  0  0  0  0
    0.8321   -2.5451   41.8394 C   0  0  0  0  0  0  0  0  0  0  0  0
    1.4134   -3.5528   42.5919 C   0  0  0  0  0  0  0  0  0  0  0  0
    6.3428   -2.7074   45.0536 C   0  0  0  0  0  0  0  0  0  0  0  0
    6.8277   -1.4386   44.9522 C   0  0  0  0  0  0  0  0  0  0  0  0
    8.1428   -1.2695   45.6287 C   0  0  0  0  0  0  0  0  0  0  0  0
    6.7295   -3.7948   46.0360 C   0  0  0  0  0  0  0  0  0  0  0  0
    8.0115   -3.5481   46.6450 C   0  0  0  0  0  0  0  0  0  0  0  0
    8.8073   -0.1733   45.6146 O   0  0  0  0  0  0  0  0  0  0  0  0
    8.6405   -2.2670   46.5404 C   0  0  0  0  0  0  0  0  0  0  0  0
    9.8709   -1.9854   47.0853 O   0  0  0  0  0  0  0  0  0  0  0  0
   10.8299   -2.9834   47.0851 C   0  0  0  0  0  0  0  0  0  0  0  0
   11.6360   -2.9547   48.1025 C   0  0  0  0  0  0  0  0  0  0  0  0
   12.7893   -3.6305   47.9979 C   0  0  0  0  0  0  0  0  0  0  0  0
   10.9019   -3.6766   45.9167 C   0  0  0  0  0  0  0  0  0  0  0  0
   12.1398   -4.5059   45.8386 C   0  0  0  0  0  0  0  0  0  0  0  0
   13.0346   -4.4771   46.8720 C   0  0  0  0  0  0  0  0  0  0  0  0
   14.0931   -5.2782   46.7839 O   0  0  0  0  0  0  0  0  0  0  0  0
   15.3022   -4.8478   46.5139 C   0  0  0  0  0  0  0  0  0  0  0  0
  1  2  2  0
  2  3  1  0
  1  4  1  0
  4  5  2  0
  3  6  2  0
  5  6  1  0
  6  7  1  0
  3  8  1  0
  5  9  1  0
  4 10  1  0
  8 11  2  0
  7 12  2  0
 11 12  1  0
  9 13  2  0
 10 14  2  0
 13 14  1  0
 14 15  1  0
 13 16  1  0
 16 17  2  0
 15 18  1  0
 15 19  2  0
 17 19  1  0
 19 20  1  0
 20 21  1  0
 21 22  2  0
 22 23  1  0
 21 24  1  0
 24 25  2  0
 23 26  2  0
 25 26  1  0
 26 27  1  0
 27 28  1  0
M  END
$$$$
O14757_Pocket2Mol_idx-in-all-generaetd-806
     RDKit          3D

 34 41  0  0  0  0  0  0  0  0999 V2000
    4.8173    0.2791   42.6993 N   0  0  0  0  0  0  0  0  0  0  0  0
    5.3297   -0.7477   43.3688 C   0  0  0  0  0  0  0  0  0  0  0  0
    3.4732   -0.2235   42.4530 C   0  0  0  0  0  0  0  0  0  0  0  0
    4.4984   -1.7876   43.6214 C   0  0  0  0  0  0  0  0  0  0  0  0
    3.3438   -1.5190   42.9379 C   0  0  0  0  0  0  0  0  0  0  0  0
    2.1381   -2.3401   42.8254 C   0  0  0  0  0  0  0  0  0  0  0  0
    2.3894    0.3572   41.9843 N   0  0  0  0  0  0  0  0  0  0  0  0
    4.9180   -3.0430   44.3829 C   0  0  0  0  0  0  0  0  0  0  0  0
    5.9444   -2.9314   45.3934 C   0  0  0  0  0  0  0  0  0  0  0  0
    4.2808   -4.1329   44.3252 C   0  0  0  0  0  0  0  0  0  0  0  0
    3.1588   -4.4221   43.4852 O   0  0  0  0  0  0  0  0  0  0  0  0
    4.5704   -5.2518   45.1995 C   0  0  0  0  0  0  0  0  0  0  0  0
    1.9853   -3.6792   43.3495 C   0  0  0  0  0  0  0  0  0  0  0  0
    0.9181   -4.3294   43.4638 C   0  0  0  0  0  0  0  0  0  0  0  0
    6.7403   -1.6226   45.5272 C   0  0  2  0  0  0  0  0  0  0  0  0
    0.9752   -1.7845   42.3366 C   0  0  0  0  0  0  0  0  0  0  0  0
    6.2516   -3.7287   46.2722 C   0  0  0  0  0  0  0  0  0  0  0  0
   -0.2404   -2.4179   42.2529 C   0  0  0  0  0  0  0  0  0  0  0  0
   -1.3835   -1.8904   41.6559 N   0  0  0  0  0  0  0  0  0  0  0  0
    3.8706   -6.4216   45.1394 O   0  0  0  0  0  0  0  0  0  0  0  0
    0.9456   -0.2789   41.7649 C   0  0  0  0  0  0  0  0  0  0  0  0
   -0.2678   -3.6969   42.7575 C   0  0  0  0  0  0  0  0  0  0  0  0
    6.3913   -0.7000   44.3807 N   0  0  0  0  0  0  0  0  0  0  0  0
    7.9391   -1.5867   46.0069 C   0  0  0  0  0  0  0  0  0  0  0  0
    8.7787   -0.4879   45.9761 O   0  0  0  0  0  0  0  0  0  0  0  0
    5.3853   -5.1216   46.3780 C   0  0  0  0  0  0  0  0  0  0  0  0
    8.4504   -2.7517   46.6262 N   0  0  0  0  0  0  0  0  0  0  0  0
    7.4807   -3.7374   47.0380 C   0  0  0  0  0  0  0  0  0  0  0  0
    9.7861   -2.6616   47.2863 C   0  0  0  0  0  0  0  0  0  0  0  0
   10.0358   -3.7697   48.0129 C   0  0  0  0  0  0  0  0  0  0  0  0
   10.0595   -1.3885   48.0325 C   0  0  0  0  0  0  0  0  0  0  0  0
   11.4512   -1.4534   48.4874 C   0  0  0  0  0  0  0  0  0  0  0  0
   11.5060   -3.8622   48.4717 C   0  0  0  0  0  0  0  0  0  0  0  0
   11.7907   -2.6628   49.2554 C   0  0  0  0  0  0  0  0  0  0  0  0
  1  2  2  0
  1  3  1  0
  2  4  1  0
  3  5  1  0
  4  5  2  0
  5  6  1  0
  3  7  2  0
  4  8  1  0
  8  9  1  0
  8 10  2  0
 10 11  1  0
 10 12  1  0
  6 13  1  0
 11 13  1  0
 13 14  2  0
  9 15  1  0
  6 16  2  0
  9 17  2  0
 16 18  1  0
 18 19  1  0
 12 20  1  0
  7 21  1  0
 16 21  1  0
 14 22  1  0
 18 22  2  0
  2 23  1  0
 15 23  1  6
 15 24  1  0
 24 25  2  0
 12 26  2  0
 17 26  1  0
 24 27  1  0
 17 28  1  0
 27 28  1  0
 27 29  1  0
 29 30  1  0
 29 31  1  0
 31 32  1  0
 30 33  1  0
 32 34  1  0
 33 34  1  0
M  END
$$$$
O14757_Pocket2Mol_idx-in-all-generaetd-807
     RDKit          3D

 44 50  0  0  0  0  0  0  0  0999 V2000
    5.3420    0.2589   42.8836 O   0  0  0  0  0  0  0  0  0  0  0  0
    5.1627   -0.7554   43.4753 C   0  0  0  0  0  0  0  0  0  0  0  0
    4.0509   -1.4657   43.4177 N   0  0  0  0  0  0  0  0  0  0  0  0
    5.9969   -1.2317   44.6840 C   0  0  0  0  0  0  0  0  0  0  0  0
    2.9618   -1.1021   42.5918 C   0  0  1  0  0  0  0  0  0  0  0  0
    7.3392   -0.8596   44.8412 C   0  0  0  0  0  0  0  0  0  0  0  0
    1.9754   -2.0820   42.2741 C   0  0  0  0  0  0  0  0  0  0  0  0
    5.5910   -2.4282   45.3439 C   0  0  0  0  0  0  0  0  0  0  0  0
    6.5874   -2.9636   46.1581 C   0  0  0  0  0  0  0  0  0  0  0  0
    4.2763   -3.0680   45.0493 N   0  0  0  0  0  0  0  0  0  0  0  0
    3.6188   -2.5886   44.2024 C   0  0  0  0  0  0  0  0  0  0  0  0
    8.1921   -1.4071   45.7505 C   0  0  0  0  0  0  0  0  0  0  0  0
    1.0154   -1.8839   41.2980 C   0  0  0  0  0  0  0  0  0  0  0  0
    2.5720   -3.3564   43.9063 C   0  0  0  0  0  0  0  0  0  0  0  0
    0.2502   -2.8976   41.0751 C   0  0  0  0  0  0  0  0  0  0  0  0
    6.1761   -4.1775   47.0209 C   0  0  0  0  0  0  0  0  0  0  0  0
    1.7266   -3.1047   43.0115 C   0  0  2  0  0  0  0  0  0  0  0  0
    2.3696   -4.5367   44.7536 N   0  0  0  0  0  0  0  0  0  0  0  0
    1.2264   -5.2346   44.4693 C   0  0  0  0  0  0  0  0  0  0  0  0
    0.7187   -3.8955   42.5465 C   0  0  0  0  0  0  0  0  0  0  0  0
    9.4576   -0.8949   46.0327 N   0  0  0  0  0  0  0  0  0  0  0  0
    0.8625   -6.3901   45.2462 C   0  0  0  0  0  0  0  0  0  0  0  0
    7.6467   -2.5139   46.4892 C   0  0  0  0  0  0  0  0  0  0  0  0
   10.4908   -1.5336   45.8242 C   0  0  0  0  0  0  0  0  0  0  0  0
    0.3057   -4.9299   43.2909 C   0  0  0  0  0  0  0  0  0  0  0  0
   11.5916   -1.4291   46.7436 C   0  0  0  0  0  0  0  0  0  0  0  0
   10.5566   -2.3672   44.8649 O   0  0  0  0  0  0  0  0  0  0  0  0
   12.8421   -1.9355   46.2823 C   0  0  0  0  0  0  0  0  0  0  0  0
   13.4833   -2.8582   46.9841 C   0  0  0  0  0  0  0  0  0  0  0  0
   11.4002   -1.1447   48.0540 C   0  0  0  0  0  0  0  0  0  0  0  0
   10.2867   -0.4569   48.4999 O   0  0  0  0  0  0  0  0  0  0  0  0
   12.3327   -1.4798   48.9564 C   0  0  0  0  0  0  0  0  0  0  0  0
   14.7901   -3.3162   46.6439 C   0  0  0  0  0  0  0  0  0  0  0  0
   12.1651   -1.3050   50.3239 O   0  0  0  0  0  0  0  0  0  0  0  0
   15.6765   -2.5740   46.0979 C   0  0  0  0  0  0  0  0  0  0  0  0
   13.4417   -2.4710   48.5369 C   0  0  0  0  0  0  0  0  0  0  0  0
   15.5553   -1.2853   45.8338 C   0  0  0  0  0  0  0  0  0  0  0  0
    2.4633    0.2112   42.8553 O   0  0  0  0  0  0  0  0  0  0  0  0
   15.3909   -0.8808   44.5119 C   0  0  0  0  0  0  0  0  0  0  0  0
   14.8684    0.3217   44.1996 C   0  0  0  0  0  0  0  0  0  0  0  0
   14.8875    1.3968   45.0496 C   0  0  0  0  0  0  0  0  0  0  0  0
   14.2844    2.6794   44.6658 C   0  0  0  0  0  0  0  0  0  0  0  0
   15.5518   -0.0687   46.6305 C   0  0  0  0  0  0  0  0  0  0  0  0
   15.1809    1.1239   46.3542 C   0  0  0  0  0  0  0  0  0  0  0  0
  1  2  2  0
  2  3  1  0
  2  4  1  0
  3  5  1  0
  4  6  2  0
  5  7  1  0
  4  8  1  0
  8  9  2  0
  8 10  1  0
  3 11  1  0
 10 11  2  0
  6 12  1  0
  7 13  2  0
 11 14  1  0
 13 15  1  0
  9 16  1  0
 17  7  1  6
 14 17  1  0
 14 18  2  0
 18 19  1  0
 15 20  2  0
 17 20  1  0
 12 21  1  0
 19 22  1  0
  9 23  1  0
 12 23  2  0
 21 24  1  0
 19 25  2  0
 20 25  1  0
 24 26  1  0
 24 27  2  0
 26 28  2  0
 28 29  1  0
 26 30  1  0
 30 31  1  0
 30 32  2  0
 29 33  1  0
 32 34  1  0
 33 35  2  3
 29 36  2  0
 32 36  1  0
 35 37  1  0
  5 38  1  1
 37 39  2  0
 39 40  1  0
 40 41  2  0
 41 42  1  0
 37 43  1  0
 41 44  1  0
 43 44  2  0
M  END
$$$$
O14757_Pocket2Mol_idx-in-all-generaetd-808
     RDKit          3D

 41 49  0  0  0  0  0  0  0  0999 V2000
    1.5482   -0.3111   41.9233 C   0  0  0  0  0  0  0  0  0  0  0  0
    2.7284    0.2018   42.1525 N   0  0  0  0  0  0  0  0  0  0  0  0
    3.7893   -0.3016   42.7005 C   0  0  0  0  0  0  0  0  0  0  0  0
    3.3781   -1.7350   43.0000 C   0  0  0  0  0  0  0  0  0  0  0  0
    2.0339   -1.9619   42.6217 C   0  0  0  0  0  0  0  0  0  0  0  0
    5.0090    0.1219   42.9340 N   0  0  0  0  0  0  0  0  0  0  0  0
    4.2895   -2.4979   43.6707 C   0  0  0  0  0  0  0  0  0  0  0  0
    5.8391   -0.6675   43.6343 C   0  0  0  0  0  0  0  0  0  0  0  0
    6.9849   -0.2377   44.0028 N   0  0  0  0  0  0  0  0  0  0  0  0
    4.0426   -3.8794   44.0832 C   0  0  0  0  0  0  0  0  0  0  0  0
    7.6796   -0.8734   44.9326 C   0  0  0  0  0  0  0  0  0  0  0  0
    1.1064   -2.9576   42.4211 C   0  0  0  0  0  0  0  0  0  0  0  0
    5.5298   -1.9496   44.0315 C   0  0  0  0  0  0  0  0  0  0  0  0
    3.8954   -4.1817   45.4718 C   0  0  0  0  0  0  0  0  0  0  0  0
    0.6765   -3.5480   43.4006 C   0  0  1  0  0  0  0  0  0  0  0  0
    0.5804   -3.2191   41.1635 C   0  0  0  0  0  0  0  0  0  0  0  0
    2.8083   -4.8227   45.9203 N   0  0  0  0  0  0  0  0  0  0  0  0
   -0.1574   -4.5754   42.9329 N   0  0  0  0  0  0  0  0  0  0  0  0
    6.5271   -2.5531   44.9677 C   0  0  0  0  0  0  0  0  0  0  0  0
   -0.2272   -4.3703   41.5137 C   0  0  0  0  0  0  0  0  0  0  0  0
    7.5095   -2.0029   45.3993 C   0  0  0  0  0  0  0  0  0  0  0  0
    8.2550   -2.6982   46.3988 C   0  0  0  0  0  0  0  0  0  0  0  0
    8.8975   -0.3029   45.3267 O   0  0  0  0  0  0  0  0  0  0  0  0
    4.8299   -4.4637   46.4212 C   0  0  0  0  0  0  0  0  0  0  0  0
    4.2707   -4.9248   47.6295 N   0  0  0  0  0  0  0  0  0  0  0  0
    3.2045   -5.2092   47.1521 C   0  0  0  0  0  0  0  0  0  0  0  0
    1.4482   -4.6186   45.4134 C   0  0  1  0  0  0  0  0  0  0  0  0
    1.2398   -3.5043   44.6236 O   0  0  0  0  0  0  0  0  0  0  0  0
    6.3317   -3.9297   46.0870 C   0  0  2  0  0  0  0  0  0  0  0  0
    9.5296   -2.5449   46.9776 C   0  0  0  0  0  0  0  0  0  0  0  0
    9.7921   -1.7530   47.9018 O   0  0  0  0  0  0  0  0  0  0  0  0
    7.3972   -3.8130   46.7939 C   0  0  0  0  0  0  0  0  0  0  0  0
    1.2392   -5.7793   44.5610 C   0  0  0  0  0  0  0  0  0  0  0  0
   10.4934   -3.0755   46.3117 O   0  0  0  0  0  0  0  0  0  0  0  0
   11.7815   -2.6102   46.5288 C   0  0  0  0  0  0  0  0  0  0  0  0
   12.3688   -2.2857   45.2615 C   0  0  0  0  0  0  0  0  0  0  0  0
   13.6571   -1.6435   45.3063 C   0  0  0  0  0  0  0  0  0  0  0  0
   14.2956   -1.1724   44.0010 C   0  0  0  0  0  0  0  0  0  0  0  0
   14.2846   -1.4302   46.4743 C   0  0  0  0  0  0  0  0  0  0  0  0
   12.3875   -2.3612   47.6524 C   0  0  0  0  0  0  0  0  0  0  0  0
   13.6753   -1.7681   47.5541 C   0  0  0  0  0  0  0  0  0  0  0  0
  1  2  1  0
  2  3  2  0
  3  4  1  0
  1  5  2  0
  4  5  1  0
  3  6  1  0
  4  7  2  0
  6  8  1  0
  8  9  1  0
  7 10  1  0
  9 11  1  0
  5 12  1  0
  7 13  1  0
  8 13  2  0
 10 14  1  0
 12 15  1  0
 12 16  2  0
 14 17  1  0
 15 18  1  0
 13 19  1  0
 16 20  1  0
 18 20  2  0
 11 21  1  0
 19 21  2  0
 21 22  1  0
 11 23  2  0
 14 24  2  0
 24 25  1  0
 17 26  1  0
 25 26  2  0
 17 27  1  0
 15 28  1  6
 27 28  1  0
 19 29  1  0
 24 29  1  0
 22 30  1  0
 30 31  2  0
 22 32  2  0
 29 32  1  1
 27 33  1  6
 30 34  1  0
 34 35  1  0
 35 36  2  0
 36 37  1  0
 37 38  1  0
 37 39  2  0
 35 40  1  0
 39 41  1  0
 40 41  2  0
M  END
$$$$
O14757_Pocket2Mol_idx-in-all-generaetd-809
     RDKit          3D

 30 36  0  0  0  0  0  0  0  0999 V2000
    4.8173    0.2791   42.6993 N   0  0  0  0  0  0  0  0  0  0  0  0
    5.3297   -0.7477   43.3688 C   0  0  0  0  0  0  0  0  0  0  0  0
    3.4732   -0.2235   42.4530 C   0  0  0  0  0  0  0  0  0  0  0  0
    4.4984   -1.7876   43.6214 C   0  0  0  0  0  0  0  0  0  0  0  0
    3.3438   -1.5190   42.9379 C   0  0  0  0  0  0  0  0  0  0  0  0
    2.1381   -2.3401   42.8254 C   0  0  0  0  0  0  0  0  0  0  0  0
    2.3894    0.3572   41.9843 N   0  0  0  0  0  0  0  0  0  0  0  0
    4.9180   -3.0430   44.3829 C   0  0  0  0  0  0  0  0  0  0  0  0
    5.9444   -2.9314   45.3934 C   0  0  0  0  0  0  0  0  0  0  0  0
    4.2808   -4.1329   44.3252 C   0  0  0  0  0  0  0  0  0  0  0  0
    3.1588   -4.4221   43.4852 O   0  0  0  0  0  0  0  0  0  0  0  0
    4.5704   -5.2518   45.1995 C   0  0  0  0  0  0  0  0  0  0  0  0
    1.9853   -3.6792   43.3495 C   0  0  0  0  0  0  0  0  0  0  0  0
    0.9181   -4.3294   43.4638 C   0  0  0  0  0  0  0  0  0  0  0  0
    6.7403   -1.6226   45.5272 C   0  0  2  0  0  0  0  0  0  0  0  0
    0.9752   -1.7845   42.3366 C   0  0  0  0  0  0  0  0  0  0  0  0
    6.2516   -3.7287   46.2722 C   0  0  0  0  0  0  0  0  0  0  0  0
   -0.2404   -2.4179   42.2529 C   0  0  0  0  0  0  0  0  0  0  0  0
   -1.3835   -1.8904   41.6559 N   0  0  0  0  0  0  0  0  0  0  0  0
    3.8706   -6.4216   45.1394 O   0  0  0  0  0  0  0  0  0  0  0  0
    0.9456   -0.2789   41.7649 C   0  0  0  0  0  0  0  0  0  0  0  0
   -0.2678   -3.6969   42.7575 C   0  0  0  0  0  0  0  0  0  0  0  0
    6.3913   -0.7000   44.3807 N   0  0  0  0  0  0  0  0  0  0  0  0
    7.9391   -1.5867   46.0069 C   0  0  0  0  0  0  0  0  0  0  0  0
    7.1969   -3.5621   47.3287 C   0  0  0  0  0  0  0  0  0  0  0  0
    5.4958   -5.0534   46.2483 C   0  0  0  0  0  0  0  0  0  0  0  0
    8.7816   -0.5869   45.8733 O   0  0  0  0  0  0  0  0  0  0  0  0
    7.5216   -4.5228   48.3075 O   0  0  0  0  0  0  0  0  0  0  0  0
    8.1345   -2.5185   47.1004 C   0  0  0  0  0  0  0  0  0  0  0  0
    9.2865   -2.3751   48.0646 C   0  0  0  0  0  0  0  0  0  0  0  0
  1  2  2  0
  1  3  1  0
  2  4  1  0
  3  5  1  0
  4  5  2  0
  5  6  1  0
  3  7  2  0
  4  8  1  0
  8  9  1  0
  8 10  2  0
 10 11  1  0
 10 12  1  0
  6 13  1  0
 11 13  1  0
 13 14  2  0
  9 15  1  0
  6 16  2  0
  9 17  2  0
 16 18  1  0
 18 19  1  0
 12 20  1  0
  7 21  1  0
 16 21  1  0
 14 22  1  0
 18 22  2  0
  2 23  1  0
 15 23  1  6
 15 24  1  0
 17 25  1  0
 12 26  2  0
 17 26  1  0
 24 27  2  0
 25 28  1  0
 24 29  1  0
 25 29  2  0
 29 30  1  0
M  END
$$$$
O14757_Pocket2Mol_idx-in-all-generaetd-810
     RDKit          3D

 32 36  0  0  0  0  0  0  0  0999 V2000
    4.5156    0.0550   42.9895 N   0  0  0  0  0  0  0  0  0  0  0  0
    5.0618   -0.8645   43.5295 C   0  0  0  0  0  0  0  0  0  0  0  0
    4.4350   -2.0604   43.7783 C   0  0  0  0  0  0  0  0  0  0  0  0
    4.9987   -3.0994   44.5839 C   0  0  0  0  0  0  0  0  0  0  0  0
    3.2714   -1.8664   43.0632 C   0  0  0  0  0  0  0  0  0  0  0  0
    6.4064   -0.5942   44.3204 N   0  0  0  0  0  0  0  0  0  0  0  0
    4.3422   -4.3256   44.7203 C   0  0  0  0  0  0  0  0  0  0  0  0
    2.1845   -2.6668   42.8270 N   0  0  0  0  0  0  0  0  0  0  0  0
    3.3305   -0.5395   42.5465 N   0  0  0  0  0  0  0  0  0  0  0  0
    1.9502   -3.8972   43.4076 C   0  0  0  0  0  0  0  0  0  0  0  0
    2.7156   -4.1184   44.6954 N   0  0  0  0  0  0  0  0  0  0  0  0
    6.8581   -1.5862   45.1101 C   0  0  0  0  0  0  0  0  0  0  0  0
    6.1801   -2.8430   45.2383 C   0  0  0  0  0  0  0  0  0  0  0  0
    2.1454   -5.1901   45.5771 C   0  0  0  0  0  0  0  0  0  0  0  0
    8.0137   -1.3946   45.8526 C   0  0  0  0  0  0  0  0  0  0  0  0
    0.9733   -4.5725   43.2066 O   0  0  0  0  0  0  0  0  0  0  0  0
    2.2437    0.0035   41.8733 C   0  0  0  0  0  0  0  0  0  0  0  0
    1.3210   -2.2077   41.7009 C   0  0  0  0  0  0  0  0  0  0  0  0
    8.6047   -2.2876   46.6923 C   0  0  0  0  0  0  0  0  0  0  0  0
    7.9141   -3.5157   46.8869 C   0  0  0  0  0  0  0  0  0  0  0  0
    1.0501   -0.8658   41.6612 C   0  0  0  0  0  0  0  0  0  0  0  0
    6.7473   -3.8283   46.2372 C   0  0  0  0  0  0  0  0  0  0  0  0
    1.0568   -4.5170   46.3522 C   0  0  0  0  0  0  0  0  0  0  0  0
    9.8008   -2.0643   47.3760 C   0  0  0  0  0  0  0  0  0  0  0  0
   10.9776   -2.0111   46.7028 N   0  0  0  0  0  0  0  0  0  0  0  0
   12.1432   -1.7842   47.1175 C   0  0  0  0  0  0  0  0  0  0  0  0
   12.3798   -1.6931   48.2738 O   0  0  0  0  0  0  0  0  0  0  0  0
   13.1596   -1.3369   46.0563 C   0  0  0  0  0  0  0  0  0  0  0  0
   13.0380   -1.9261   44.9077 O   0  0  0  0  0  0  0  0  0  0  0  0
   14.0553   -0.4546   46.3746 N   0  0  0  0  0  0  0  0  0  0  0  0
   14.1779    0.1233   47.6611 C   0  0  0  0  0  0  0  0  0  0  0  0
   14.5940    0.2945   45.3084 C   0  0  0  0  0  0  0  0  0  0  0  0
  1  2  2  0
  2  3  1  0
  3  4  1  0
  3  5  2  0
  2  6  1  0
  4  7  1  0
  5  8  1  0
  1  9  1  0
  5  9  1  0
  8 10  1  0
  7 11  1  0
 10 11  1  0
  6 12  2  0
  4 13  2  0
 12 13  1  0
 11 14  1  0
 12 15  1  0
 10 16  2  0
  9 17  1  0
  8 18  1  0
 15 19  2  0
 19 20  1  0
 17 21  1  0
 18 21  1  0
 13 22  1  0
 20 22  2  0
 14 23  1  0
 19 24  1  0
 24 25  1  0
 25 26  1  0
 26 27  2  0
 26 28  1  0
 28 29  2  0
 28 30  1  0
 30 31  1  0
 30 32  1  0
M  END
$$$$
O14757_Pocket2Mol_idx-in-all-generaetd-811
     RDKit          3D

 24 27  0  0  0  0  0  0  0  0999 V2000
    5.1775    0.2381   42.7925 N   0  0  0  0  0  0  0  0  0  0  0  0
    3.8485    0.3515   42.4285 N   0  0  0  0  0  0  0  0  0  0  0  0
    5.5201   -0.8216   43.5188 C   0  0  0  0  0  0  0  0  0  0  0  0
    4.5575   -1.7838   43.9113 C   0  0  0  0  0  0  0  0  0  0  0  0
    2.9777   -0.5504   42.6073 C   0  0  0  0  0  0  0  0  0  0  0  0
    4.8521   -2.9209   44.7316 C   0  0  0  0  0  0  0  0  0  0  0  0
    3.2351   -1.5675   43.1903 C   0  0  0  0  0  0  0  0  0  0  0  0
    1.6955   -0.2711   41.8967 C   0  0  0  0  0  0  0  0  0  0  0  0
    0.8864   -1.3663   42.0618 C   0  0  0  0  0  0  0  0  0  0  0  0
    2.3187   -2.7500   43.4543 C   0  0  0  0  0  0  0  0  0  0  0  0
    1.1071   -2.5907   42.7445 C   0  0  0  0  0  0  0  0  0  0  0  0
    6.0979   -2.8249   45.5633 C   0  0  0  0  0  0  0  0  0  0  0  0
    0.0423   -3.6939   42.8205 C   0  0  0  0  0  0  0  0  0  0  0  0
    4.2011   -4.0423   44.9363 C   0  0  0  0  0  0  0  0  0  0  0  0
    4.5424   -5.0339   45.7893 C   0  0  0  0  0  0  0  0  0  0  0  0
   -0.0110   -4.4040   41.6463 N   0  0  0  0  0  0  0  0  0  0  0  0
    2.8431   -3.9954   44.0809 C   0  0  0  0  0  0  0  0  0  0  0  0
    7.0703   -1.6758   45.5388 C   0  0  0  0  0  0  0  0  0  0  0  0
    8.0247   -1.5814   46.7140 C   0  0  0  0  0  0  0  0  0  0  0  0
    9.0826   -0.8566   46.5840 C   0  0  0  0  0  0  0  0  0  0  0  0
   10.0432   -1.4137   45.7942 O   0  0  0  0  0  0  0  0  0  0  0  0
    6.4721   -3.8694   46.3870 C   0  0  0  0  0  0  0  0  0  0  0  0
    3.6695   -6.2300   45.8036 C   0  0  0  0  0  0  0  0  0  0  0  0
    5.4435   -4.9296   46.4580 C   0  0  0  0  0  0  0  0  0  0  0  0
  1  2  2  0
  1  3  1  0
  3  4  2  0
  2  5  1  0
  4  6  1  0
  4  7  1  0
  5  7  2  0
  5  8  1  0
  8  9  2  0
  7 10  1  0
  9 11  1  0
 10 11  2  0
  6 12  2  0
 11 13  1  0
  6 14  1  0
 14 15  2  0
 13 16  1  0
 10 17  1  0
 14 17  1  0
 12 18  1  0
 18 19  1  0
 19 20  1  0
 20 21  1  0
 12 22  1  0
 15 23  1  0
 15 24  1  0
 22 24  2  0
M  END
$$$$
O14757_Pocket2Mol_idx-in-all-generaetd-812
     RDKit          3D

 32 36  0  0  0  0  0  0  0  0999 V2000
    4.5156    0.0550   42.9895 N   0  0  0  0  0  0  0  0  0  0  0  0
    5.0618   -0.8645   43.5295 C   0  0  0  0  0  0  0  0  0  0  0  0
    4.4350   -2.0604   43.7783 C   0  0  0  0  0  0  0  0  0  0  0  0
    4.9987   -3.0994   44.5839 C   0  0  0  0  0  0  0  0  0  0  0  0
    3.2714   -1.8664   43.0632 C   0  0  0  0  0  0  0  0  0  0  0  0
    6.4064   -0.5942   44.3204 N   0  0  0  0  0  0  0  0  0  0  0  0
    4.3422   -4.3256   44.7203 C   0  0  0  0  0  0  0  0  0  0  0  0
    2.1845   -2.6668   42.8270 N   0  0  0  0  0  0  0  0  0  0  0  0
    3.3305   -0.5395   42.5465 N   0  0  0  0  0  0  0  0  0  0  0  0
    1.9502   -3.8972   43.4076 C   0  0  0  0  0  0  0  0  0  0  0  0
    2.7156   -4.1184   44.6954 N   0  0  0  0  0  0  0  0  0  0  0  0
    6.8581   -1.5862   45.1101 C   0  0  0  0  0  0  0  0  0  0  0  0
    6.1801   -2.8430   45.2383 C   0  0  0  0  0  0  0  0  0  0  0  0
    2.1454   -5.1901   45.5771 C   0  0  0  0  0  0  0  0  0  0  0  0
    8.0137   -1.3946   45.8526 C   0  0  0  0  0  0  0  0  0  0  0  0
    0.9733   -4.5725   43.2066 O   0  0  0  0  0  0  0  0  0  0  0  0
    2.2437    0.0035   41.8733 C   0  0  0  0  0  0  0  0  0  0  0  0
    1.3210   -2.2077   41.7009 C   0  0  0  0  0  0  0  0  0  0  0  0
    8.6047   -2.2876   46.6923 C   0  0  0  0  0  0  0  0  0  0  0  0
    7.9141   -3.5157   46.8869 C   0  0  0  0  0  0  0  0  0  0  0  0
    1.0501   -0.8658   41.6612 C   0  0  0  0  0  0  0  0  0  0  0  0
    6.7473   -3.8283   46.2372 C   0  0  0  0  0  0  0  0  0  0  0  0
    1.0568   -4.5170   46.3522 C   0  0  0  0  0  0  0  0  0  0  0  0
    9.8008   -2.0643   47.3760 C   0  0  1  0  0  0  0  0  0  0  0  0
   10.9776   -2.0111   46.7028 N   0  0  0  0  0  0  0  0  0  0  0  0
    9.7265   -1.0699   48.4017 C   0  0  0  0  0  0  0  0  0  0  0  0
   10.8082   -1.3450   49.4995 C   0  0  0  0  0  0  0  0  0  0  0  0
   10.8227   -0.6686   50.4999 O   0  0  0  0  0  0  0  0  0  0  0  0
   11.2700   -2.7396   45.7103 C   0  0  0  0  0  0  0  0  0  0  0  0
   10.7691   -3.8013   45.4776 O   0  0  0  0  0  0  0  0  0  0  0  0
   11.8182   -2.1155   49.1726 O   0  0  0  0  0  0  0  0  0  0  0  0
   12.6454   -2.3453   45.1195 C   0  0  0  0  0  0  0  0  0  0  0  0
  1  2  2  0
  2  3  1  0
  3  4  1  0
  3  5  2  0
  2  6  1  0
  4  7  1  0
  5  8  1  0
  1  9  1  0
  5  9  1  0
  8 10  1  0
  7 11  1  0
 10 11  1  0
  6 12  2  0
  4 13  2  0
 12 13  1  0
 11 14  1  0
 12 15  1  0
 10 16  2  0
  9 17  1  0
  8 18  1  0
 15 19  2  0
 19 20  1  0
 17 21  1  0
 18 21  1  0
 13 22  1  0
 20 22  2  0
 14 23  1  0
 19 24  1  0
 24 25  1  0
 24 26  1  6
 26 27  1  0
 27 28  2  0
 25 29  1  0
 29 30  2  0
 27 31  1  0
 29 32  1  0
M  END
$$$$
O14757_Pocket2Mol_idx-in-all-generaetd-813
     RDKit          3D

 42 50  0  0  0  0  0  0  0  0999 V2000
    1.5482   -0.3111   41.9233 C   0  0  0  0  0  0  0  0  0  0  0  0
    2.7284    0.2018   42.1525 N   0  0  0  0  0  0  0  0  0  0  0  0
    3.7893   -0.3016   42.7005 C   0  0  0  0  0  0  0  0  0  0  0  0
    3.3781   -1.7350   43.0000 C   0  0  0  0  0  0  0  0  0  0  0  0
    2.0339   -1.9619   42.6217 C   0  0  0  0  0  0  0  0  0  0  0  0
    5.0090    0.1219   42.9340 N   0  0  0  0  0  0  0  0  0  0  0  0
    4.2895   -2.4979   43.6707 C   0  0  0  0  0  0  0  0  0  0  0  0
    5.8391   -0.6675   43.6343 C   0  0  0  0  0  0  0  0  0  0  0  0
    6.9849   -0.2377   44.0028 N   0  0  0  0  0  0  0  0  0  0  0  0
    4.0426   -3.8794   44.0832 C   0  0  0  0  0  0  0  0  0  0  0  0
    7.6796   -0.8734   44.9326 C   0  0  0  0  0  0  0  0  0  0  0  0
    1.1064   -2.9576   42.4211 C   0  0  0  0  0  0  0  0  0  0  0  0
    5.5298   -1.9496   44.0315 C   0  0  0  0  0  0  0  0  0  0  0  0
    3.8954   -4.1817   45.4718 C   0  0  0  0  0  0  0  0  0  0  0  0
    0.6765   -3.5480   43.4006 C   0  0  1  0  0  0  0  0  0  0  0  0
    0.5804   -3.2191   41.1635 C   0  0  0  0  0  0  0  0  0  0  0  0
    2.8083   -4.8227   45.9203 N   0  0  0  0  0  0  0  0  0  0  0  0
   -0.1574   -4.5754   42.9329 N   0  0  0  0  0  0  0  0  0  0  0  0
    6.5271   -2.5531   44.9677 C   0  0  0  0  0  0  0  0  0  0  0  0
   -0.2272   -4.3703   41.5137 C   0  0  0  0  0  0  0  0  0  0  0  0
    7.5095   -2.0029   45.3993 C   0  0  0  0  0  0  0  0  0  0  0  0
    8.2550   -2.6982   46.3988 C   0  0  2  0  0  0  0  0  0  0  0  0
    8.8975   -0.3029   45.3267 O   0  0  0  0  0  0  0  0  0  0  0  0
    4.8299   -4.4637   46.4212 C   0  0  0  0  0  0  0  0  0  0  0  0
    4.2707   -4.9248   47.6295 N   0  0  0  0  0  0  0  0  0  0  0  0
    3.2045   -5.2092   47.1521 C   0  0  0  0  0  0  0  0  0  0  0  0
    1.4482   -4.6186   45.4134 C   0  0  2  0  0  0  0  0  0  0  0  0
    1.2398   -3.5043   44.6236 O   0  0  0  0  0  0  0  0  0  0  0  0
    6.3317   -3.9297   46.0870 C   0  0  2  0  0  0  0  0  0  0  0  0
    9.5296   -2.5449   46.9776 C   0  0  0  0  0  0  0  0  0  0  0  0
    9.7921   -1.7530   47.9018 O   0  0  0  0  0  0  0  0  0  0  0  0
    7.4454   -3.8344   46.8035 C   0  0  0  0  0  0  0  0  0  0  0  0
   10.5010   -3.0847   46.3190 O   0  0  0  0  0  0  0  0  0  0  0  0
    0.5569   -4.7693   46.5649 C   0  0  0  0  0  0  0  0  0  0  0  0
   11.7452   -2.8462   46.6234 C   0  0  1  0  0  0  0  0  0  0  0  0
   12.4186   -3.8680   47.1468 C   0  0  1  0  0  0  0  0  0  0  0  0
   11.9026   -5.0270   47.0501 O   0  0  0  0  0  0  0  0  0  0  0  0
   12.4007   -2.3595   45.2496 C   0  0  0  0  0  0  0  0  0  0  0  0
   11.9866   -5.9663   48.0884 C   0  0  0  0  0  0  0  0  0  0  0  0
   13.8038   -3.9309   46.8282 C   0  0  0  0  0  0  0  0  0  0  0  0
   14.5452   -2.7233   46.4062 C   0  0  0  0  0  0  0  0  0  0  0  0
   13.7927   -1.9367   45.3606 C   0  0  0  0  0  0  0  0  0  0  0  0
  1  2  1  0
  2  3  2  0
  3  4  1  0
  1  5  2  0
  4  5  1  0
  3  6  1  0
  4  7  2  0
  6  8  1  0
  8  9  1  0
  7 10  1  0
  9 11  1  0
  5 12  1  0
  7 13  1  0
  8 13  2  0
 10 14  1  0
 12 15  1  0
 12 16  2  0
 14 17  1  0
 15 18  1  0
 13 19  1  0
 16 20  1  0
 18 20  2  0
 11 21  1  0
 19 21  2  0
 21 22  1  0
 11 23  2  0
 14 24  2  0
 24 25  1  0
 17 26  1  0
 25 26  2  0
 17 27  1  0
 15 28  1  6
 27 28  1  0
 19 29  1  0
 24 29  1  0
 22 30  1  6
 30 31  2  0
 22 32  1  0
 29 32  1  1
 30 33  1  0
 27 34  1  1
 35 33  1  6
 35 36  1  0
 36 37  1  6
 35 38  1  0
 37 39  1  0
 36 40  1  0
 40 41  1  0
 38 42  1  0
 41 42  1  0
M  END
$$$$
O14757_Pocket2Mol_idx-in-all-generaetd-814
     RDKit          3D

 35 43  0  0  0  0  0  0  0  0999 V2000
    1.5482   -0.3111   41.9233 C   0  0  0  0  0  0  0  0  0  0  0  0
    2.7284    0.2018   42.1525 N   0  0  0  0  0  0  0  0  0  0  0  0
    3.7893   -0.3016   42.7005 C   0  0  0  0  0  0  0  0  0  0  0  0
    3.3781   -1.7350   43.0000 C   0  0  0  0  0  0  0  0  0  0  0  0
    2.0339   -1.9619   42.6217 C   0  0  0  0  0  0  0  0  0  0  0  0
    5.0090    0.1219   42.9340 N   0  0  0  0  0  0  0  0  0  0  0  0
    4.2895   -2.4979   43.6707 C   0  0  0  0  0  0  0  0  0  0  0  0
    5.8391   -0.6675   43.6343 C   0  0  0  0  0  0  0  0  0  0  0  0
    6.9849   -0.2377   44.0028 N   0  0  0  0  0  0  0  0  0  0  0  0
    4.0426   -3.8794   44.0832 C   0  0  0  0  0  0  0  0  0  0  0  0
    7.6796   -0.8734   44.9326 C   0  0  0  0  0  0  0  0  0  0  0  0
    1.1064   -2.9576   42.4211 C   0  0  0  0  0  0  0  0  0  0  0  0
    5.5298   -1.9496   44.0315 C   0  0  0  0  0  0  0  0  0  0  0  0
    3.8954   -4.1817   45.4718 C   0  0  0  0  0  0  0  0  0  0  0  0
    0.6765   -3.5480   43.4006 C   0  0  1  0  0  0  0  0  0  0  0  0
    0.5804   -3.2191   41.1635 C   0  0  0  0  0  0  0  0  0  0  0  0
    2.8083   -4.8227   45.9203 N   0  0  0  0  0  0  0  0  0  0  0  0
   -0.1574   -4.5754   42.9329 N   0  0  0  0  0  0  0  0  0  0  0  0
    6.5271   -2.5531   44.9677 C   0  0  0  0  0  0  0  0  0  0  0  0
   -0.2272   -4.3703   41.5137 C   0  0  0  0  0  0  0  0  0  0  0  0
    7.5095   -2.0029   45.3993 C   0  0  0  0  0  0  0  0  0  0  0  0
    8.2550   -2.6982   46.3988 C   0  0  0  0  0  0  0  0  0  0  0  0
    8.8975   -0.3029   45.3267 O   0  0  0  0  0  0  0  0  0  0  0  0
    4.8299   -4.4637   46.4212 C   0  0  0  0  0  0  0  0  0  0  0  0
    4.2707   -4.9248   47.6295 N   0  0  0  0  0  0  0  0  0  0  0  0
    3.2045   -5.2092   47.1521 C   0  0  0  0  0  0  0  0  0  0  0  0
    1.4482   -4.6186   45.4134 C   0  0  2  0  0  0  0  0  0  0  0  0
    1.2398   -3.5043   44.6236 O   0  0  0  0  0  0  0  0  0  0  0  0
    7.8521   -3.9584   46.8773 C   0  0  0  0  0  0  0  0  0  0  0  0
    8.4079   -4.7553   47.7407 C   0  0  0  0  0  0  0  0  0  0  0  0
    6.2843   -3.8191   46.0063 C   0  0  2  0  0  0  0  0  0  0  0  0
    9.5033   -2.3185   47.0499 C   0  0  0  0  0  0  0  0  0  0  0  0
    0.5186   -4.7308   46.5738 C   0  0  0  0  0  0  0  0  0  0  0  0
    9.5256   -4.4126   48.2913 C   0  0  0  0  0  0  0  0  0  0  0  0
   10.2021   -3.0970   47.9264 C   0  0  0  0  0  0  0  0  0  0  0  0
  1  2  1  0
  2  3  2  0
  3  4  1  0
  1  5  2  0
  4  5  1  0
  3  6  1  0
  4  7  2  0
  6  8  1  0
  8  9  1  0
  7 10  1  0
  9 11  1  0
  5 12  1  0
  7 13  1  0
  8 13  2  0
 10 14  1  0
 12 15  1  0
 12 16  2  0
 14 17  1  0
 15 18  1  0
 13 19  1  0
 16 20  1  0
 18 20  2  0
 11 21  1  0
 19 21  2  0
 21 22  1  0
 11 23  2  0
 14 24  2  0
 24 25  1  0
 17 26  1  0
 25 26  2  0
 17 27  1  0
 15 28  1  6
 27 28  1  0
 22 29  2  0
 29 30  1  0
 19 31  1  0
 31 24  1  1
 29 31  1  0
 22 32  1  0
 27 33  1  1
 30 34  2  0
 32 35  2  0
 34 35  1  0
M  END
$$$$
O14757_Pocket2Mol_idx-in-all-generaetd-815
     RDKit          3D

 34 38  0  0  0  0  0  0  0  0999 V2000
    5.5575   -0.4055   43.2321 N   0  0  0  0  0  0  0  0  0  0  0  0
    4.5233    0.0727   42.5988 N   0  0  0  0  0  0  0  0  0  0  0  0
    5.1726   -1.5114   43.9314 C   0  0  0  0  0  0  0  0  0  0  0  0
    5.9080   -2.2268   44.9217 C   0  0  0  0  0  0  0  0  0  0  0  0
    5.3635   -3.3861   45.5121 C   0  0  0  0  0  0  0  0  0  0  0  0
    7.1791   -1.7734   45.4544 C   0  0  0  0  0  0  0  0  0  0  0  0
    3.4069   -0.5377   42.5980 C   0  0  0  0  0  0  0  0  0  0  0  0
    2.1839   -0.4257   41.9942 C   0  0  0  0  0  0  0  0  0  0  0  0
    3.7449   -1.7453   43.5024 C   0  0  0  0  0  0  0  0  0  0  0  0
    7.8525   -0.6503   45.0420 O   0  0  0  0  0  0  0  0  0  0  0  0
    7.8789   -2.5576   46.3941 C   0  0  0  0  0  0  0  0  0  0  0  0
    2.8045   -2.7414   43.6928 C   0  0  0  0  0  0  0  0  0  0  0  0
    9.2115   -2.0969   46.8642 C   0  0  0  0  0  0  0  0  0  0  0  0
    4.0793   -3.8977   45.1232 C   0  0  0  0  0  0  0  0  0  0  0  0
    9.4064   -1.6424   47.9232 O   0  0  0  0  0  0  0  0  0  0  0  0
    3.1160   -3.7348   44.5196 N   0  0  0  0  0  0  0  0  0  0  0  0
   10.2271   -2.0181   45.9902 O   0  0  0  0  0  0  0  0  0  0  0  0
    1.5846   -2.6820   43.0143 C   0  0  0  0  0  0  0  0  0  0  0  0
   11.4761   -2.1798   46.4472 C   0  0  0  0  0  0  0  0  0  0  0  0
    1.2997   -1.5506   42.1525 C   0  0  0  0  0  0  0  0  0  0  0  0
    0.5555   -3.6734   43.1531 C   0  0  0  0  0  0  0  0  0  0  0  0
   -0.1252   -4.0680   42.0341 O   0  0  0  0  0  0  0  0  0  0  0  0
    0.3090   -4.1637   44.1784 O   0  0  0  0  0  0  0  0  0  0  0  0
    5.8996   -4.0688   46.5513 C   0  0  0  0  0  0  0  0  0  0  0  0
    7.2191   -3.6737   47.0406 C   0  0  0  0  0  0  0  0  0  0  0  0
   12.4471   -1.3624   45.7994 C   0  0  0  0  0  0  0  0  0  0  0  0
   11.7898   -3.1534   47.3130 C   0  0  0  0  0  0  0  0  0  0  0  0
   10.7906   -4.0871   47.8052 O   0  0  0  0  0  0  0  0  0  0  0  0
   13.1632   -3.4103   47.6838 C   0  0  0  0  0  0  0  0  0  0  0  0
   13.4787   -4.4209   48.6073 O   0  0  0  0  0  0  0  0  0  0  0  0
   13.7823   -1.5721   46.2921 C   0  0  0  0  0  0  0  0  0  0  0  0
   13.7435   -4.1199   49.8268 C   0  0  0  0  0  0  0  0  0  0  0  0
   14.8128   -0.7116   45.6829 O   0  0  0  0  0  0  0  0  0  0  0  0
   14.2127   -2.5407   47.1659 C   0  0  0  0  0  0  0  0  0  0  0  0
  1  2  2  0
  1  3  1  0
  3  4  1  0
  4  5  2  0
  4  6  1  0
  2  7  1  0
  7  8  2  0
  3  9  2  0
  7  9  1  0
  6 10  1  0
  6 11  2  0
  9 12  1  0
 11 13  1  0
  5 14  1  0
 13 15  2  0
 12 16  1  0
 14 16  2  0
 13 17  1  0
 12 18  1  0
 17 19  1  0
  8 20  1  0
 18 20  2  0
 18 21  1  0
 21 22  1  0
 21 23  2  0
  5 24  1  0
 11 25  1  0
 24 25  2  0
 19 26  2  0
 19 27  1  0
 27 28  1  0
 27 29  2  0
 29 30  1  0
 26 31  1  0
 30 32  1  0
 31 33  1  0
 29 34  1  0
 31 34  2  0
M  END
$$$$
O14757_Pocket2Mol_idx-in-all-generaetd-816
     RDKit          3D

 28 31  0  0  0  0  0  0  0  0999 V2000
    5.5575   -0.4055   43.2321 N   0  0  0  0  0  0  0  0  0  0  0  0
    4.5233    0.0727   42.5988 N   0  0  0  0  0  0  0  0  0  0  0  0
    5.1726   -1.5114   43.9314 C   0  0  0  0  0  0  0  0  0  0  0  0
    5.9080   -2.2268   44.9217 C   0  0  0  0  0  0  0  0  0  0  0  0
    5.3635   -3.3861   45.5121 C   0  0  0  0  0  0  0  0  0  0  0  0
    7.1791   -1.7734   45.4544 C   0  0  0  0  0  0  0  0  0  0  0  0
    3.4069   -0.5377   42.5980 C   0  0  0  0  0  0  0  0  0  0  0  0
    2.1839   -0.4257   41.9942 C   0  0  0  0  0  0  0  0  0  0  0  0
    3.7449   -1.7453   43.5024 C   0  0  0  0  0  0  0  0  0  0  0  0
    7.8525   -0.6503   45.0420 O   0  0  0  0  0  0  0  0  0  0  0  0
    7.8789   -2.5576   46.3941 C   0  0  0  0  0  0  0  0  0  0  0  0
    2.8045   -2.7414   43.6928 C   0  0  0  0  0  0  0  0  0  0  0  0
    9.2115   -2.0969   46.8642 C   0  0  0  0  0  0  0  0  0  0  0  0
    4.0793   -3.8977   45.1232 C   0  0  0  0  0  0  0  0  0  0  0  0
    9.4064   -1.6424   47.9232 O   0  0  0  0  0  0  0  0  0  0  0  0
    3.1160   -3.7348   44.5196 N   0  0  0  0  0  0  0  0  0  0  0  0
   10.2271   -2.0181   45.9902 O   0  0  0  0  0  0  0  0  0  0  0  0
    1.5846   -2.6820   43.0143 C   0  0  0  0  0  0  0  0  0  0  0  0
   11.4761   -2.1798   46.4472 C   0  0  0  0  0  0  0  0  0  0  0  0
    7.2409   -3.6513   46.9381 C   0  0  0  0  0  0  0  0  0  0  0  0
    1.2492   -1.5070   42.1695 C   0  0  0  0  0  0  0  0  0  0  0  0
    0.5019   -3.7675   43.1967 C   0  0  0  0  0  0  0  0  0  0  0  0
    6.0495   -4.1366   46.6035 C   0  0  0  0  0  0  0  0  0  0  0  0
   -0.0338   -4.1944   42.0509 O   0  0  0  0  0  0  0  0  0  0  0  0
    0.1450   -4.1044   44.2749 O   0  0  0  0  0  0  0  0  0  0  0  0
   12.4450   -1.3498   45.8065 C   0  0  0  0  0  0  0  0  0  0  0  0
   13.1540   -0.6078   46.5263 O   0  0  0  0  0  0  0  0  0  0  0  0
   12.5608   -1.3138   44.5223 O   0  0  0  0  0  0  0  0  0  0  0  0
  1  2  2  0
  1  3  1  0
  3  4  1  0
  4  5  2  0
  4  6  1  0
  2  7  1  0
  7  8  2  0
  3  9  2  0
  7  9  1  0
  6 10  1  0
  6 11  2  0
  9 12  1  0
 11 13  1  0
  5 14  1  0
 13 15  2  0
 12 16  1  0
 14 16  2  0
 13 17  1  0
 12 18  1  0
 17 19  1  0
 11 20  1  0
  8 21  1  0
 18 21  2  0
 18 22  1  0
  5 23  1  0
 20 23  2  0
 22 24  2  0
 22 25  1  0
 19 26  1  0
 26 27  1  0
 26 28  2  0
M  END
$$$$
O14757_Pocket2Mol_idx-in-all-generaetd-817
     RDKit          3D

 34 39  0  0  0  0  0  0  0  0999 V2000
    1.5482   -0.3111   41.9233 C   0  0  0  0  0  0  0  0  0  0  0  0
    2.7284    0.2018   42.1525 N   0  0  0  0  0  0  0  0  0  0  0  0
    3.7893   -0.3016   42.7005 C   0  0  0  0  0  0  0  0  0  0  0  0
    3.3781   -1.7350   43.0000 C   0  0  0  0  0  0  0  0  0  0  0  0
    2.0339   -1.9619   42.6217 C   0  0  0  0  0  0  0  0  0  0  0  0
    4.1166   -2.4997   43.8458 C   0  0  0  0  0  0  0  0  0  0  0  0
    1.1731   -3.0051   42.5773 C   0  0  0  0  0  0  0  0  0  0  0  0
    0.4701   -3.2344   41.4901 C   0  0  0  0  0  0  0  0  0  0  0  0
    5.3799   -1.7814   44.2691 C   0  0  0  0  0  0  0  0  0  0  0  0
    5.0159   -0.0180   43.1201 N   0  0  0  0  0  0  0  0  0  0  0  0
    5.7693   -0.6937   43.8418 C   0  0  0  0  0  0  0  0  0  0  0  0
    0.8078   -3.6166   43.6782 C   0  0  0  0  0  0  0  0  0  0  0  0
    0.0663   -4.7011   43.7415 N   0  0  0  0  0  0  0  0  0  0  0  0
    6.2223   -2.6843   45.1565 C   0  0  0  0  0  0  0  0  0  0  0  0
    6.9599   -0.2351   44.2608 N   0  0  0  0  0  0  0  0  0  0  0  0
    5.9065   -3.9037   45.7499 N   0  0  0  0  0  0  0  0  0  0  0  0
   -0.5459   -5.1185   42.5870 C   0  0  0  0  0  0  0  0  0  0  0  0
    5.7480   -4.0340   46.9810 C   0  0  0  0  0  0  0  0  0  0  0  0
    7.4448   -1.8511   45.4198 C   0  0  0  0  0  0  0  0  0  0  0  0
    7.7572   -0.7827   45.0128 C   0  0  0  0  0  0  0  0  0  0  0  0
    8.4076   -2.7217   46.4541 C   0  0  0  0  0  0  0  0  0  0  0  0
    9.3167   -2.0988   47.1049 N   0  0  0  0  0  0  0  0  0  0  0  0
   -0.4719   -4.3893   41.5406 C   0  0  0  0  0  0  0  0  0  0  0  0
    8.3667   -4.0284   46.5743 N   0  0  0  0  0  0  0  0  0  0  0  0
    9.5309   -4.3147   47.3094 C   0  0  0  0  0  0  0  0  0  0  0  0
    5.3113   -3.3789   47.8005 O   0  0  0  0  0  0  0  0  0  0  0  0
    9.9022   -5.6301   47.7684 C   0  0  0  0  0  0  0  0  0  0  0  0
    5.4470   -5.5868   47.2096 C   0  0  0  0  0  0  0  0  0  0  0  0
   11.2254   -5.8679   48.0402 C   0  0  0  0  0  0  0  0  0  0  0  0
    8.9736   -6.6532   47.8548 C   0  0  0  0  0  0  0  0  0  0  0  0
   10.0304   -3.0313   47.6499 C   0  0  0  0  0  0  0  0  0  0  0  0
    9.2796   -7.8883   48.2003 C   0  0  0  0  0  0  0  0  0  0  0  0
   11.5958   -6.9956   48.2332 C   0  0  0  0  0  0  0  0  0  0  0  0
   10.6666   -8.2005   48.4454 C   0  0  0  0  0  0  0  0  0  0  0  0
  1  2  1  0
  2  3  2  0
  3  4  1  0
  1  5  2  0
  4  5  1  0
  4  6  2  0
  5  7  1  0
  7  8  2  0
  6  9  1  0
  3 10  1  0
  9 11  2  0
 10 11  1  0
  7 12  1  0
 12 13  2  0
  9 14  1  0
 11 15  1  0
 14 16  1  0
 13 17  1  0
 16 18  1  0
 14 19  2  0
 15 20  2  0
 19 20  1  0
 19 21  1  0
 21 22  2  0
  8 23  1  0
 17 23  2  0
 21 24  1  0
 24 25  1  0
 18 26  2  0
 25 27  1  0
 18 28  1  0
 27 29  2  0
 27 30  1  0
 22 31  1  0
 25 31  2  0
 30 32  2  0
 29 33  1  0
 32 34  1  0
 33 34  2  0
M  END
$$$$
O14757_Pocket2Mol_idx-in-all-generaetd-818
     RDKit          3D

 50 58  0  0  0  0  0  0  0  0999 V2000
    5.3420    0.2589   42.8836 O   0  0  0  0  0  0  0  0  0  0  0  0
    5.1627   -0.7554   43.4753 C   0  0  0  0  0  0  0  0  0  0  0  0
    4.0509   -1.4657   43.4177 N   0  0  0  0  0  0  0  0  0  0  0  0
    5.9969   -1.2317   44.6840 C   0  0  0  0  0  0  0  0  0  0  0  0
    2.9618   -1.1021   42.5918 C   0  0  1  0  0  0  0  0  0  0  0  0
    7.3392   -0.8596   44.8412 C   0  0  0  0  0  0  0  0  0  0  0  0
    1.9754   -2.0820   42.2741 C   0  0  0  0  0  0  0  0  0  0  0  0
    5.5910   -2.4282   45.3439 C   0  0  0  0  0  0  0  0  0  0  0  0
    6.5874   -2.9636   46.1581 C   0  0  0  0  0  0  0  0  0  0  0  0
    4.2763   -3.0680   45.0493 N   0  0  0  0  0  0  0  0  0  0  0  0
    3.6188   -2.5886   44.2024 C   0  0  0  0  0  0  0  0  0  0  0  0
    8.1921   -1.4071   45.7505 C   0  0  0  0  0  0  0  0  0  0  0  0
    1.0154   -1.8839   41.2980 C   0  0  0  0  0  0  0  0  0  0  0  0
    2.5720   -3.3564   43.9063 C   0  0  0  0  0  0  0  0  0  0  0  0
    0.2502   -2.8976   41.0751 C   0  0  0  0  0  0  0  0  0  0  0  0
    6.1761   -4.1775   47.0209 C   0  0  0  0  0  0  0  0  0  0  0  0
    1.7266   -3.1047   43.0115 C   0  0  2  0  0  0  0  0  0  0  0  0
    2.3696   -4.5367   44.7536 N   0  0  0  0  0  0  0  0  0  0  0  0
    1.2264   -5.2346   44.4693 C   0  0  0  0  0  0  0  0  0  0  0  0
    0.7187   -3.8955   42.5465 C   0  0  0  0  0  0  0  0  0  0  0  0
    9.4576   -0.8949   46.0327 N   0  0  0  0  0  0  0  0  0  0  0  0
    0.8625   -6.3901   45.2462 C   0  0  0  0  0  0  0  0  0  0  0  0
    7.6467   -2.5139   46.4892 C   0  0  0  0  0  0  0  0  0  0  0  0
   10.4908   -1.5336   45.8242 C   0  0  0  0  0  0  0  0  0  0  0  0
    0.3057   -4.9299   43.2909 C   0  0  0  0  0  0  0  0  0  0  0  0
   11.5916   -1.4291   46.7436 C   0  0  0  0  0  0  0  0  0  0  0  0
   10.5566   -2.3672   44.8649 O   0  0  0  0  0  0  0  0  0  0  0  0
   12.8421   -1.9355   46.2823 C   0  0  0  0  0  0  0  0  0  0  0  0
   13.4833   -2.8582   46.9841 C   0  0  0  0  0  0  0  0  0  0  0  0
   11.4002   -1.1447   48.0540 C   0  0  0  0  0  0  0  0  0  0  0  0
   10.2867   -0.4569   48.4999 O   0  0  0  0  0  0  0  0  0  0  0  0
   12.3327   -1.4798   48.9564 C   0  0  1  0  0  0  0  0  0  0  0  0
   14.7901   -3.3162   46.6439 C   0  0  0  0  0  0  0  0  0  0  0  0
   12.1651   -1.3050   50.3239 O   0  0  0  0  0  0  0  0  0  0  0  0
   15.6765   -2.5740   46.0979 C   0  0  0  0  0  0  0  0  0  0  0  0
    2.4608    0.2106   42.8512 C   0  0  0  0  0  0  0  0  0  0  0  0
   15.5213   -1.2590   45.7606 C   0  0  0  0  0  0  0  0  0  0  0  0
   14.5349   -0.8899   44.8574 C   0  0  0  0  0  0  0  0  0  0  0  0
   12.9775   -3.3460   48.2127 C   0  0  0  0  0  0  0  0  0  0  0  0
   14.7129   -0.1943   43.8652 C   0  0  0  0  0  0  0  0  0  0  0  0
   13.1163   -1.3789   45.0490 O   0  0  0  0  0  0  0  0  0  0  0  0
   16.0442    0.3600   43.7609 C   0  0  0  0  0  0  0  0  0  0  0  0
   16.1715    1.3518   42.5787 C   0  0  0  0  0  0  0  0  0  0  0  0
   12.7697   -2.7291   49.2346 C   0  0  2  0  0  0  0  0  0  0  0  0
   17.0329    0.1475   44.4838 C   0  0  0  0  0  0  0  0  0  0  0  0
   18.3168    0.7589   44.4037 C   0  0  0  0  0  0  0  0  0  0  0  0
   16.9302   -0.9039   45.4495 C   0  0  0  0  0  0  0  0  0  0  0  0
   18.5113    1.6955   43.3466 C   0  0  0  0  0  0  0  0  0  0  0  0
   17.4254    1.9939   42.5014 C   0  0  0  0  0  0  0  0  0  0  0  0
   12.0982   -3.3246   50.2302 O   0  0  0  0  0  0  0  0  0  0  0  0
  1  2  2  0
  2  3  1  0
  2  4  1  0
  3  5  1  0
  4  6  2  0
  5  7  1  0
  4  8  1  0
  8  9  2  0
  8 10  1  0
  3 11  1  0
 10 11  2  0
  6 12  1  0
  7 13  2  0
 11 14  1  0
 13 15  1  0
  9 16  1  0
 17  7  1  6
 14 17  1  0
 14 18  2  0
 18 19  1  0
 15 20  2  0
 17 20  1  0
 12 21  1  0
 19 22  1  0
  9 23  1  0
 12 23  2  0
 21 24  1  0
 19 25  2  0
 20 25  1  0
 24 26  1  0
 24 27  2  0
 26 28  1  0
 28 29  2  0
 26 30  2  0
 30 31  1  0
 30 32  1  0
 29 33  1  0
 32 34  1  1
 33 35  2  0
  5 36  1  1
 35 37  1  0
 37 38  2  0
 29 39  1  0
 38 40  1  0
 28 41  1  0
 38 41  1  0
 40 42  2  0
 42 43  1  0
 32 44  1  0
 39 44  1  0
 42 45  1  0
 45 46  1  0
 37 47  1  0
 45 47  2  0
 46 48  2  0
 43 49  2  0
 48 49  1  0
 44 50  1  1
M  END
$$$$
O14757_Pocket2Mol_idx-in-all-generaetd-819
     RDKit          3D

 47 56  0  0  0  0  0  0  0  0999 V2000
    1.5482   -0.3111   41.9233 C   0  0  0  0  0  0  0  0  0  0  0  0
    2.7284    0.2018   42.1525 N   0  0  0  0  0  0  0  0  0  0  0  0
    3.7893   -0.3016   42.7005 C   0  0  0  0  0  0  0  0  0  0  0  0
    3.3781   -1.7350   43.0000 C   0  0  0  0  0  0  0  0  0  0  0  0
    2.0339   -1.9619   42.6217 C   0  0  0  0  0  0  0  0  0  0  0  0
    5.0090    0.1219   42.9340 N   0  0  0  0  0  0  0  0  0  0  0  0
    4.2895   -2.4979   43.6707 C   0  0  0  0  0  0  0  0  0  0  0  0
    5.8391   -0.6675   43.6343 C   0  0  0  0  0  0  0  0  0  0  0  0
    6.9849   -0.2377   44.0028 N   0  0  0  0  0  0  0  0  0  0  0  0
    4.0426   -3.8794   44.0832 C   0  0  0  0  0  0  0  0  0  0  0  0
    7.6796   -0.8734   44.9326 C   0  0  0  0  0  0  0  0  0  0  0  0
    1.1064   -2.9576   42.4211 C   0  0  0  0  0  0  0  0  0  0  0  0
    5.5298   -1.9496   44.0315 C   0  0  0  0  0  0  0  0  0  0  0  0
    3.8954   -4.1817   45.4718 C   0  0  0  0  0  0  0  0  0  0  0  0
    0.6765   -3.5480   43.4006 C   0  0  1  0  0  0  0  0  0  0  0  0
    0.5804   -3.2191   41.1635 C   0  0  0  0  0  0  0  0  0  0  0  0
    2.8083   -4.8227   45.9203 N   0  0  0  0  0  0  0  0  0  0  0  0
   -0.1574   -4.5754   42.9329 N   0  0  0  0  0  0  0  0  0  0  0  0
    6.5271   -2.5531   44.9677 C   0  0  0  0  0  0  0  0  0  0  0  0
   -0.2272   -4.3703   41.5137 C   0  0  0  0  0  0  0  0  0  0  0  0
    7.5095   -2.0029   45.3993 C   0  0  0  0  0  0  0  0  0  0  0  0
    8.2550   -2.6982   46.3988 C   0  0  2  0  0  0  0  0  0  0  0  0
    8.8975   -0.3029   45.3267 O   0  0  0  0  0  0  0  0  0  0  0  0
    4.8299   -4.4637   46.4212 C   0  0  0  0  0  0  0  0  0  0  0  0
    4.2707   -4.9248   47.6295 N   0  0  0  0  0  0  0  0  0  0  0  0
    3.2045   -5.2092   47.1521 C   0  0  0  0  0  0  0  0  0  0  0  0
    1.4482   -4.6186   45.4134 C   0  0  2  0  0  0  0  0  0  0  0  0
    1.2398   -3.5043   44.6236 O   0  0  0  0  0  0  0  0  0  0  0  0
    6.3317   -3.9297   46.0870 C   0  0  2  0  0  0  0  0  0  0  0  0
    9.5296   -2.5449   46.9776 C   0  0  0  0  0  0  0  0  0  0  0  0
    9.7921   -1.7530   47.9018 O   0  0  0  0  0  0  0  0  0  0  0  0
    7.4454   -3.8344   46.8035 C   0  0  0  0  0  0  0  0  0  0  0  0
   10.5010   -3.0847   46.3190 O   0  0  0  0  0  0  0  0  0  0  0  0
    0.5569   -4.7693   46.5649 C   0  0  0  0  0  0  0  0  0  0  0  0
   11.7452   -2.8462   46.6234 C   0  0  0  0  0  0  0  0  0  0  0  0
   12.4344   -1.8951   45.7393 C   0  0  0  0  0  0  0  0  0  0  0  0
   12.4612   -3.5429   47.5581 C   0  0  0  0  0  0  0  0  0  0  0  0
   11.7737   -4.5216   48.4115 C   0  0  0  0  0  0  0  0  0  0  0  0
   13.7761   -1.6251   45.9829 C   0  0  0  0  0  0  0  0  0  0  0  0
   13.7909   -3.1787   47.7950 C   0  0  0  0  0  0  0  0  0  0  0  0
   11.6069   -4.2006   49.6507 O   0  0  0  0  0  0  0  0  0  0  0  0
   14.4467   -2.2633   47.0116 C   0  0  0  0  0  0  0  0  0  0  0  0
   11.1106   -5.4205   47.8053 N   0  0  0  0  0  0  0  0  0  0  0  0
   10.4699   -6.4814   48.5939 C   0  0  0  0  0  0  0  0  0  0  0  0
    9.7934   -7.5361   47.6928 C   0  0  0  0  0  0  0  0  0  0  0  0
    9.8458   -7.1267   46.3529 C   0  0  0  0  0  0  0  0  0  0  0  0
   10.9971   -5.9446   46.2489 C   0  0  0  0  0  0  0  0  0  0  0  0
  1  2  1  0
  2  3  2  0
  3  4  1  0
  1  5  2  0
  4  5  1  0
  3  6  1  0
  4  7  2  0
  6  8  1  0
  8  9  1  0
  7 10  1  0
  9 11  1  0
  5 12  1  0
  7 13  1  0
  8 13  2  0
 10 14  1  0
 12 15  1  0
 12 16  2  0
 14 17  1  0
 15 18  1  0
 13 19  1  0
 16 20  1  0
 18 20  2  0
 11 21  1  0
 19 21  2  0
 21 22  1  0
 11 23  2  0
 14 24  2  0
 24 25  1  0
 17 26  1  0
 25 26  2  0
 17 27  1  0
 15 28  1  6
 27 28  1  0
 19 29  1  0
 24 29  1  0
 22 30  1  6
 30 31  2  0
 22 32  1  0
 29 32  1  1
 30 33  1  0
 27 34  1  1
 33 35  1  0
 35 36  2  0
 35 37  1  0
 37 38  1  0
 36 39  1  0
 37 40  2  0
 38 41  2  0
 39 42  2  0
 40 42  1  0
 38 43  1  0
 43 44  1  0
 44 45  1  0
 45 46  1  0
 43 47  1  0
 46 47  1  0
M  END
$$$$
O14757_Pocket2Mol_idx-in-all-generaetd-820
     RDKit          3D

 49 58  0  0  0  0  0  0  0  0999 V2000
    1.5482   -0.3111   41.9233 C   0  0  0  0  0  0  0  0  0  0  0  0
    2.7284    0.2018   42.1525 N   0  0  0  0  0  0  0  0  0  0  0  0
    3.7893   -0.3016   42.7005 C   0  0  0  0  0  0  0  0  0  0  0  0
    3.3781   -1.7350   43.0000 C   0  0  0  0  0  0  0  0  0  0  0  0
    2.0339   -1.9619   42.6217 C   0  0  0  0  0  0  0  0  0  0  0  0
    5.0090    0.1219   42.9340 N   0  0  0  0  0  0  0  0  0  0  0  0
    4.2895   -2.4979   43.6707 C   0  0  0  0  0  0  0  0  0  0  0  0
    5.8391   -0.6675   43.6343 C   0  0  0  0  0  0  0  0  0  0  0  0
    6.9849   -0.2377   44.0028 N   0  0  0  0  0  0  0  0  0  0  0  0
    4.0426   -3.8794   44.0832 C   0  0  0  0  0  0  0  0  0  0  0  0
    7.6796   -0.8734   44.9326 C   0  0  0  0  0  0  0  0  0  0  0  0
    1.1064   -2.9576   42.4211 C   0  0  0  0  0  0  0  0  0  0  0  0
    5.5298   -1.9496   44.0315 C   0  0  0  0  0  0  0  0  0  0  0  0
    3.8954   -4.1817   45.4718 C   0  0  0  0  0  0  0  0  0  0  0  0
    0.6765   -3.5480   43.4006 C   0  0  1  0  0  0  0  0  0  0  0  0
    0.5804   -3.2191   41.1635 C   0  0  0  0  0  0  0  0  0  0  0  0
    2.8083   -4.8227   45.9203 N   0  0  0  0  0  0  0  0  0  0  0  0
   -0.1574   -4.5754   42.9329 N   0  0  0  0  0  0  0  0  0  0  0  0
    6.5271   -2.5531   44.9677 C   0  0  0  0  0  0  0  0  0  0  0  0
   -0.2272   -4.3703   41.5137 C   0  0  0  0  0  0  0  0  0  0  0  0
    7.5095   -2.0029   45.3993 C   0  0  0  0  0  0  0  0  0  0  0  0
    8.2550   -2.6982   46.3988 C   0  0  0  0  0  0  0  0  0  0  0  0
    8.8975   -0.3029   45.3267 O   0  0  0  0  0  0  0  0  0  0  0  0
    4.8299   -4.4637   46.4212 C   0  0  0  0  0  0  0  0  0  0  0  0
    4.2707   -4.9248   47.6295 N   0  0  0  0  0  0  0  0  0  0  0  0
    3.2045   -5.2092   47.1521 C   0  0  0  0  0  0  0  0  0  0  0  0
    1.4482   -4.6186   45.4134 C   0  0  2  0  0  0  0  0  0  0  0  0
    1.2398   -3.5043   44.6236 O   0  0  0  0  0  0  0  0  0  0  0  0
    6.3317   -3.9297   46.0870 C   0  0  2  0  0  0  0  0  0  0  0  0
    9.5296   -2.5449   46.9776 C   0  0  0  0  0  0  0  0  0  0  0  0
    9.7921   -1.7530   47.9018 O   0  0  0  0  0  0  0  0  0  0  0  0
    7.3972   -3.8130   46.7939 C   0  0  0  0  0  0  0  0  0  0  0  0
   10.4154   -3.4217   46.6883 O   0  0  0  0  0  0  0  0  0  0  0  0
    0.5555   -4.7535   46.5674 C   0  0  0  0  0  0  0  0  0  0  0  0
   11.6497   -3.0596   47.0439 C   0  0  0  0  0  0  0  0  0  0  0  0
   12.3878   -4.1125   47.6990 C   0  0  1  0  0  0  0  0  0  0  0  0
   11.8800   -5.2760   47.5659 O   0  0  0  0  0  0  0  0  0  0  0  0
   12.1402   -1.9273   46.5416 C   0  0  0  0  0  0  0  0  0  0  0  0
   13.7566   -3.9428   47.4635 C   0  0  0  0  0  0  0  0  0  0  0  0
   11.3924   -5.9178   48.7514 C   0  0  0  0  0  0  0  0  0  0  0  0
   14.4126   -2.7430   47.0678 C   0  0  0  0  0  0  0  0  0  0  0  0
   13.4817   -1.7494   46.5455 C   0  0  0  0  0  0  0  0  0  0  0  0
   15.7358   -2.5357   47.0594 C   0  0  1  0  0  0  0  0  0  0  0  0
   14.1460   -0.8459   45.7964 C   0  0  0  0  0  0  0  0  0  0  0  0
   16.5904   -3.5170   47.6347 O   0  0  0  0  0  0  0  0  0  0  0  0
   13.2490    0.2931   45.1774 O   0  0  0  0  0  0  0  0  0  0  0  0
   15.4603   -0.5162   45.8145 C   0  0  0  0  0  0  0  0  0  0  0  0
   16.2767   -1.4333   46.3966 C   0  0  0  0  0  0  0  0  0  0  0  0
   17.5930   -1.1726   46.4072 O   0  0  0  0  0  0  0  0  0  0  0  0
  1  2  1  0
  2  3  2  0
  3  4  1  0
  1  5  2  0
  4  5  1  0
  3  6  1  0
  4  7  2  0
  6  8  1  0
  8  9  1  0
  7 10  1  0
  9 11  1  0
  5 12  1  0
  7 13  1  0
  8 13  2  0
 10 14  1  0
 12 15  1  0
 12 16  2  0
 14 17  1  0
 15 18  1  0
 13 19  1  0
 16 20  1  0
 18 20  2  0
 11 21  1  0
 19 21  2  0
 21 22  1  0
 11 23  2  0
 14 24  2  0
 24 25  1  0
 17 26  1  0
 25 26  2  0
 17 27  1  0
 15 28  1  6
 27 28  1  0
 19 29  1  0
 24 29  1  0
 22 30  1  0
 30 31  2  0
 22 32  2  0
 29 32  1  1
 30 33  1  0
 27 34  1  1
 33 35  1  0
 35 36  1  0
 36 37  1  6
 35 38  2  0
 36 39  1  0
 37 40  1  0
 39 41  2  0
 38 42  1  0
 41 42  1  0
 41 43  1  0
 42 44  2  0
 43 45  1  6
 44 46  1  0
 44 47  1  0
 43 48  1  0
 47 48  1  0
 48 49  2  0
M  END
$$$$
O14757_Pocket2Mol_idx-in-all-generaetd-821
     RDKit          3D

 35 43  0  0  0  0  0  0  0  0999 V2000
    1.5482   -0.3111   41.9233 C   0  0  0  0  0  0  0  0  0  0  0  0
    2.7284    0.2018   42.1525 N   0  0  0  0  0  0  0  0  0  0  0  0
    3.7893   -0.3016   42.7005 C   0  0  0  0  0  0  0  0  0  0  0  0
    3.3781   -1.7350   43.0000 C   0  0  0  0  0  0  0  0  0  0  0  0
    2.0339   -1.9619   42.6217 C   0  0  0  0  0  0  0  0  0  0  0  0
    5.0090    0.1219   42.9340 N   0  0  0  0  0  0  0  0  0  0  0  0
    4.2895   -2.4979   43.6707 C   0  0  0  0  0  0  0  0  0  0  0  0
    5.8391   -0.6675   43.6343 C   0  0  0  0  0  0  0  0  0  0  0  0
    6.9849   -0.2377   44.0028 N   0  0  0  0  0  0  0  0  0  0  0  0
    4.0426   -3.8794   44.0832 C   0  0  0  0  0  0  0  0  0  0  0  0
    7.6796   -0.8734   44.9326 C   0  0  0  0  0  0  0  0  0  0  0  0
    1.1064   -2.9576   42.4211 C   0  0  0  0  0  0  0  0  0  0  0  0
    5.5298   -1.9496   44.0315 C   0  0  0  0  0  0  0  0  0  0  0  0
    3.8954   -4.1817   45.4718 C   0  0  0  0  0  0  0  0  0  0  0  0
    0.6765   -3.5480   43.4006 C   0  0  1  0  0  0  0  0  0  0  0  0
    0.5804   -3.2191   41.1635 C   0  0  0  0  0  0  0  0  0  0  0  0
    2.8083   -4.8227   45.9203 N   0  0  0  0  0  0  0  0  0  0  0  0
   -0.1574   -4.5754   42.9329 N   0  0  0  0  0  0  0  0  0  0  0  0
    6.5271   -2.5531   44.9677 C   0  0  0  0  0  0  0  0  0  0  0  0
   -0.2272   -4.3703   41.5137 C   0  0  0  0  0  0  0  0  0  0  0  0
    7.5095   -2.0029   45.3993 C   0  0  0  0  0  0  0  0  0  0  0  0
    8.2550   -2.6982   46.3988 C   0  0  0  0  0  0  0  0  0  0  0  0
    8.8975   -0.3029   45.3267 O   0  0  0  0  0  0  0  0  0  0  0  0
    4.8299   -4.4637   46.4212 C   0  0  0  0  0  0  0  0  0  0  0  0
    4.2707   -4.9248   47.6295 N   0  0  0  0  0  0  0  0  0  0  0  0
    3.2045   -5.2092   47.1521 C   0  0  0  0  0  0  0  0  0  0  0  0
    1.4482   -4.6186   45.4134 C   0  0  2  0  0  0  0  0  0  0  0  0
    1.2398   -3.5043   44.6236 O   0  0  0  0  0  0  0  0  0  0  0  0
    7.8521   -3.9584   46.8773 C   0  0  0  0  0  0  0  0  0  0  0  0
    8.4079   -4.7553   47.7407 C   0  0  0  0  0  0  0  0  0  0  0  0
    6.2843   -3.8191   46.0063 C   0  0  2  0  0  0  0  0  0  0  0  0
    0.5313   -4.7420   46.5885 C   0  0  0  0  0  0  0  0  0  0  0  0
    9.6517   -2.6917   47.0982 C   0  0  1  0  0  0  0  0  0  0  0  0
   10.3945   -1.5317   46.7908 C   0  0  0  0  0  0  0  0  0  0  0  0
    9.6290   -4.1311   48.0144 C   0  0  0  0  0  0  0  0  0  0  0  0
  1  2  1  0
  2  3  2  0
  3  4  1  0
  1  5  2  0
  4  5  1  0
  3  6  1  0
  4  7  2  0
  6  8  1  0
  8  9  1  0
  7 10  1  0
  9 11  1  0
  5 12  1  0
  7 13  1  0
  8 13  2  0
 10 14  1  0
 12 15  1  0
 12 16  2  0
 14 17  1  0
 15 18  1  0
 13 19  1  0
 16 20  1  0
 18 20  2  0
 11 21  1  0
 19 21  2  0
 21 22  1  0
 11 23  2  0
 14 24  2  0
 24 25  1  0
 17 26  1  0
 25 26  2  0
 17 27  1  0
 15 28  1  6
 27 28  1  0
 22 29  2  0
 29 30  1  0
 19 31  1  0
 31 24  1  1
 29 31  1  0
 27 32  1  1
 22 33  1  0
 33 34  1  1
 30 35  1  0
 33 35  1  0
M  END
$$$$
O14757_Pocket2Mol_idx-in-all-generaetd-822
     RDKit          3D

 16 17  0  0  0  0  0  0  0  0999 V2000
    2.2608    0.0351   42.1039 N   0  0  0  0  0  0  0  0  0  0  0  0
    3.2755   -0.7522   42.6076 C   0  0  0  0  0  0  0  0  0  0  0  0
    3.1781   -2.0234   42.9124 N   0  0  0  0  0  0  0  0  0  0  0  0
    4.4469    0.0230   42.8623 N   0  0  0  0  0  0  0  0  0  0  0  0
    4.1755   -2.6132   43.5532 C   0  0  0  0  0  0  0  0  0  0  0  0
    5.4312   -0.5748   43.5352 C   0  0  0  0  0  0  0  0  0  0  0  0
    4.0312   -3.9992   44.0079 C   0  0  0  0  0  0  0  0  0  0  0  0
    5.3152   -1.9091   44.0287 C   0  0  0  0  0  0  0  0  0  0  0  0
    6.2737   -2.4807   44.9117 C   0  0  0  0  0  0  0  0  0  0  0  0
    4.9283   -4.5704   44.9271 C   0  0  0  0  0  0  0  0  0  0  0  0
    6.0141   -3.7162   45.4944 C   0  0  0  0  0  0  0  0  0  0  0  0
    7.3423   -1.6644   45.5071 C   0  0  0  0  0  0  0  0  0  0  0  0
    8.3584   -2.3417   46.1841 C   0  0  0  0  0  0  0  0  0  0  0  0
    9.5035   -1.6584   46.4536 C   0  0  0  0  0  0  0  0  0  0  0  0
   10.3792   -1.3340   45.6314 O   0  0  0  0  0  0  0  0  0  0  0  0
    9.8452   -1.3998   47.7245 O   0  0  0  0  0  0  0  0  0  0  0  0
  1  2  1  0
  2  3  2  0
  2  4  1  0
  3  5  1  0
  4  6  2  0
  5  7  2  0
  5  8  1  0
  6  8  1  0
  8  9  2  0
  7 10  1  0
  9 11  1  0
 10 11  2  0
  9 12  1  0
 12 13  1  0
 13 14  1  0
 14 15  2  0
 14 16  1  0
M  END
$$$$
O14757_Pocket2Mol_idx-in-all-generaetd-823
     RDKit          3D

 30 35  0  0  0  0  0  0  0  0999 V2000
    5.5575   -0.4055   43.2321 N   0  0  0  0  0  0  0  0  0  0  0  0
    5.4916   -1.4617   44.0350 C   0  0  0  0  0  0  0  0  0  0  0  0
    4.3553   -0.1547   42.7099 N   0  0  0  0  0  0  0  0  0  0  0  0
    3.5224   -1.1568   42.9284 C   0  0  0  0  0  0  0  0  0  0  0  0
    2.1507   -1.3006   42.5845 C   0  0  0  0  0  0  0  0  0  0  0  0
    4.2124   -1.9924   43.9667 C   0  0  1  0  0  0  0  0  0  0  0  0
    3.6929   -3.2283   44.3876 C   0  0  0  0  0  0  0  0  0  0  0  0
    6.5651   -2.0426   44.8298 C   0  0  0  0  0  0  0  0  0  0  0  0
    7.6833   -1.2716   45.0970 C   0  0  0  0  0  0  0  0  0  0  0  0
    6.2468   -2.9038   45.8838 C   0  0  0  0  0  0  0  0  0  0  0  0
    1.4576   -2.4785   42.6650 C   0  0  1  0  0  0  0  0  0  0  0  0
    1.5384   -0.1297   42.0802 C   0  0  0  0  0  0  0  0  0  0  0  0
    2.6511   -3.8570   44.0676 C   0  0  0  0  0  0  0  0  0  0  0  0
    1.6090   -3.4980   43.1647 C   0  0  0  0  0  0  0  0  0  0  0  0
    0.6908   -4.5477   43.0875 N   0  0  0  0  0  0  0  0  0  0  0  0
    0.2168   -2.0759   41.9239 C   0  0  0  0  0  0  0  0  0  0  0  0
    7.5356   -3.1085   46.6525 C   0  0  0  0  0  0  0  0  0  0  0  0
    2.4864   -5.1883   44.6960 C   0  0  0  0  0  0  0  0  0  0  0  0
    8.4346   -1.9391   46.2039 N   0  0  0  0  0  0  0  0  0  0  0  0
    9.7431   -1.8109   46.6107 C   0  0  0  0  0  0  0  0  0  0  0  0
    0.2121   -0.5211   41.5014 C   0  0  0  0  0  0  0  0  0  0  0  0
    0.7918   -5.6770   43.8758 C   0  0  0  0  0  0  0  0  0  0  0  0
    7.7909   -3.8448   47.6035 O   0  0  0  0  0  0  0  0  0  0  0  0
   10.7232   -2.0714   45.7430 C   0  0  0  0  0  0  0  0  0  0  0  0
   12.0562   -1.9331   46.1981 C   0  0  0  0  0  0  0  0  0  0  0  0
    9.8833   -1.3737   47.9118 C   0  0  0  0  0  0  0  0  0  0  0  0
   12.2846   -1.5097   47.5339 C   0  0  0  0  0  0  0  0  0  0  0  0
   13.6132   -1.3792   48.0310 O   0  0  0  0  0  0  0  0  0  0  0  0
   11.2082   -1.2593   48.3821 C   0  0  0  0  0  0  0  0  0  0  0  0
   14.5059   -0.8720   47.1950 C   0  0  0  0  0  0  0  0  0  0  0  0
  1  2  2  0
  1  3  1  0
  3  4  2  0
  4  5  1  0
  2  6  1  0
  4  6  1  0
  6  7  1  6
  2  8  1  0
  8  9  1  0
  8 10  2  0
  5 11  1  0
  5 12  2  0
  7 13  2  0
 11 14  1  0
 13 14  1  0
 14 15  2  0
 11 16  1  1
 10 17  1  0
 13 18  1  0
  9 19  1  0
 17 19  1  0
 19 20  1  0
 12 21  1  0
 16 21  2  0
 15 22  1  0
 18 22  2  0
 17 23  2  0
 20 24  2  0
 24 25  1  0
 20 26  1  0
 25 27  2  0
 27 28  1  0
 26 29  2  0
 27 29  1  0
 28 30  1  0
M  END
$$$$
O14757_Pocket2Mol_idx-in-all-generaetd-824
     RDKit          3D

 38 45  0  0  0  0  0  0  0  0999 V2000
    1.5482   -0.3111   41.9233 C   0  0  0  0  0  0  0  0  0  0  0  0
    2.7284    0.2018   42.1525 N   0  0  0  0  0  0  0  0  0  0  0  0
    3.7893   -0.3016   42.7005 C   0  0  0  0  0  0  0  0  0  0  0  0
    3.3781   -1.7350   43.0000 C   0  0  0  0  0  0  0  0  0  0  0  0
    2.0339   -1.9619   42.6217 C   0  0  0  0  0  0  0  0  0  0  0  0
    5.0090    0.1219   42.9340 N   0  0  0  0  0  0  0  0  0  0  0  0
    4.2895   -2.4979   43.6707 C   0  0  0  0  0  0  0  0  0  0  0  0
    5.8391   -0.6675   43.6343 C   0  0  0  0  0  0  0  0  0  0  0  0
    6.9849   -0.2377   44.0028 N   0  0  0  0  0  0  0  0  0  0  0  0
    4.0426   -3.8794   44.0832 C   0  0  0  0  0  0  0  0  0  0  0  0
    7.6796   -0.8734   44.9326 C   0  0  0  0  0  0  0  0  0  0  0  0
    1.1064   -2.9576   42.4211 C   0  0  0  0  0  0  0  0  0  0  0  0
    5.5298   -1.9496   44.0315 C   0  0  0  0  0  0  0  0  0  0  0  0
    3.8954   -4.1817   45.4718 C   0  0  0  0  0  0  0  0  0  0  0  0
    0.6765   -3.5480   43.4006 C   0  0  1  0  0  0  0  0  0  0  0  0
    0.5804   -3.2191   41.1635 C   0  0  0  0  0  0  0  0  0  0  0  0
    2.8083   -4.8227   45.9203 N   0  0  0  0  0  0  0  0  0  0  0  0
   -0.1574   -4.5754   42.9329 N   0  0  0  0  0  0  0  0  0  0  0  0
    6.5271   -2.5531   44.9677 C   0  0  0  0  0  0  0  0  0  0  0  0
   -0.2272   -4.3703   41.5137 C   0  0  0  0  0  0  0  0  0  0  0  0
    7.5095   -2.0029   45.3993 C   0  0  0  0  0  0  0  0  0  0  0  0
    8.2550   -2.6982   46.3988 C   0  0  2  0  0  0  0  0  0  0  0  0
    8.8975   -0.3029   45.3267 O   0  0  0  0  0  0  0  0  0  0  0  0
    4.8299   -4.4637   46.4212 C   0  0  0  0  0  0  0  0  0  0  0  0
    4.2707   -4.9248   47.6295 N   0  0  0  0  0  0  0  0  0  0  0  0
    3.2045   -5.2092   47.1521 C   0  0  0  0  0  0  0  0  0  0  0  0
    1.4482   -4.6186   45.4134 C   0  0  2  0  0  0  0  0  0  0  0  0
    1.2398   -3.5043   44.6236 O   0  0  0  0  0  0  0  0  0  0  0  0
    6.3317   -3.9297   46.0870 C   0  0  2  0  0  0  0  0  0  0  0  0
    9.5296   -2.5449   46.9776 C   0  0  0  0  0  0  0  0  0  0  0  0
    9.7921   -1.7530   47.9018 O   0  0  0  0  0  0  0  0  0  0  0  0
    7.4454   -3.8344   46.8035 C   0  0  0  0  0  0  0  0  0  0  0  0
   10.5010   -3.0847   46.3190 O   0  0  0  0  0  0  0  0  0  0  0  0
    0.5569   -4.7693   46.5649 C   0  0  0  0  0  0  0  0  0  0  0  0
   11.7452   -2.8462   46.6234 C   0  0  0  0  0  0  0  0  0  0  0  0
   12.4344   -1.8951   45.7393 C   0  0  0  0  0  0  0  0  0  0  0  0
   12.0807   -1.7648   44.6488 O   0  0  0  0  0  0  0  0  0  0  0  0
   13.3957   -1.1401   46.1897 O   0  0  0  0  0  0  0  0  0  0  0  0
  1  2  1  0
  2  3  2  0
  3  4  1  0
  1  5  2  0
  4  5  1  0
  3  6  1  0
  4  7  2  0
  6  8  1  0
  8  9  1  0
  7 10  1  0
  9 11  1  0
  5 12  1  0
  7 13  1  0
  8 13  2  0
 10 14  1  0
 12 15  1  0
 12 16  2  0
 14 17  1  0
 15 18  1  0
 13 19  1  0
 16 20  1  0
 18 20  2  0
 11 21  1  0
 19 21  2  0
 21 22  1  0
 11 23  2  0
 14 24  2  0
 24 25  1  0
 17 26  1  0
 25 26  2  0
 17 27  1  0
 15 28  1  6
 27 28  1  0
 19 29  1  0
 24 29  1  0
 22 30  1  6
 30 31  2  0
 22 32  1  0
 29 32  1  1
 30 33  1  0
 27 34  1  1
 33 35  1  0
 35 36  1  0
 36 37  2  0
 36 38  1  0
M  END
$$$$
O14757_Pocket2Mol_idx-in-all-generaetd-825
     RDKit          3D

 48 55  0  0  0  0  0  0  0  0999 V2000
    5.3420    0.2589   42.8836 O   0  0  0  0  0  0  0  0  0  0  0  0
    5.1627   -0.7554   43.4753 C   0  0  0  0  0  0  0  0  0  0  0  0
    4.0509   -1.4657   43.4177 N   0  0  0  0  0  0  0  0  0  0  0  0
    5.9969   -1.2317   44.6840 C   0  0  0  0  0  0  0  0  0  0  0  0
    2.9618   -1.1021   42.5918 C   0  0  1  0  0  0  0  0  0  0  0  0
    7.3392   -0.8596   44.8412 C   0  0  0  0  0  0  0  0  0  0  0  0
    1.9754   -2.0820   42.2741 C   0  0  0  0  0  0  0  0  0  0  0  0
    5.5910   -2.4282   45.3439 C   0  0  0  0  0  0  0  0  0  0  0  0
    6.5874   -2.9636   46.1581 C   0  0  0  0  0  0  0  0  0  0  0  0
    4.2763   -3.0680   45.0493 N   0  0  0  0  0  0  0  0  0  0  0  0
    3.6188   -2.5886   44.2024 C   0  0  0  0  0  0  0  0  0  0  0  0
    8.1921   -1.4071   45.7505 C   0  0  0  0  0  0  0  0  0  0  0  0
    1.0154   -1.8839   41.2980 C   0  0  0  0  0  0  0  0  0  0  0  0
    2.5720   -3.3564   43.9063 C   0  0  0  0  0  0  0  0  0  0  0  0
    0.2502   -2.8976   41.0751 C   0  0  0  0  0  0  0  0  0  0  0  0
    6.1761   -4.1775   47.0209 C   0  0  0  0  0  0  0  0  0  0  0  0
    1.7266   -3.1047   43.0115 C   0  0  2  0  0  0  0  0  0  0  0  0
    2.3696   -4.5367   44.7536 N   0  0  0  0  0  0  0  0  0  0  0  0
    1.2264   -5.2346   44.4693 C   0  0  0  0  0  0  0  0  0  0  0  0
    0.7187   -3.8955   42.5465 C   0  0  0  0  0  0  0  0  0  0  0  0
    9.4576   -0.8949   46.0327 N   0  0  0  0  0  0  0  0  0  0  0  0
    0.8625   -6.3901   45.2462 C   0  0  0  0  0  0  0  0  0  0  0  0
    7.6467   -2.5139   46.4892 C   0  0  0  0  0  0  0  0  0  0  0  0
   10.4908   -1.5336   45.8242 C   0  0  0  0  0  0  0  0  0  0  0  0
    0.3057   -4.9299   43.2909 C   0  0  0  0  0  0  0  0  0  0  0  0
   11.5916   -1.4291   46.7436 C   0  0  0  0  0  0  0  0  0  0  0  0
   10.5566   -2.3672   44.8649 O   0  0  0  0  0  0  0  0  0  0  0  0
   12.8421   -1.9355   46.2823 C   0  0  0  0  0  0  0  0  0  0  0  0
   13.4833   -2.8582   46.9841 C   0  0  0  0  0  0  0  0  0  0  0  0
   11.4002   -1.1447   48.0540 C   0  0  0  0  0  0  0  0  0  0  0  0
   10.2867   -0.4569   48.4999 O   0  0  0  0  0  0  0  0  0  0  0  0
   12.3327   -1.4798   48.9564 C   0  0  1  0  0  0  0  0  0  0  0  0
   14.7901   -3.3162   46.6439 C   0  0  0  0  0  0  0  0  0  0  0  0
   12.1651   -1.3050   50.3239 O   0  0  0  0  0  0  0  0  0  0  0  0
   15.6765   -2.5740   46.0979 C   0  0  0  0  0  0  0  0  0  0  0  0
    2.4608    0.2106   42.8512 C   0  0  0  0  0  0  0  0  0  0  0  0
   15.5213   -1.2590   45.7606 C   0  0  0  0  0  0  0  0  0  0  0  0
   14.5349   -0.8899   44.8574 C   0  0  0  0  0  0  0  0  0  0  0  0
   12.9775   -3.3460   48.2127 C   0  0  0  0  0  0  0  0  0  0  0  0
   14.7129   -0.1943   43.8652 C   0  0  0  0  0  0  0  0  0  0  0  0
   13.1163   -1.3789   45.0490 O   0  0  0  0  0  0  0  0  0  0  0  0
   12.7443   -2.7596   49.2688 C   0  0  0  0  0  0  0  0  0  0  0  0
   15.8145    0.5028   43.5830 C   0  0  0  0  0  0  0  0  0  0  0  0
   15.9344    1.4629   42.4540 C   0  0  0  0  0  0  0  0  0  0  0  0
   14.7741    2.0231   42.1466 C   0  0  0  0  0  0  0  0  0  0  0  0
   16.7816   -0.6309   45.3361 C   0  0  0  0  0  0  0  0  0  0  0  0
   14.6120    3.4072   42.2983 C   0  0  0  0  0  0  0  0  0  0  0  0
   16.7907    0.3635   44.3252 C   0  0  0  0  0  0  0  0  0  0  0  0
  1  2  2  0
  2  3  1  0
  2  4  1  0
  3  5  1  0
  4  6  2  0
  5  7  1  0
  4  8  1  0
  8  9  2  0
  8 10  1  0
  3 11  1  0
 10 11  2  0
  6 12  1  0
  7 13  2  0
 11 14  1  0
 13 15  1  0
  9 16  1  0
 17  7  1  6
 14 17  1  0
 14 18  2  0
 18 19  1  0
 15 20  2  0
 17 20  1  0
 12 21  1  0
 19 22  1  0
  9 23  1  0
 12 23  2  0
 21 24  1  0
 19 25  2  0
 20 25  1  0
 24 26  1  0
 24 27  2  0
 26 28  1  0
 28 29  2  0
 26 30  2  0
 30 31  1  0
 30 32  1  0
 29 33  1  0
 32 34  1  1
 33 35  2  0
  5 36  1  1
 35 37  1  0
 37 38  2  0
 29 39  1  0
 38 40  1  0
 28 41  1  0
 38 41  1  0
 32 42  1  0
 39 42  1  0
 40 43  2  0
 43 44  1  0
 44 45  2  3
 37 46  1  0
 45 47  1  0
 43 48  1  0
 46 48  2  0
M  END
$$$$
O14757_Pocket2Mol_idx-in-all-generaetd-826
     RDKit          3D

 42 49  0  0  0  0  0  0  0  0999 V2000
    1.5482   -0.3111   41.9233 C   0  0  0  0  0  0  0  0  0  0  0  0
    2.7284    0.2018   42.1525 N   0  0  0  0  0  0  0  0  0  0  0  0
    3.7893   -0.3016   42.7005 C   0  0  0  0  0  0  0  0  0  0  0  0
    3.3781   -1.7350   43.0000 C   0  0  0  0  0  0  0  0  0  0  0  0
    2.0339   -1.9619   42.6217 C   0  0  0  0  0  0  0  0  0  0  0  0
    4.1166   -2.4997   43.8458 C   0  0  0  0  0  0  0  0  0  0  0  0
    1.1731   -3.0051   42.5773 C   0  0  0  0  0  0  0  0  0  0  0  0
    0.4701   -3.2344   41.4901 C   0  0  0  0  0  0  0  0  0  0  0  0
    5.3799   -1.7814   44.2691 C   0  0  0  0  0  0  0  0  0  0  0  0
    5.0159   -0.0180   43.1201 N   0  0  0  0  0  0  0  0  0  0  0  0
    5.7693   -0.6937   43.8418 C   0  0  0  0  0  0  0  0  0  0  0  0
    0.8078   -3.6166   43.6782 C   0  0  0  0  0  0  0  0  0  0  0  0
    0.0663   -4.7011   43.7415 N   0  0  0  0  0  0  0  0  0  0  0  0
    6.2223   -2.6843   45.1565 C   0  0  0  0  0  0  0  0  0  0  0  0
    6.9599   -0.2351   44.2608 N   0  0  0  0  0  0  0  0  0  0  0  0
    5.9065   -3.9037   45.7499 N   0  0  0  0  0  0  0  0  0  0  0  0
   -0.5459   -5.1185   42.5870 C   0  0  0  0  0  0  0  0  0  0  0  0
    5.7480   -4.0340   46.9810 C   0  0  0  0  0  0  0  0  0  0  0  0
    7.4448   -1.8511   45.4198 C   0  0  0  0  0  0  0  0  0  0  0  0
    7.7572   -0.7827   45.0128 C   0  0  0  0  0  0  0  0  0  0  0  0
    8.4076   -2.7217   46.4541 C   0  0  0  0  0  0  0  0  0  0  0  0
    9.3167   -2.0988   47.1049 N   0  0  0  0  0  0  0  0  0  0  0  0
   -0.4719   -4.3893   41.5406 C   0  0  0  0  0  0  0  0  0  0  0  0
    8.3667   -4.0284   46.5743 N   0  0  0  0  0  0  0  0  0  0  0  0
    9.5309   -4.3147   47.3094 C   0  0  0  0  0  0  0  0  0  0  0  0
    5.3113   -3.3789   47.8005 O   0  0  0  0  0  0  0  0  0  0  0  0
    9.9022   -5.6301   47.7684 C   0  0  0  0  0  0  0  0  0  0  0  0
    5.4470   -5.5868   47.2096 C   0  0  0  0  0  0  0  0  0  0  0  0
   11.2254   -5.8679   48.0402 C   0  0  0  0  0  0  0  0  0  0  0  0
    8.9736   -6.6532   47.8548 C   0  0  0  0  0  0  0  0  0  0  0  0
   10.0616   -3.0670   47.6360 C   0  0  0  0  0  0  0  0  0  0  0  0
    7.5566   -6.3564   47.5477 N   0  0  0  0  0  0  0  0  0  0  0  0
    6.4157   -6.1721   48.0913 C   0  0  0  0  0  0  0  0  0  0  0  0
   12.3275   -4.8510   47.9324 C   0  0  2  0  0  0  0  0  0  0  0  0
    9.4585   -7.9662   48.0726 C   0  0  0  0  0  0  0  0  0  0  0  0
   11.5288   -2.7910   48.1740 C   0  0  0  0  0  0  0  0  0  0  0  0
   13.6010   -5.5179   48.0202 O   0  0  0  0  0  0  0  0  0  0  0  0
   12.4219   -3.5693   48.5143 C   0  0  0  0  0  0  0  0  0  0  0  0
   11.6233   -7.1700   48.1636 C   0  0  0  0  0  0  0  0  0  0  0  0
    8.4539   -9.0413   48.1740 O   0  0  0  0  0  0  0  0  0  0  0  0
   10.7156   -8.1904   48.3398 C   0  0  0  0  0  0  0  0  0  0  0  0
    8.8610  -10.2847   47.7640 C   0  0  0  0  0  0  0  0  0  0  0  0
  1  2  1  0
  2  3  2  0
  3  4  1  0
  1  5  2  0
  4  5  1  0
  4  6  2  0
  5  7  1  0
  7  8  2  0
  6  9  1  0
  3 10  1  0
  9 11  2  0
 10 11  1  0
  7 12  1  0
 12 13  2  0
  9 14  1  0
 11 15  1  0
 14 16  1  0
 13 17  1  0
 16 18  1  0
 14 19  2  0
 15 20  2  0
 19 20  1  0
 19 21  1  0
 21 22  2  0
  8 23  1  0
 17 23  2  0
 21 24  1  0
 24 25  1  0
 18 26  2  0
 25 27  1  0
 18 28  1  0
 27 29  2  0
 27 30  1  0
 22 31  1  0
 25 31  2  0
 30 32  1  0
 28 33  1  0
 32 33  1  0
 29 34  1  0
 30 35  2  0
 31 36  1  0
 34 37  1  1
 34 38  1  0
 36 38  1  0
 29 39  1  0
 35 40  1  0
 35 41  1  0
 39 41  2  0
 40 42  1  0
M  END
$$$$
O14757_Pocket2Mol_idx-in-all-generaetd-827
     RDKit          3D

 28 34  0  0  0  0  0  0  0  0999 V2000
    4.8173    0.2791   42.6993 N   0  0  0  0  0  0  0  0  0  0  0  0
    5.3297   -0.7477   43.3688 C   0  0  0  0  0  0  0  0  0  0  0  0
    3.4732   -0.2235   42.4530 C   0  0  0  0  0  0  0  0  0  0  0  0
    4.4984   -1.7876   43.6214 C   0  0  0  0  0  0  0  0  0  0  0  0
    3.3438   -1.5190   42.9379 C   0  0  0  0  0  0  0  0  0  0  0  0
    2.1381   -2.3401   42.8254 C   0  0  0  0  0  0  0  0  0  0  0  0
    2.3894    0.3572   41.9843 N   0  0  0  0  0  0  0  0  0  0  0  0
    4.9180   -3.0430   44.3829 C   0  0  0  0  0  0  0  0  0  0  0  0
    5.9444   -2.9314   45.3934 C   0  0  0  0  0  0  0  0  0  0  0  0
    4.2808   -4.1329   44.3252 C   0  0  0  0  0  0  0  0  0  0  0  0
    3.1588   -4.4221   43.4852 O   0  0  0  0  0  0  0  0  0  0  0  0
    4.5704   -5.2518   45.1995 C   0  0  0  0  0  0  0  0  0  0  0  0
    1.9853   -3.6792   43.3495 C   0  0  0  0  0  0  0  0  0  0  0  0
    0.9181   -4.3294   43.4638 C   0  0  0  0  0  0  0  0  0  0  0  0
    6.7403   -1.6226   45.5272 C   0  0  2  0  0  0  0  0  0  0  0  0
    0.9752   -1.7845   42.3366 C   0  0  0  0  0  0  0  0  0  0  0  0
    6.2516   -3.7287   46.2722 C   0  0  0  0  0  0  0  0  0  0  0  0
   -0.2404   -2.4179   42.2529 C   0  0  0  0  0  0  0  0  0  0  0  0
   -1.3835   -1.8904   41.6559 N   0  0  0  0  0  0  0  0  0  0  0  0
    3.8706   -6.4216   45.1394 O   0  0  0  0  0  0  0  0  0  0  0  0
    0.9456   -0.2789   41.7649 C   0  0  0  0  0  0  0  0  0  0  0  0
   -0.2678   -3.6969   42.7575 C   0  0  0  0  0  0  0  0  0  0  0  0
    6.3913   -0.7000   44.3807 N   0  0  0  0  0  0  0  0  0  0  0  0
    7.9391   -1.5867   46.0069 C   0  0  0  0  0  0  0  0  0  0  0  0
    7.1969   -3.5621   47.3287 C   0  0  0  0  0  0  0  0  0  0  0  0
    5.4958   -5.0534   46.2483 C   0  0  0  0  0  0  0  0  0  0  0  0
    8.1881   -2.6098   47.0418 C   0  0  0  0  0  0  0  0  0  0  0  0
    9.3468   -2.5243   47.7486 O   0  0  0  0  0  0  0  0  0  0  0  0
  1  2  2  0
  1  3  1  0
  2  4  1  0
  3  5  1  0
  4  5  2  0
  5  6  1  0
  3  7  2  0
  4  8  1  0
  8  9  1  0
  8 10  2  0
 10 11  1  0
 10 12  1  0
  6 13  1  0
 11 13  1  0
 13 14  2  0
  9 15  1  0
  6 16  2  0
  9 17  2  0
 16 18  1  0
 18 19  1  0
 12 20  1  0
  7 21  1  0
 16 21  1  0
 14 22  1  0
 18 22  2  0
  2 23  1  0
 15 23  1  0
 15 24  1  6
 17 25  1  0
 12 26  2  0
 17 26  1  0
 24 27  1  0
 25 27  1  0
 27 28  2  0
M  END
$$$$
O14757_Pocket2Mol_idx-in-all-generaetd-828
     RDKit          3D

 17 18  0  0  0  0  0  0  0  0999 V2000
    2.2608    0.0351   42.1039 N   0  0  0  0  0  0  0  0  0  0  0  0
    3.2755   -0.7522   42.6076 C   0  0  0  0  0  0  0  0  0  0  0  0
    3.1781   -2.0234   42.9124 N   0  0  0  0  0  0  0  0  0  0  0  0
    4.4469    0.0230   42.8623 N   0  0  0  0  0  0  0  0  0  0  0  0
    4.1755   -2.6132   43.5532 C   0  0  0  0  0  0  0  0  0  0  0  0
    5.4312   -0.5748   43.5352 C   0  0  0  0  0  0  0  0  0  0  0  0
    4.0312   -3.9992   44.0079 C   0  0  0  0  0  0  0  0  0  0  0  0
    5.3152   -1.9091   44.0287 C   0  0  0  0  0  0  0  0  0  0  0  0
    6.2737   -2.4807   44.9117 C   0  0  0  0  0  0  0  0  0  0  0  0
    4.9283   -4.5704   44.9271 C   0  0  0  0  0  0  0  0  0  0  0  0
    6.0141   -3.7162   45.4944 C   0  0  0  0  0  0  0  0  0  0  0  0
    7.3423   -1.6644   45.5071 C   0  0  0  0  0  0  0  0  0  0  0  0
    8.3584   -2.3417   46.1841 C   0  0  0  0  0  0  0  0  0  0  0  0
    8.9386   -1.6961   47.3164 C   0  0  0  0  0  0  0  0  0  0  0  0
    9.9077   -2.4050   48.0899 C   0  0  0  0  0  0  0  0  0  0  0  0
   10.1980   -2.1008   49.3093 O   0  0  0  0  0  0  0  0  0  0  0  0
   10.5385   -3.4195   47.5284 O   0  0  0  0  0  0  0  0  0  0  0  0
  1  2  1  0
  2  3  2  0
  2  4  1  0
  3  5  1  0
  4  6  2  0
  5  7  2  0
  5  8  1  0
  6  8  1  0
  8  9  2  0
  7 10  1  0
  9 11  1  0
 10 11  2  0
  9 12  1  0
 12 13  1  0
 13 14  1  0
 14 15  1  0
 15 16  2  0
 15 17  1  0
M  END
$$$$
O14757_Pocket2Mol_idx-in-all-generaetd-829
     RDKit          3D

 31 37  0  0  0  0  0  0  0  0999 V2000
    4.8173    0.2791   42.6993 N   0  0  0  0  0  0  0  0  0  0  0  0
    5.3297   -0.7477   43.3688 C   0  0  0  0  0  0  0  0  0  0  0  0
    3.4732   -0.2235   42.4530 C   0  0  0  0  0  0  0  0  0  0  0  0
    4.4984   -1.7876   43.6214 C   0  0  0  0  0  0  0  0  0  0  0  0
    3.3438   -1.5190   42.9379 C   0  0  0  0  0  0  0  0  0  0  0  0
    2.1381   -2.3401   42.8254 C   0  0  0  0  0  0  0  0  0  0  0  0
    2.3894    0.3572   41.9843 N   0  0  0  0  0  0  0  0  0  0  0  0
    4.9180   -3.0430   44.3829 C   0  0  0  0  0  0  0  0  0  0  0  0
    5.9444   -2.9314   45.3934 C   0  0  0  0  0  0  0  0  0  0  0  0
    4.2808   -4.1329   44.3252 C   0  0  0  0  0  0  0  0  0  0  0  0
    3.1588   -4.4221   43.4852 O   0  0  0  0  0  0  0  0  0  0  0  0
    4.5704   -5.2518   45.1995 C   0  0  0  0  0  0  0  0  0  0  0  0
    1.9853   -3.6792   43.3495 C   0  0  0  0  0  0  0  0  0  0  0  0
    0.9181   -4.3294   43.4638 C   0  0  0  0  0  0  0  0  0  0  0  0
    6.7403   -1.6226   45.5272 C   0  0  2  0  0  0  0  0  0  0  0  0
    0.9752   -1.7845   42.3366 C   0  0  0  0  0  0  0  0  0  0  0  0
    6.2516   -3.7287   46.2722 C   0  0  0  0  0  0  0  0  0  0  0  0
   -0.2404   -2.4179   42.2529 C   0  0  0  0  0  0  0  0  0  0  0  0
   -1.3835   -1.8904   41.6559 N   0  0  0  0  0  0  0  0  0  0  0  0
    3.8706   -6.4216   45.1394 O   0  0  0  0  0  0  0  0  0  0  0  0
    0.9456   -0.2789   41.7649 C   0  0  0  0  0  0  0  0  0  0  0  0
   -0.2678   -3.6969   42.7575 C   0  0  0  0  0  0  0  0  0  0  0  0
    6.3913   -0.7000   44.3807 N   0  0  0  0  0  0  0  0  0  0  0  0
    7.9391   -1.5867   46.0069 C   0  0  0  0  0  0  0  0  0  0  0  0
    7.1969   -3.5621   47.3287 C   0  0  0  0  0  0  0  0  0  0  0  0
    5.4958   -5.0534   46.2483 C   0  0  0  0  0  0  0  0  0  0  0  0
    8.7816   -0.5869   45.8733 O   0  0  0  0  0  0  0  0  0  0  0  0
    7.5216   -4.5228   48.3075 O   0  0  0  0  0  0  0  0  0  0  0  0
    8.1345   -2.5185   47.1004 C   0  0  0  0  0  0  0  0  0  0  0  0
    9.2298   -2.3744   47.9127 O   0  0  0  0  0  0  0  0  0  0  0  0
   10.1935   -3.2895   47.8171 C   0  0  0  0  0  0  0  0  0  0  0  0
  1  2  2  0
  1  3  1  0
  2  4  1  0
  3  5  1  0
  4  5  2  0
  5  6  1  0
  3  7  2  0
  4  8  1  0
  8  9  1  0
  8 10  2  0
 10 11  1  0
 10 12  1  0
  6 13  1  0
 11 13  1  0
 13 14  2  0
  9 15  1  0
  6 16  2  0
  9 17  2  0
 16 18  1  0
 18 19  1  0
 12 20  1  0
  7 21  1  0
 16 21  1  0
 14 22  1  0
 18 22  2  0
  2 23  1  0
 15 23  1  6
 15 24  1  0
 17 25  1  0
 12 26  2  0
 17 26  1  0
 24 27  2  0
 25 28  1  0
 24 29  1  0
 25 29  2  0
 29 30  1  0
 30 31  1  0
M  END
$$$$
O14757_Pocket2Mol_idx-in-all-generaetd-830
     RDKit          3D

 45 54  0  0  0  0  0  0  0  0999 V2000
    1.5482   -0.3111   41.9233 C   0  0  0  0  0  0  0  0  0  0  0  0
    2.7284    0.2018   42.1525 N   0  0  0  0  0  0  0  0  0  0  0  0
    3.7893   -0.3016   42.7005 C   0  0  0  0  0  0  0  0  0  0  0  0
    3.3781   -1.7350   43.0000 C   0  0  0  0  0  0  0  0  0  0  0  0
    2.0339   -1.9619   42.6217 C   0  0  0  0  0  0  0  0  0  0  0  0
    5.0090    0.1219   42.9340 N   0  0  0  0  0  0  0  0  0  0  0  0
    4.2895   -2.4979   43.6707 C   0  0  0  0  0  0  0  0  0  0  0  0
    5.8391   -0.6675   43.6343 C   0  0  0  0  0  0  0  0  0  0  0  0
    6.9849   -0.2377   44.0028 N   0  0  0  0  0  0  0  0  0  0  0  0
    4.0426   -3.8794   44.0832 C   0  0  0  0  0  0  0  0  0  0  0  0
    7.6796   -0.8734   44.9326 C   0  0  0  0  0  0  0  0  0  0  0  0
    1.1064   -2.9576   42.4211 C   0  0  0  0  0  0  0  0  0  0  0  0
    5.5298   -1.9496   44.0315 C   0  0  0  0  0  0  0  0  0  0  0  0
    3.8954   -4.1817   45.4718 C   0  0  0  0  0  0  0  0  0  0  0  0
    0.6765   -3.5480   43.4006 C   0  0  1  0  0  0  0  0  0  0  0  0
    0.5804   -3.2191   41.1635 C   0  0  0  0  0  0  0  0  0  0  0  0
    2.8083   -4.8227   45.9203 N   0  0  0  0  0  0  0  0  0  0  0  0
   -0.1574   -4.5754   42.9329 N   0  0  0  0  0  0  0  0  0  0  0  0
    6.5271   -2.5531   44.9677 C   0  0  0  0  0  0  0  0  0  0  0  0
   -0.2272   -4.3703   41.5137 C   0  0  0  0  0  0  0  0  0  0  0  0
    7.5095   -2.0029   45.3993 C   0  0  0  0  0  0  0  0  0  0  0  0
    8.2550   -2.6982   46.3988 C   0  0  0  0  0  0  0  0  0  0  0  0
    8.8975   -0.3029   45.3267 O   0  0  0  0  0  0  0  0  0  0  0  0
    4.8299   -4.4637   46.4212 C   0  0  0  0  0  0  0  0  0  0  0  0
    4.2707   -4.9248   47.6295 N   0  0  0  0  0  0  0  0  0  0  0  0
    3.2045   -5.2092   47.1521 C   0  0  0  0  0  0  0  0  0  0  0  0
    1.4482   -4.6186   45.4134 C   0  0  1  0  0  0  0  0  0  0  0  0
    1.2398   -3.5043   44.6236 O   0  0  0  0  0  0  0  0  0  0  0  0
    7.8521   -3.9584   46.8773 C   0  0  0  0  0  0  0  0  0  0  0  0
    8.4079   -4.7553   47.7407 C   0  0  0  0  0  0  0  0  0  0  0  0
    5.9516   -3.8110   45.9146 C   0  0  0  0  0  0  0  0  0  0  0  0
    6.6436   -4.3892   46.6649 C   0  0  0  0  0  0  0  0  0  0  0  0
    9.5111   -5.5246   47.2994 O   0  0  0  0  0  0  0  0  0  0  0  0
   10.6238   -5.0197   46.8534 C   0  0  0  0  0  0  0  0  0  0  0  0
   11.5866   -4.7361   47.6189 C   0  0  0  0  0  0  0  0  0  0  0  0
    1.2153   -5.7944   44.5753 C   0  0  0  0  0  0  0  0  0  0  0  0
   10.7023   -4.6532   45.4361 C   0  0  0  0  0  0  0  0  0  0  0  0
   12.8078   -4.2193   47.0828 C   0  0  0  0  0  0  0  0  0  0  0  0
   11.7380   -4.2754   44.9534 C   0  0  0  0  0  0  0  0  0  0  0  0
   12.8492   -4.0096   45.7359 C   0  0  0  0  0  0  0  0  0  0  0  0
   14.2115   -3.3382   45.2248 C   0  0  0  0  0  0  0  0  0  0  0  0
   14.0017   -2.1217   44.7313 C   0  0  0  0  0  0  0  0  0  0  0  0
   15.0828   -1.5214   44.2932 C   0  0  0  0  0  0  0  0  0  0  0  0
   16.1514   -2.5509   44.6213 C   0  0  0  0  0  0  0  0  0  0  0  0
   15.4887   -3.5708   45.2542 C   0  0  0  0  0  0  0  0  0  0  0  0
  1  2  1  0
  2  3  2  0
  3  4  1  0
  1  5  2  0
  4  5  1  0
  3  6  1  0
  4  7  2  0
  6  8  1  0
  8  9  1  0
  7 10  1  0
  9 11  1  0
  5 12  1  0
  7 13  1  0
  8 13  2  0
 10 14  1  0
 12 15  1  0
 12 16  2  0
 14 17  1  0
 15 18  1  0
 13 19  1  0
 16 20  1  0
 18 20  2  0
 11 21  1  0
 19 21  2  0
 21 22  1  0
 11 23  2  0
 14 24  2  0
 24 25  1  0
 17 26  1  0
 25 26  2  0
 17 27  1  0
 15 28  1  6
 27 28  1  0
 22 29  2  0
 29 30  1  0
 19 31  1  0
 24 31  1  0
 29 32  1  0
 31 32  2  0
 30 33  1  0
 33 34  1  0
 34 35  2  0
 27 36  1  6
 34 37  1  0
 35 38  1  0
 37 39  2  0
 38 40  2  0
 39 40  1  0
 40 41  1  0
 41 42  1  0
 42 43  2  0
 43 44  1  0
 41 45  2  0
 44 45  2  0
M  END
$$$$
O14757_Pocket2Mol_idx-in-all-generaetd-831
     RDKit          3D

 42 47  0  0  0  0  0  0  0  0999 V2000
    5.3420    0.2589   42.8836 O   0  0  0  0  0  0  0  0  0  0  0  0
    5.1627   -0.7554   43.4753 C   0  0  0  0  0  0  0  0  0  0  0  0
    4.0509   -1.4657   43.4177 N   0  0  0  0  0  0  0  0  0  0  0  0
    5.9969   -1.2317   44.6840 C   0  0  0  0  0  0  0  0  0  0  0  0
    2.9618   -1.1021   42.5918 C   0  0  1  0  0  0  0  0  0  0  0  0
    7.3392   -0.8596   44.8412 C   0  0  0  0  0  0  0  0  0  0  0  0
    1.9754   -2.0820   42.2741 C   0  0  0  0  0  0  0  0  0  0  0  0
    5.5910   -2.4282   45.3439 C   0  0  0  0  0  0  0  0  0  0  0  0
    6.5874   -2.9636   46.1581 C   0  0  0  0  0  0  0  0  0  0  0  0
    4.2763   -3.0680   45.0493 N   0  0  0  0  0  0  0  0  0  0  0  0
    3.6188   -2.5886   44.2024 C   0  0  0  0  0  0  0  0  0  0  0  0
    8.1921   -1.4071   45.7505 C   0  0  0  0  0  0  0  0  0  0  0  0
    1.0154   -1.8839   41.2980 C   0  0  0  0  0  0  0  0  0  0  0  0
    2.5720   -3.3564   43.9063 C   0  0  0  0  0  0  0  0  0  0  0  0
    0.2502   -2.8976   41.0751 C   0  0  0  0  0  0  0  0  0  0  0  0
    6.1761   -4.1775   47.0209 C   0  0  0  0  0  0  0  0  0  0  0  0
    1.7266   -3.1047   43.0115 C   0  0  2  0  0  0  0  0  0  0  0  0
    2.3696   -4.5367   44.7536 N   0  0  0  0  0  0  0  0  0  0  0  0
    1.2264   -5.2346   44.4693 C   0  0  0  0  0  0  0  0  0  0  0  0
    0.7187   -3.8955   42.5465 C   0  0  0  0  0  0  0  0  0  0  0  0
    9.4576   -0.8949   46.0327 N   0  0  0  0  0  0  0  0  0  0  0  0
    0.8625   -6.3901   45.2462 C   0  0  0  0  0  0  0  0  0  0  0  0
    7.6467   -2.5139   46.4892 C   0  0  0  0  0  0  0  0  0  0  0  0
   10.4908   -1.5336   45.8242 C   0  0  0  0  0  0  0  0  0  0  0  0
    0.3057   -4.9299   43.2909 C   0  0  0  0  0  0  0  0  0  0  0  0
   11.5916   -1.4291   46.7436 C   0  0  0  0  0  0  0  0  0  0  0  0
   10.5566   -2.3672   44.8649 O   0  0  0  0  0  0  0  0  0  0  0  0
   12.8421   -1.9355   46.2823 C   0  0  0  0  0  0  0  0  0  0  0  0
   13.4833   -2.8582   46.9841 C   0  0  0  0  0  0  0  0  0  0  0  0
   11.4002   -1.1447   48.0540 C   0  0  0  0  0  0  0  0  0  0  0  0
   10.2867   -0.4569   48.4999 O   0  0  0  0  0  0  0  0  0  0  0  0
   12.3327   -1.4798   48.9564 C   0  0  0  0  0  0  0  0  0  0  0  0
   14.7901   -3.3162   46.6439 C   0  0  0  0  0  0  0  0  0  0  0  0
   12.1651   -1.3050   50.3239 O   0  0  0  0  0  0  0  0  0  0  0  0
   15.6765   -2.5740   46.0979 C   0  0  0  0  0  0  0  0  0  0  0  0
   13.4417   -2.4710   48.5369 C   0  0  0  0  0  0  0  0  0  0  0  0
   15.5553   -1.2853   45.8338 C   0  0  0  0  0  0  0  0  0  0  0  0
    2.4633    0.2112   42.8553 O   0  0  0  0  0  0  0  0  0  0  0  0
   15.3909   -0.8808   44.5119 C   0  0  0  0  0  0  0  0  0  0  0  0
   14.8684    0.3217   44.1996 C   0  0  0  0  0  0  0  0  0  0  0  0
   14.3830    0.6137   42.7600 C   0  0  0  0  0  0  0  0  0  0  0  0
   14.9196    1.4873   44.9053 C   0  0  0  0  0  0  0  0  0  0  0  0
  1  2  2  0
  2  3  1  0
  2  4  1  0
  3  5  1  0
  4  6  2  0
  5  7  1  0
  4  8  1  0
  8  9  2  0
  8 10  1  0
  3 11  1  0
 10 11  2  0
  6 12  1  0
  7 13  2  0
 11 14  1  0
 13 15  1  0
  9 16  1  0
 17  7  1  6
 14 17  1  0
 14 18  2  0
 18 19  1  0
 15 20  2  0
 17 20  1  0
 12 21  1  0
 19 22  1  0
  9 23  1  0
 12 23  2  0
 21 24  1  0
 19 25  2  0
 20 25  1  0
 24 26  1  0
 24 27  2  0
 26 28  2  0
 28 29  1  0
 26 30  1  0
 30 31  1  0
 30 32  2  0
 29 33  1  0
 32 34  1  0
 33 35  2  3
 29 36  2  0
 32 36  1  0
 35 37  1  0
  5 38  1  1
 37 39  1  0
 39 40  2  3
 40 41  1  0
 40 42  1  0
M  END
$$$$
O14757_Pocket2Mol_idx-in-all-generaetd-832
     RDKit          3D

 32 36  0  0  0  0  0  0  0  0999 V2000
    4.5142    0.3543   42.7132 N   0  0  0  0  0  0  0  0  0  0  0  0
    3.5107   -0.4860   42.6298 C   0  0  0  0  0  0  0  0  0  0  0  0
    3.5891   -1.7637   43.2512 N   0  0  0  0  0  0  0  0  0  0  0  0
    5.5470   -0.0112   43.3539 C   0  0  0  0  0  0  0  0  0  0  0  0
    2.1469   -0.1899   41.9512 C   0  0  0  0  0  0  0  0  0  0  0  0
    4.6725   -2.0734   43.8606 C   0  0  0  0  0  0  0  0  0  0  0  0
    5.7749   -1.1829   43.9325 C   0  0  0  0  0  0  0  0  0  0  0  0
    4.7150   -3.3068   44.6440 C   0  0  0  0  0  0  0  0  0  0  0  0
    6.9086   -1.5797   44.6919 C   0  0  0  0  0  0  0  0  0  0  0  0
    3.5691   -4.2517   44.6407 C   0  0  0  0  0  0  0  0  0  0  0  0
    2.3573   -4.0060   44.5430 C   0  0  0  0  0  0  0  0  0  0  0  0
    6.9170   -2.8018   45.4663 C   0  0  0  0  0  0  0  0  0  0  0  0
    5.8006   -3.6152   45.4297 C   0  0  0  0  0  0  0  0  0  0  0  0
    8.0903   -3.1108   46.2193 C   0  0  0  0  0  0  0  0  0  0  0  0
    4.0064   -5.4798   44.1304 O   0  0  0  0  0  0  0  0  0  0  0  0
    1.3499   -4.4927   43.7488 C   0  0  0  0  0  0  0  0  0  0  0  0
    8.9407   -2.1153   46.7855 N   0  0  0  0  0  0  0  0  0  0  0  0
    9.9131   -2.4307   47.6296 C   0  0  0  0  0  0  0  0  0  0  0  0
    9.9401   -2.1931   48.7722 O   0  0  0  0  0  0  0  0  0  0  0  0
    1.6925   -3.8787   45.7737 C   0  0  0  0  0  0  0  0  0  0  0  0
    0.0956   -4.4506   43.8726 C   0  0  0  0  0  0  0  0  0  0  0  0
   -0.4743   -4.1254   44.9651 C   0  0  0  0  0  0  0  0  0  0  0  0
   11.1474   -2.9718   46.9683 C   0  0  0  0  0  0  0  0  0  0  0  0
    0.1760   -3.8909   45.9333 C   0  0  0  0  0  0  0  0  0  0  0  0
   11.1208   -4.2039   46.7415 C   0  0  0  0  0  0  0  0  0  0  0  0
   10.0412   -5.1887   46.8168 O   0  0  0  0  0  0  0  0  0  0  0  0
   10.4183   -6.3723   46.3087 C   0  0  0  0  0  0  0  0  0  0  0  0
   12.3853   -4.9158   46.3459 C   0  0  0  0  0  0  0  0  0  0  0  0
   11.8082   -6.4658   46.2357 C   0  0  0  0  0  0  0  0  0  0  0  0
   12.3876   -2.2957   47.0157 C   0  0  0  0  0  0  0  0  0  0  0  0
   13.5482   -2.8773   46.5973 C   0  0  0  0  0  0  0  0  0  0  0  0
   13.4532   -4.2819   46.4343 C   0  0  0  0  0  0  0  0  0  0  0  0
  1  2  2  0
  2  3  1  0
  1  4  1  0
  2  5  1  0
  3  6  2  0
  4  7  2  0
  6  7  1  0
  6  8  1  0
  7  9  1  0
  8 10  1  0
 10 11  1  0
  9 12  2  0
  8 13  2  0
 12 13  1  0
 12 14  1  0
 10 15  2  0
 11 16  2  0
 14 17  1  0
 17 18  1  0
 18 19  2  0
 11 20  1  0
 16 21  1  0
 21 22  2  0
 18 23  1  0
 20 24  2  0
 22 24  1  0
 23 25  2  0
 25 26  1  0
 26 27  1  0
 25 28  1  0
 27 29  1  0
 28 29  1  0
 23 30  1  0
 30 31  2  0
 28 32  2  0
 31 32  1  0
M  END
$$$$
O14757_Pocket2Mol_idx-in-all-generaetd-833
     RDKit          3D

 30 35  0  0  0  0  0  0  0  0999 V2000
    4.5156    0.0550   42.9895 N   0  0  0  0  0  0  0  0  0  0  0  0
    5.0618   -0.8645   43.5295 C   0  0  0  0  0  0  0  0  0  0  0  0
    4.4350   -2.0604   43.7783 C   0  0  0  0  0  0  0  0  0  0  0  0
    4.9987   -3.0994   44.5839 C   0  0  0  0  0  0  0  0  0  0  0  0
    3.2714   -1.8664   43.0632 C   0  0  0  0  0  0  0  0  0  0  0  0
    6.4064   -0.5942   44.3204 N   0  0  0  0  0  0  0  0  0  0  0  0
    4.3422   -4.3256   44.7203 C   0  0  0  0  0  0  0  0  0  0  0  0
    2.1845   -2.6668   42.8270 N   0  0  0  0  0  0  0  0  0  0  0  0
    3.3305   -0.5395   42.5465 N   0  0  0  0  0  0  0  0  0  0  0  0
    1.9502   -3.8972   43.4076 C   0  0  0  0  0  0  0  0  0  0  0  0
    2.7156   -4.1184   44.6954 N   0  0  0  0  0  0  0  0  0  0  0  0
    6.8581   -1.5862   45.1101 C   0  0  0  0  0  0  0  0  0  0  0  0
    6.1801   -2.8430   45.2383 C   0  0  0  0  0  0  0  0  0  0  0  0
    2.1454   -5.1901   45.5771 C   0  0  0  0  0  0  0  0  0  0  0  0
    8.0137   -1.3946   45.8526 C   0  0  0  0  0  0  0  0  0  0  0  0
    0.9733   -4.5725   43.2066 O   0  0  0  0  0  0  0  0  0  0  0  0
    2.2437    0.0035   41.8733 C   0  0  0  0  0  0  0  0  0  0  0  0
    1.3210   -2.2077   41.7009 C   0  0  0  0  0  0  0  0  0  0  0  0
    8.6047   -2.2876   46.6923 C   0  0  0  0  0  0  0  0  0  0  0  0
    7.9141   -3.5157   46.8869 C   0  0  0  0  0  0  0  0  0  0  0  0
    1.0501   -0.8658   41.6612 C   0  0  0  0  0  0  0  0  0  0  0  0
    6.7473   -3.8283   46.2372 C   0  0  0  0  0  0  0  0  0  0  0  0
    1.0568   -4.5170   46.3522 C   0  0  0  0  0  0  0  0  0  0  0  0
    9.8008   -2.0643   47.3760 C   0  0  0  0  0  0  0  0  0  0  0  0
   10.9776   -2.0111   46.7028 N   0  0  0  0  0  0  0  0  0  0  0  0
   12.1432   -1.7842   47.1175 C   0  0  0  0  0  0  0  0  0  0  0  0
   10.8676   -2.6764   45.3153 C   0  0  0  0  0  0  0  0  0  0  0  0
   13.0919   -1.4670   46.1379 C   0  0  0  0  0  0  0  0  0  0  0  0
   13.0750   -2.0945   44.9815 N   0  0  0  0  0  0  0  0  0  0  0  0
   12.1249   -2.8295   44.6485 C   0  0  0  0  0  0  0  0  0  0  0  0
  1  2  2  0
  2  3  1  0
  3  4  1  0
  3  5  2  0
  2  6  1  0
  4  7  1  0
  5  8  1  0
  1  9  1  0
  5  9  1  0
  8 10  1  0
  7 11  1  0
 10 11  1  0
  6 12  2  0
  4 13  2  0
 12 13  1  0
 11 14  1  0
 12 15  1  0
 10 16  2  0
  9 17  1  0
  8 18  1  0
 15 19  2  0
 19 20  1  0
 17 21  1  0
 18 21  1  0
 13 22  1  0
 20 22  2  0
 14 23  1  0
 19 24  1  0
 24 25  1  0
 25 26  1  0
 25 27  1  0
 26 28  1  0
 28 29  1  0
 27 30  1  0
 29 30  1  0
M  END
$$$$
O14757_Pocket2Mol_idx-in-all-generaetd-834
     RDKit          3D

 50 58  0  0  0  0  0  0  0  0999 V2000
    5.3420    0.2589   42.8836 O   0  0  0  0  0  0  0  0  0  0  0  0
    5.1627   -0.7554   43.4753 C   0  0  0  0  0  0  0  0  0  0  0  0
    4.0509   -1.4657   43.4177 N   0  0  0  0  0  0  0  0  0  0  0  0
    5.9969   -1.2317   44.6840 C   0  0  0  0  0  0  0  0  0  0  0  0
    2.9618   -1.1021   42.5918 C   0  0  1  0  0  0  0  0  0  0  0  0
    7.3392   -0.8596   44.8412 C   0  0  0  0  0  0  0  0  0  0  0  0
    1.9754   -2.0820   42.2741 C   0  0  0  0  0  0  0  0  0  0  0  0
    5.5910   -2.4282   45.3439 C   0  0  0  0  0  0  0  0  0  0  0  0
    6.5874   -2.9636   46.1581 C   0  0  0  0  0  0  0  0  0  0  0  0
    4.2763   -3.0680   45.0493 N   0  0  0  0  0  0  0  0  0  0  0  0
    3.6188   -2.5886   44.2024 C   0  0  0  0  0  0  0  0  0  0  0  0
    8.1921   -1.4071   45.7505 C   0  0  0  0  0  0  0  0  0  0  0  0
    1.0154   -1.8839   41.2980 C   0  0  0  0  0  0  0  0  0  0  0  0
    2.5720   -3.3564   43.9063 C   0  0  0  0  0  0  0  0  0  0  0  0
    0.2502   -2.8976   41.0751 C   0  0  0  0  0  0  0  0  0  0  0  0
    6.1761   -4.1775   47.0209 C   0  0  0  0  0  0  0  0  0  0  0  0
    1.7266   -3.1047   43.0115 C   0  0  2  0  0  0  0  0  0  0  0  0
    2.3696   -4.5367   44.7536 N   0  0  0  0  0  0  0  0  0  0  0  0
    1.2264   -5.2346   44.4693 C   0  0  0  0  0  0  0  0  0  0  0  0
    0.7187   -3.8955   42.5465 C   0  0  0  0  0  0  0  0  0  0  0  0
    9.4576   -0.8949   46.0327 N   0  0  0  0  0  0  0  0  0  0  0  0
    0.8625   -6.3901   45.2462 C   0  0  0  0  0  0  0  0  0  0  0  0
    7.6467   -2.5139   46.4892 C   0  0  0  0  0  0  0  0  0  0  0  0
   10.4908   -1.5336   45.8242 C   0  0  0  0  0  0  0  0  0  0  0  0
    0.3057   -4.9299   43.2909 C   0  0  0  0  0  0  0  0  0  0  0  0
   11.5916   -1.4291   46.7436 C   0  0  0  0  0  0  0  0  0  0  0  0
   10.5566   -2.3672   44.8649 O   0  0  0  0  0  0  0  0  0  0  0  0
    2.4730    0.2084   42.8389 O   0  0  0  0  0  0  0  0  0  0  0  0
   11.6027   -2.2081   47.7725 N   0  0  0  0  0  0  0  0  0  0  0  0
   12.6189   -0.5862   46.5415 C   0  0  0  0  0  0  0  0  0  0  0  0
   13.6413   -0.4484   47.4129 C   0  0  0  0  0  0  0  0  0  0  0  0
   10.4764   -3.1097   48.1134 C   0  0  0  0  0  0  0  0  0  0  0  0
    9.5762   -2.4717   49.0753 C   0  0  0  0  0  0  0  0  0  0  0  0
    9.7761   -1.2394   49.5167 C   0  0  0  0  0  0  0  0  0  0  0  0
    8.6397   -3.3252   49.7339 C   0  0  0  0  0  0  0  0  0  0  0  0
    8.9861   -0.7034   50.5819 C   0  0  0  0  0  0  0  0  0  0  0  0
   14.7137    0.5128   47.0925 C   0  0  0  0  0  0  0  0  0  0  0  0
    8.3536   -4.6815   49.2042 C   0  0  0  0  0  0  0  0  0  0  0  0
    7.9034   -2.7594   50.6763 C   0  0  0  0  0  0  0  0  0  0  0  0
    6.9327   -5.0150   49.0248 N   0  0  0  0  0  0  0  0  0  0  0  0
    8.1305   -1.4992   51.1482 C   0  0  0  0  0  0  0  0  0  0  0  0
    6.3852   -3.9495   48.3951 C   0  0  0  0  0  0  0  0  0  0  0  0
   13.6768   -1.2836   48.4696 C   0  0  0  0  0  0  0  0  0  0  0  0
   14.7714   -1.2324   49.3357 C   0  0  0  0  0  0  0  0  0  0  0  0
   12.4977   -2.1502   48.5649 C   0  0  0  0  0  0  0  0  0  0  0  0
   14.6552    1.3736   46.0074 C   0  0  0  0  0  0  0  0  0  0  0  0
   15.0763    0.8589   44.8736 O   0  0  0  0  0  0  0  0  0  0  0  0
   15.6582    0.3517   47.9029 C   0  0  0  0  0  0  0  0  0  0  0  0
   14.8102   -2.0632   50.5120 O   0  0  0  0  0  0  0  0  0  0  0  0
   15.7921   -0.3912   49.0944 C   0  0  0  0  0  0  0  0  0  0  0  0
  1  2  2  0
  2  3  1  0
  2  4  1  0
  3  5  1  0
  4  6  2  0
  5  7  1  0
  4  8  1  0
  8  9  2  0
  8 10  1  0
  3 11  1  0
 10 11  2  0
  6 12  1  0
  7 13  2  0
 11 14  1  0
 13 15  1  0
  9 16  1  0
 17  7  1  6
 14 17  1  0
 14 18  2  0
 18 19  1  0
 15 20  2  0
 17 20  1  0
 12 21  1  0
 19 22  1  0
  9 23  1  0
 12 23  2  0
 21 24  1  0
 19 25  2  0
 20 25  1  0
 24 26  1  0
 24 27  2  0
  5 28  1  1
 26 29  1  0
 26 30  2  0
 30 31  1  0
 29 32  1  0
 32 33  1  0
 33 34  1  0
 33 35  2  0
 34 36  2  0
 31 37  2  0
 35 38  1  0
 35 39  1  0
 38 40  1  0
 36 41  1  0
 39 41  2  0
 16 42  1  0
 40 42  1  0
 31 43  1  0
 43 44  2  0
 29 45  1  0
 43 45  1  0
 37 46  1  0
 46 47  1  0
 37 48  1  0
 44 49  1  0
 44 50  1  0
 48 50  2  0
M  END
$$$$
O14757_Pocket2Mol_idx-in-all-generaetd-835
     RDKit          3D

 25 28  0  0  0  0  0  0  0  0999 V2000
    4.5156    0.0550   42.9895 N   0  0  0  0  0  0  0  0  0  0  0  0
    5.0618   -0.8645   43.5295 C   0  0  0  0  0  0  0  0  0  0  0  0
    4.4350   -2.0604   43.7783 C   0  0  0  0  0  0  0  0  0  0  0  0
    4.9987   -3.0994   44.5839 C   0  0  0  0  0  0  0  0  0  0  0  0
    3.2714   -1.8664   43.0632 C   0  0  0  0  0  0  0  0  0  0  0  0
    6.4064   -0.5942   44.3204 N   0  0  0  0  0  0  0  0  0  0  0  0
    3.2662   -0.5029   42.4637 C   0  0  1  0  0  0  0  0  0  0  0  0
    6.2094   -2.8994   45.2671 C   0  0  0  0  0  0  0  0  0  0  0  0
    2.1311   -2.7283   42.6149 C   0  0  0  0  0  0  0  0  0  0  0  0
    1.2031   -2.2156   41.7977 C   0  0  0  0  0  0  0  0  0  0  0  0
    0.1331   -3.1384   41.3837 C   0  0  0  0  0  0  0  0  0  0  0  0
    2.2239   -0.0756   41.7904 C   0  0  0  0  0  0  0  0  0  0  0  0
    6.8407   -1.5014   45.1300 C   0  0  0  0  0  0  0  0  0  0  0  0
    1.1705   -0.9157   41.4367 C   0  0  0  0  0  0  0  0  0  0  0  0
    8.0745   -1.2705   45.7566 C   0  0  0  0  0  0  0  0  0  0  0  0
    8.6211   -2.2130   46.7115 C   0  0  0  0  0  0  0  0  0  0  0  0
    6.7527   -3.8063   46.1672 C   0  0  0  0  0  0  0  0  0  0  0  0
    9.8071   -1.9409   47.4563 O   0  0  0  0  0  0  0  0  0  0  0  0
    7.9753   -3.4769   46.9003 C   0  0  0  0  0  0  0  0  0  0  0  0
   10.9253   -1.6673   46.6796 C   0  0  0  0  0  0  0  0  0  0  0  0
   -1.0276   -2.8899   41.4677 O   0  0  0  0  0  0  0  0  0  0  0  0
    0.5265   -4.1807   40.7422 O   0  0  0  0  0  0  0  0  0  0  0  0
   11.6307   -2.8353   46.3788 C   0  0  0  0  0  0  0  0  0  0  0  0
   12.2669   -3.3738   47.2031 O   0  0  0  0  0  0  0  0  0  0  0  0
   11.9803   -2.9784   45.0691 O   0  0  0  0  0  0  0  0  0  0  0  0
  1  2  2  0
  2  3  1  0
  3  4  1  0
  3  5  2  0
  2  6  1  0
  1  7  1  0
  5  7  1  0
  4  8  2  0
  5  9  1  0
  9 10  2  0
 10 11  1  0
  7 12  1  1
  6 13  2  0
  8 13  1  0
 10 14  1  0
 12 14  2  0
 13 15  1  0
 15 16  2  0
  8 17  1  0
 16 18  1  0
 16 19  1  0
 17 19  2  0
 18 20  1  0
 11 21  2  0
 11 22  1  0
 20 23  1  0
 23 24  2  0
 23 25  1  0
M  END
$$$$
O14757_Pocket2Mol_idx-in-all-generaetd-836
     RDKit          3D

 40 45  0  0  0  0  0  0  0  0999 V2000
    5.3420    0.2589   42.8836 O   0  0  0  0  0  0  0  0  0  0  0  0
    5.1627   -0.7554   43.4753 C   0  0  0  0  0  0  0  0  0  0  0  0
    4.0509   -1.4657   43.4177 N   0  0  0  0  0  0  0  0  0  0  0  0
    5.9969   -1.2317   44.6840 C   0  0  0  0  0  0  0  0  0  0  0  0
    2.9618   -1.1021   42.5918 C   0  0  0  0  0  0  0  0  0  0  0  0
    7.3392   -0.8596   44.8412 C   0  0  0  0  0  0  0  0  0  0  0  0
    1.9754   -2.0820   42.2741 C   0  0  0  0  0  0  0  0  0  0  0  0
    5.5910   -2.4282   45.3439 C   0  0  0  0  0  0  0  0  0  0  0  0
    6.5874   -2.9636   46.1581 C   0  0  0  0  0  0  0  0  0  0  0  0
    4.2763   -3.0680   45.0493 N   0  0  0  0  0  0  0  0  0  0  0  0
    3.6188   -2.5886   44.2024 C   0  0  0  0  0  0  0  0  0  0  0  0
    8.1921   -1.4071   45.7505 C   0  0  0  0  0  0  0  0  0  0  0  0
    1.0154   -1.8839   41.2980 C   0  0  0  0  0  0  0  0  0  0  0  0
    2.5720   -3.3564   43.9063 C   0  0  0  0  0  0  0  0  0  0  0  0
    0.2502   -2.8976   41.0751 C   0  0  0  0  0  0  0  0  0  0  0  0
    6.1761   -4.1775   47.0209 C   0  0  0  0  0  0  0  0  0  0  0  0
    1.7266   -3.1047   43.0115 C   0  0  2  0  0  0  0  0  0  0  0  0
    2.3696   -4.5367   44.7536 N   0  0  0  0  0  0  0  0  0  0  0  0
    1.2264   -5.2346   44.4693 C   0  0  0  0  0  0  0  0  0  0  0  0
    0.7187   -3.8955   42.5465 C   0  0  0  0  0  0  0  0  0  0  0  0
    9.4576   -0.8949   46.0327 N   0  0  0  0  0  0  0  0  0  0  0  0
    0.8625   -6.3901   45.2462 C   0  0  0  0  0  0  0  0  0  0  0  0
    7.6467   -2.5139   46.4892 C   0  0  0  0  0  0  0  0  0  0  0  0
   10.4908   -1.5336   45.8242 C   0  0  0  0  0  0  0  0  0  0  0  0
    0.3057   -4.9299   43.2909 C   0  0  0  0  0  0  0  0  0  0  0  0
   11.5916   -1.4291   46.7436 C   0  0  0  0  0  0  0  0  0  0  0  0
   10.5566   -2.3672   44.8649 O   0  0  0  0  0  0  0  0  0  0  0  0
   12.8421   -1.9355   46.2823 C   0  0  0  0  0  0  0  0  0  0  0  0
   13.4833   -2.8582   46.9841 C   0  0  0  0  0  0  0  0  0  0  0  0
   11.4002   -1.1447   48.0540 C   0  0  0  0  0  0  0  0  0  0  0  0
   10.2867   -0.4569   48.4999 O   0  0  0  0  0  0  0  0  0  0  0  0
   12.3327   -1.4798   48.9564 C   0  0  0  0  0  0  0  0  0  0  0  0
   14.7901   -3.3162   46.6439 C   0  0  0  0  0  0  0  0  0  0  0  0
   12.1651   -1.3050   50.3239 O   0  0  0  0  0  0  0  0  0  0  0  0
   15.6765   -2.5740   46.0979 C   0  0  0  0  0  0  0  0  0  0  0  0
   13.4417   -2.4710   48.5369 C   0  0  0  0  0  0  0  0  0  0  0  0
    3.0238    0.0742   42.0657 O   0  0  0  0  0  0  0  0  0  0  0  0
   16.9621   -3.2473   45.5967 C   0  0  0  0  0  0  0  0  0  0  0  0
   17.8072   -2.5634   44.9019 O   0  0  0  0  0  0  0  0  0  0  0  0
   17.0173   -4.5268   45.6341 O   0  0  0  0  0  0  0  0  0  0  0  0
  1  2  2  0
  2  3  1  0
  2  4  1  0
  3  5  1  0
  4  6  2  0
  5  7  1  0
  4  8  1  0
  8  9  2  0
  8 10  1  0
  3 11  1  0
 10 11  2  0
  6 12  1  0
  7 13  2  0
 11 14  1  0
 13 15  1  0
  9 16  1  0
 17  7  1  6
 14 17  1  0
 14 18  2  0
 18 19  1  0
 15 20  2  0
 17 20  1  0
 12 21  1  0
 19 22  1  0
  9 23  1  0
 12 23  2  0
 21 24  1  0
 19 25  2  0
 20 25  1  0
 24 26  1  0
 24 27  2  0
 26 28  2  0
 28 29  1  0
 26 30  1  0
 30 31  1  0
 30 32  2  0
 29 33  1  0
 32 34  1  0
 33 35  2  3
 29 36  2  0
 32 36  1  0
  5 37  2  0
 35 38  1  0
 38 39  2  0
 38 40  1  0
M  END
$$$$
O14757_Pocket2Mol_idx-in-all-generaetd-837
     RDKit          3D

 50 59  0  0  0  0  0  0  0  0999 V2000
    1.5482   -0.3111   41.9233 C   0  0  0  0  0  0  0  0  0  0  0  0
    2.7284    0.2018   42.1525 N   0  0  0  0  0  0  0  0  0  0  0  0
    3.7893   -0.3016   42.7005 C   0  0  0  0  0  0  0  0  0  0  0  0
    3.3781   -1.7350   43.0000 C   0  0  0  0  0  0  0  0  0  0  0  0
    2.0339   -1.9619   42.6217 C   0  0  0  0  0  0  0  0  0  0  0  0
    5.0090    0.1219   42.9340 N   0  0  0  0  0  0  0  0  0  0  0  0
    4.2895   -2.4979   43.6707 C   0  0  0  0  0  0  0  0  0  0  0  0
    5.8391   -0.6675   43.6343 C   0  0  0  0  0  0  0  0  0  0  0  0
    6.9849   -0.2377   44.0028 N   0  0  0  0  0  0  0  0  0  0  0  0
    4.0426   -3.8794   44.0832 C   0  0  0  0  0  0  0  0  0  0  0  0
    7.6796   -0.8734   44.9326 C   0  0  0  0  0  0  0  0  0  0  0  0
    1.1064   -2.9576   42.4211 C   0  0  0  0  0  0  0  0  0  0  0  0
    5.5298   -1.9496   44.0315 C   0  0  0  0  0  0  0  0  0  0  0  0
    3.8954   -4.1817   45.4718 C   0  0  0  0  0  0  0  0  0  0  0  0
    0.6765   -3.5480   43.4006 C   0  0  1  0  0  0  0  0  0  0  0  0
    0.5804   -3.2191   41.1635 C   0  0  0  0  0  0  0  0  0  0  0  0
    2.8083   -4.8227   45.9203 N   0  0  0  0  0  0  0  0  0  0  0  0
   -0.1574   -4.5754   42.9329 N   0  0  0  0  0  0  0  0  0  0  0  0
    6.5271   -2.5531   44.9677 C   0  0  0  0  0  0  0  0  0  0  0  0
   -0.2272   -4.3703   41.5137 C   0  0  0  0  0  0  0  0  0  0  0  0
    7.5095   -2.0029   45.3993 C   0  0  0  0  0  0  0  0  0  0  0  0
    8.2550   -2.6982   46.3988 C   0  0  1  0  0  0  0  0  0  0  0  0
    8.8975   -0.3029   45.3267 O   0  0  0  0  0  0  0  0  0  0  0  0
    4.8299   -4.4637   46.4212 C   0  0  0  0  0  0  0  0  0  0  0  0
    4.2707   -4.9248   47.6295 N   0  0  0  0  0  0  0  0  0  0  0  0
    3.2045   -5.2092   47.1521 C   0  0  0  0  0  0  0  0  0  0  0  0
    1.4482   -4.6186   45.4134 C   0  0  0  0  0  0  0  0  0  0  0  0
    1.3256   -3.7660   44.6394 N   0  0  0  0  0  0  0  0  0  0  0  0
    9.2816   -2.1418   47.1273 N   0  0  0  0  0  0  0  0  0  0  0  0
   10.0629   -3.1324   47.8508 C   0  0  0  0  0  0  0  0  0  0  0  0
    6.3491   -3.8960   46.0844 C   0  0  2  0  0  0  0  0  0  0  0  0
    7.4349   -3.5889   46.9054 C   0  0  0  0  0  0  0  0  0  0  0  0
   10.3145   -2.7271   49.0818 O   0  0  0  0  0  0  0  0  0  0  0  0
    0.6213   -5.4445   45.7455 O   0  0  0  0  0  0  0  0  0  0  0  0
   11.0262   -3.8136   47.1050 C   0  0  0  0  0  0  0  0  0  0  0  0
   12.1704   -3.3854   46.7547 C   0  0  0  0  0  0  0  0  0  0  0  0
   13.1080   -4.1111   46.0053 C   0  0  0  0  0  0  0  0  0  0  0  0
   14.3489   -3.5966   45.7888 C   0  0  0  0  0  0  0  0  0  0  0  0
   12.7430   -5.2725   45.5056 C   0  0  0  0  0  0  0  0  0  0  0  0
   14.6935   -2.2816   45.3353 C   0  0  0  0  0  0  0  0  0  0  0  0
   15.8828   -1.9964   44.9887 C   0  0  0  0  0  0  0  0  0  0  0  0
   15.4347   -4.4529   45.9716 C   0  0  0  0  0  0  0  0  0  0  0  0
   16.1869   -0.5957   44.4528 O   0  0  0  0  0  0  0  0  0  0  0  0
   10.4748   -5.1116   46.5806 C   0  0  0  0  0  0  0  0  0  0  0  0
   16.7998   -3.8587   45.6343 C   0  0  0  0  0  0  0  0  0  0  0  0
    9.2681   -5.6016   46.7952 F   0  0  0  0  0  0  0  0  0  0  0  0
   11.3817   -5.7792   45.7596 C   0  0  0  0  0  0  0  0  0  0  0  0
   15.1818    0.2267   44.2183 C   0  0  0  0  0  0  0  0  0  0  0  0
   17.9162   -4.8222   45.8325 O   0  0  0  0  0  0  0  0  0  0  0  0
   17.0154   -2.7009   45.1793 C   0  0  0  0  0  0  0  0  0  0  0  0
  1  2  1  0
  2  3  2  0
  3  4  1  0
  1  5  2  0
  4  5  1  0
  3  6  1  0
  4  7  2  0
  6  8  1  0
  8  9  1  0
  7 10  1  0
  9 11  1  0
  5 12  1  0
  7 13  1  0
  8 13  2  0
 10 14  1  0
 12 15  1  0
 12 16  2  0
 14 17  1  0
 15 18  1  0
 13 19  1  0
 16 20  1  0
 18 20  2  0
 11 21  1  0
 19 21  2  0
 21 22  1  0
 11 23  2  0
 14 24  2  0
 24 25  1  0
 17 26  1  0
 25 26  2  0
 17 27  1  0
 15 28  1  6
 27 28  1  0
 22 29  1  1
 29 30  1  0
 19 31  1  0
 24 31  1  0
 22 32  1  0
 31 32  1  1
 30 33  2  0
 27 34  2  0
 30 35  1  0
 35 36  2  0
 36 37  1  0
 37 38  1  0
 37 39  2  0
 38 40  2  0
 40 41  1  0
 38 42  1  0
 41 43  1  0
 35 44  1  0
 42 45  2  0
 44 46  1  0
 39 47  1  0
 44 47  2  0
 43 48  1  0
 45 49  1  0
 41 50  2  0
 45 50  1  0
M  END
$$$$
O14757_Pocket2Mol_idx-in-all-generaetd-838
     RDKit          3D

 38 45  0  0  0  0  0  0  0  0999 V2000
    1.5482   -0.3111   41.9233 C   0  0  0  0  0  0  0  0  0  0  0  0
    2.7284    0.2018   42.1525 N   0  0  0  0  0  0  0  0  0  0  0  0
    3.7893   -0.3016   42.7005 C   0  0  0  0  0  0  0  0  0  0  0  0
    3.3781   -1.7350   43.0000 C   0  0  0  0  0  0  0  0  0  0  0  0
    2.0339   -1.9619   42.6217 C   0  0  0  0  0  0  0  0  0  0  0  0
    5.0090    0.1219   42.9340 N   0  0  0  0  0  0  0  0  0  0  0  0
    4.2895   -2.4979   43.6707 C   0  0  0  0  0  0  0  0  0  0  0  0
    5.8391   -0.6675   43.6343 C   0  0  0  0  0  0  0  0  0  0  0  0
    6.9849   -0.2377   44.0028 N   0  0  0  0  0  0  0  0  0  0  0  0
    4.0426   -3.8794   44.0832 C   0  0  0  0  0  0  0  0  0  0  0  0
    7.6796   -0.8734   44.9326 C   0  0  0  0  0  0  0  0  0  0  0  0
    1.1064   -2.9576   42.4211 C   0  0  0  0  0  0  0  0  0  0  0  0
    5.5298   -1.9496   44.0315 C   0  0  0  0  0  0  0  0  0  0  0  0
    3.8954   -4.1817   45.4718 C   0  0  0  0  0  0  0  0  0  0  0  0
    0.6765   -3.5480   43.4006 C   0  0  1  0  0  0  0  0  0  0  0  0
    0.5804   -3.2191   41.1635 C   0  0  0  0  0  0  0  0  0  0  0  0
    2.8083   -4.8227   45.9203 N   0  0  0  0  0  0  0  0  0  0  0  0
   -0.1574   -4.5754   42.9329 N   0  0  0  0  0  0  0  0  0  0  0  0
    6.5271   -2.5531   44.9677 C   0  0  0  0  0  0  0  0  0  0  0  0
   -0.2272   -4.3703   41.5137 C   0  0  0  0  0  0  0  0  0  0  0  0
    7.5095   -2.0029   45.3993 C   0  0  0  0  0  0  0  0  0  0  0  0
    8.2550   -2.6982   46.3988 C   0  0  0  0  0  0  0  0  0  0  0  0
    8.8975   -0.3029   45.3267 O   0  0  0  0  0  0  0  0  0  0  0  0
    4.8299   -4.4637   46.4212 C   0  0  0  0  0  0  0  0  0  0  0  0
    4.2707   -4.9248   47.6295 N   0  0  0  0  0  0  0  0  0  0  0  0
    3.2045   -5.2092   47.1521 C   0  0  0  0  0  0  0  0  0  0  0  0
    1.4482   -4.6186   45.4134 C   0  0  1  0  0  0  0  0  0  0  0  0
    1.2398   -3.5043   44.6236 O   0  0  0  0  0  0  0  0  0  0  0  0
    6.3317   -3.9297   46.0870 C   0  0  2  0  0  0  0  0  0  0  0  0
    9.5296   -2.5449   46.9776 C   0  0  0  0  0  0  0  0  0  0  0  0
    9.7921   -1.7530   47.9018 O   0  0  0  0  0  0  0  0  0  0  0  0
    7.3972   -3.8130   46.7939 C   0  0  0  0  0  0  0  0  0  0  0  0
    1.2392   -5.7793   44.5610 C   0  0  0  0  0  0  0  0  0  0  0  0
   10.4934   -3.0755   46.3117 N   0  0  0  0  0  0  0  0  0  0  0  0
   11.8909   -2.7870   46.6074 C   0  0  0  0  0  0  0  0  0  0  0  0
   12.6971   -2.6764   45.4574 C   0  0  1  0  0  0  0  0  0  0  0  0
   12.1056   -1.9816   44.4618 O   0  0  0  0  0  0  0  0  0  0  0  0
   14.0240   -2.1395   45.6547 C   0  0  0  0  0  0  0  0  0  0  0  0
  1  2  1  0
  2  3  2  0
  3  4  1  0
  1  5  2  0
  4  5  1  0
  3  6  1  0
  4  7  2  0
  6  8  1  0
  8  9  1  0
  7 10  1  0
  9 11  1  0
  5 12  1  0
  7 13  1  0
  8 13  2  0
 10 14  1  0
 12 15  1  0
 12 16  2  0
 14 17  1  0
 15 18  1  0
 13 19  1  0
 16 20  1  0
 18 20  2  0
 11 21  1  0
 19 21  2  0
 21 22  1  0
 11 23  2  0
 14 24  2  0
 24 25  1  0
 17 26  1  0
 25 26  2  0
 17 27  1  0
 15 28  1  6
 27 28  1  0
 19 29  1  0
 24 29  1  0
 22 30  1  0
 30 31  2  0
 22 32  2  0
 29 32  1  1
 27 33  1  6
 30 34  1  0
 34 35  1  0
 35 36  1  0
 36 37  1  0
 36 38  1  1
M  END
$$$$
O14757_Pocket2Mol_idx-in-all-generaetd-839
     RDKit          3D

 24 28  0  0  0  0  0  0  0  0999 V2000
    5.5575   -0.4055   43.2321 N   0  0  0  0  0  0  0  0  0  0  0  0
    5.4916   -1.4617   44.0350 C   0  0  0  0  0  0  0  0  0  0  0  0
    4.3553   -0.1547   42.7099 N   0  0  0  0  0  0  0  0  0  0  0  0
    3.5224   -1.1568   42.9284 C   0  0  0  0  0  0  0  0  0  0  0  0
    2.1507   -1.3006   42.5845 C   0  0  0  0  0  0  0  0  0  0  0  0
    4.2124   -1.9924   43.9667 C   0  0  1  0  0  0  0  0  0  0  0  0
    3.6929   -3.2283   44.3876 C   0  0  0  0  0  0  0  0  0  0  0  0
    6.5651   -2.0426   44.8298 C   0  0  0  0  0  0  0  0  0  0  0  0
    7.6833   -1.2716   45.0970 C   0  0  0  0  0  0  0  0  0  0  0  0
    6.2468   -2.9038   45.8838 C   0  0  0  0  0  0  0  0  0  0  0  0
    1.4576   -2.4785   42.6650 C   0  0  1  0  0  0  0  0  0  0  0  0
    1.5384   -0.1297   42.0802 C   0  0  0  0  0  0  0  0  0  0  0  0
    2.6511   -3.8570   44.0676 C   0  0  0  0  0  0  0  0  0  0  0  0
    1.6090   -3.4980   43.1647 C   0  0  0  0  0  0  0  0  0  0  0  0
    0.6908   -4.5477   43.0875 N   0  0  0  0  0  0  0  0  0  0  0  0
    0.2168   -2.0759   41.9239 C   0  0  0  0  0  0  0  0  0  0  0  0
    7.5356   -3.1085   46.6525 C   0  0  0  0  0  0  0  0  0  0  0  0
    2.4864   -5.1883   44.6960 C   0  0  0  0  0  0  0  0  0  0  0  0
    8.4346   -1.9391   46.2039 N   0  0  0  0  0  0  0  0  0  0  0  0
    9.7431   -1.8109   46.6107 C   0  0  0  0  0  0  0  0  0  0  0  0
    0.2121   -0.5211   41.5014 C   0  0  0  0  0  0  0  0  0  0  0  0
    0.7918   -5.6770   43.8758 C   0  0  0  0  0  0  0  0  0  0  0  0
   10.5260   -1.3475   45.8232 O   0  0  0  0  0  0  0  0  0  0  0  0
   10.0224   -1.8563   48.0044 C   0  0  0  0  0  0  0  0  0  0  0  0
  1  2  2  0
  1  3  1  0
  3  4  2  0
  4  5  1  0
  2  6  1  0
  4  6  1  0
  6  7  1  6
  2  8  1  0
  8  9  1  0
  8 10  2  0
  5 11  1  0
  5 12  2  0
  7 13  2  0
 11 14  1  0
 13 14  1  0
 14 15  2  0
 11 16  1  1
 10 17  1  0
 13 18  1  0
  9 19  1  0
 17 19  1  0
 19 20  1  0
 12 21  1  0
 16 21  2  0
 15 22  1  0
 18 22  2  0
 20 23  2  0
 20 24  1  0
M  END
$$$$
O14757_Pocket2Mol_idx-in-all-generaetd-840
     RDKit          3D

 48 57  0  0  0  0  0  0  0  0999 V2000
    1.5482   -0.3111   41.9233 C   0  0  0  0  0  0  0  0  0  0  0  0
    2.7284    0.2018   42.1525 N   0  0  0  0  0  0  0  0  0  0  0  0
    3.7893   -0.3016   42.7005 C   0  0  0  0  0  0  0  0  0  0  0  0
    3.3781   -1.7350   43.0000 C   0  0  0  0  0  0  0  0  0  0  0  0
    2.0339   -1.9619   42.6217 C   0  0  0  0  0  0  0  0  0  0  0  0
    5.0090    0.1219   42.9340 N   0  0  0  0  0  0  0  0  0  0  0  0
    4.2895   -2.4979   43.6707 C   0  0  0  0  0  0  0  0  0  0  0  0
    5.8391   -0.6675   43.6343 C   0  0  0  0  0  0  0  0  0  0  0  0
    6.9849   -0.2377   44.0028 N   0  0  0  0  0  0  0  0  0  0  0  0
    4.0426   -3.8794   44.0832 C   0  0  0  0  0  0  0  0  0  0  0  0
    7.6796   -0.8734   44.9326 C   0  0  0  0  0  0  0  0  0  0  0  0
    1.1064   -2.9576   42.4211 C   0  0  0  0  0  0  0  0  0  0  0  0
    5.5298   -1.9496   44.0315 C   0  0  0  0  0  0  0  0  0  0  0  0
    3.8954   -4.1817   45.4718 C   0  0  0  0  0  0  0  0  0  0  0  0
    0.6765   -3.5480   43.4006 C   0  0  1  0  0  0  0  0  0  0  0  0
    0.5804   -3.2191   41.1635 C   0  0  0  0  0  0  0  0  0  0  0  0
    2.8083   -4.8227   45.9203 N   0  0  0  0  0  0  0  0  0  0  0  0
   -0.1574   -4.5754   42.9329 N   0  0  0  0  0  0  0  0  0  0  0  0
    6.5271   -2.5531   44.9677 C   0  0  0  0  0  0  0  0  0  0  0  0
   -0.2272   -4.3703   41.5137 C   0  0  0  0  0  0  0  0  0  0  0  0
    7.5095   -2.0029   45.3993 C   0  0  0  0  0  0  0  0  0  0  0  0
    8.2550   -2.6982   46.3988 C   0  0  0  0  0  0  0  0  0  0  0  0
    8.8975   -0.3029   45.3267 O   0  0  0  0  0  0  0  0  0  0  0  0
    4.8299   -4.4637   46.4212 C   0  0  0  0  0  0  0  0  0  0  0  0
    4.2707   -4.9248   47.6295 N   0  0  0  0  0  0  0  0  0  0  0  0
    3.2045   -5.2092   47.1521 C   0  0  0  0  0  0  0  0  0  0  0  0
    1.4482   -4.6186   45.4134 C   0  0  2  0  0  0  0  0  0  0  0  0
    1.2398   -3.5043   44.6236 O   0  0  0  0  0  0  0  0  0  0  0  0
    6.3317   -3.9297   46.0870 C   0  0  2  0  0  0  0  0  0  0  0  0
    9.5296   -2.5449   46.9776 C   0  0  0  0  0  0  0  0  0  0  0  0
    9.7921   -1.7530   47.9018 O   0  0  0  0  0  0  0  0  0  0  0  0
    7.3972   -3.8130   46.7939 C   0  0  0  0  0  0  0  0  0  0  0  0
   10.4154   -3.4217   46.6883 O   0  0  0  0  0  0  0  0  0  0  0  0
    0.5555   -4.7535   46.5674 C   0  0  0  0  0  0  0  0  0  0  0  0
   11.6497   -3.0596   47.0439 C   0  0  0  0  0  0  0  0  0  0  0  0
   12.3878   -4.1125   47.6990 C   0  0  1  0  0  0  0  0  0  0  0  0
   11.8800   -5.2760   47.5659 O   0  0  0  0  0  0  0  0  0  0  0  0
   12.1402   -1.9273   46.5416 C   0  0  0  0  0  0  0  0  0  0  0  0
   13.7566   -3.9428   47.4635 C   0  0  0  0  0  0  0  0  0  0  0  0
   11.3924   -5.9178   48.7514 C   0  0  0  0  0  0  0  0  0  0  0  0
   14.4126   -2.7430   47.0678 C   0  0  0  0  0  0  0  0  0  0  0  0
   13.4817   -1.7494   46.5455 C   0  0  0  0  0  0  0  0  0  0  0  0
   15.7358   -2.5357   47.0594 C   0  0  1  0  0  0  0  0  0  0  0  0
   14.0100   -0.6243   46.0829 C   0  0  0  0  0  0  0  0  0  0  0  0
   16.6116   -3.5372   47.4683 O   0  0  0  0  0  0  0  0  0  0  0  0
   13.1659    0.4962   45.5279 O   0  0  0  0  0  0  0  0  0  0  0  0
   15.4148   -0.2724   45.9962 C   0  0  0  0  0  0  0  0  0  0  0  0
   16.2617   -1.3070   46.4884 C   0  0  0  0  0  0  0  0  0  0  0  0
  1  2  1  0
  2  3  2  0
  3  4  1  0
  1  5  2  0
  4  5  1  0
  3  6  1  0
  4  7  2  0
  6  8  1  0
  8  9  1  0
  7 10  1  0
  9 11  1  0
  5 12  1  0
  7 13  1  0
  8 13  2  0
 10 14  1  0
 12 15  1  0
 12 16  2  0
 14 17  1  0
 15 18  1  0
 13 19  1  0
 16 20  1  0
 18 20  2  0
 11 21  1  0
 19 21  2  0
 21 22  1  0
 11 23  2  0
 14 24  2  0
 24 25  1  0
 17 26  1  0
 25 26  2  0
 17 27  1  0
 15 28  1  6
 27 28  1  0
 19 29  1  0
 24 29  1  0
 22 30  1  0
 30 31  2  0
 22 32  2  0
 29 32  1  1
 30 33  1  0
 27 34  1  1
 33 35  1  0
 35 36  1  0
 36 37  1  6
 35 38  2  0
 36 39  1  0
 37 40  1  0
 39 41  2  0
 38 42  1  0
 41 42  1  0
 41 43  1  0
 42 44  2  0
 43 45  1  6
 44 46  1  0
 44 47  1  0
 43 48  1  0
 47 48  2  0
M  END
$$$$
O14757_Pocket2Mol_idx-in-all-generaetd-841
     RDKit          3D

 38 44  0  0  0  0  0  0  0  0999 V2000
    4.5156    0.0550   42.9895 N   0  0  0  0  0  0  0  0  0  0  0  0
    5.0618   -0.8645   43.5295 C   0  0  0  0  0  0  0  0  0  0  0  0
    4.4350   -2.0604   43.7783 C   0  0  0  0  0  0  0  0  0  0  0  0
    4.9987   -3.0994   44.5839 C   0  0  0  0  0  0  0  0  0  0  0  0
    3.2714   -1.8664   43.0632 C   0  0  0  0  0  0  0  0  0  0  0  0
    6.4064   -0.5942   44.3204 N   0  0  0  0  0  0  0  0  0  0  0  0
    4.3422   -4.3256   44.7203 C   0  0  0  0  0  0  0  0  0  0  0  0
    2.1845   -2.6668   42.8270 N   0  0  0  0  0  0  0  0  0  0  0  0
    3.3305   -0.5395   42.5465 N   0  0  0  0  0  0  0  0  0  0  0  0
    1.9502   -3.8972   43.4076 C   0  0  0  0  0  0  0  0  0  0  0  0
    2.7156   -4.1184   44.6954 N   0  0  0  0  0  0  0  0  0  0  0  0
    6.8581   -1.5862   45.1101 C   0  0  0  0  0  0  0  0  0  0  0  0
    6.1801   -2.8430   45.2383 C   0  0  0  0  0  0  0  0  0  0  0  0
    2.1454   -5.1901   45.5771 C   0  0  0  0  0  0  0  0  0  0  0  0
    8.0137   -1.3946   45.8526 C   0  0  0  0  0  0  0  0  0  0  0  0
    0.9733   -4.5725   43.2066 O   0  0  0  0  0  0  0  0  0  0  0  0
    2.2437    0.0035   41.8733 C   0  0  0  0  0  0  0  0  0  0  0  0
    1.3210   -2.2077   41.7009 C   0  0  0  0  0  0  0  0  0  0  0  0
    8.6047   -2.2876   46.6923 C   0  0  0  0  0  0  0  0  0  0  0  0
    7.9141   -3.5157   46.8869 C   0  0  0  0  0  0  0  0  0  0  0  0
    1.0501   -0.8658   41.6612 C   0  0  0  0  0  0  0  0  0  0  0  0
    6.7278   -3.7718   46.2525 C   0  0  0  0  0  0  0  0  0  0  0  0
    9.8280   -2.0492   47.3361 C   0  0  0  0  0  0  0  0  0  0  0  0
    9.8262   -1.5735   48.5432 C   0  0  0  0  0  0  0  0  0  0  0  0
   11.0745   -2.0905   46.6735 C   0  0  0  0  0  0  0  0  0  0  0  0
   11.1189   -2.5101   45.2315 C   0  0  0  0  0  0  0  0  0  0  0  0
   12.2489   -1.7755   47.2629 C   0  0  0  0  0  0  0  0  0  0  0  0
   11.2018   -3.6539   44.9133 O   0  0  0  0  0  0  0  0  0  0  0  0
   11.2916   -1.6083   44.2949 O   0  0  0  0  0  0  0  0  0  0  0  0
   13.5104   -1.9608   46.5468 C   0  0  0  0  0  0  0  0  0  0  0  0
   14.0872   -0.7790   46.1049 C   0  0  0  0  0  0  0  0  0  0  0  0
   11.0100   -1.3236   49.2625 C   0  0  0  0  0  0  0  0  0  0  0  0
   12.2124   -1.4367   48.6485 C   0  0  0  0  0  0  0  0  0  0  0  0
   14.9705   -0.7736   45.1682 C   0  0  0  0  0  0  0  0  0  0  0  0
   15.4064   -2.0873   44.8825 C   0  0  0  0  0  0  0  0  0  0  0  0
   14.0108   -3.1299   46.3520 C   0  0  0  0  0  0  0  0  0  0  0  0
   13.6142   -4.3160   46.9979 O   0  0  0  0  0  0  0  0  0  0  0  0
   15.1208   -3.1651   45.5119 C   0  0  0  0  0  0  0  0  0  0  0  0
  1  2  2  0
  2  3  1  0
  3  4  1  0
  3  5  2  0
  2  6  1  0
  4  7  1  0
  5  8  1  0
  1  9  1  0
  5  9  1  0
  8 10  1  0
  7 11  1  0
 10 11  1  0
  6 12  2  0
  4 13  2  0
 12 13  1  0
 11 14  1  0
 12 15  1  0
 10 16  2  0
  9 17  1  0
  8 18  1  0
 15 19  2  0
 19 20  1  0
 17 21  1  0
 18 21  1  0
 13 22  1  0
 20 22  2  0
 19 23  1  0
 23 24  2  0
 23 25  1  0
 25 26  1  0
 25 27  2  0
 26 28  1  0
 26 29  2  0
 27 30  1  0
 30 31  2  0
 24 32  1  0
 27 33  1  0
 32 33  2  0
 31 34  1  0
 34 35  2  0
 30 36  1  0
 36 37  1  0
 35 38  1  0
 36 38  2  0
M  END
$$$$
O14757_Pocket2Mol_idx-in-all-generaetd-842
     RDKit          3D

 32 37  0  0  0  0  0  0  0  0999 V2000
    1.5482   -0.3111   41.9233 C   0  0  0  0  0  0  0  0  0  0  0  0
    2.7284    0.2018   42.1525 N   0  0  0  0  0  0  0  0  0  0  0  0
    3.7893   -0.3016   42.7005 C   0  0  0  0  0  0  0  0  0  0  0  0
    3.3781   -1.7350   43.0000 C   0  0  0  0  0  0  0  0  0  0  0  0
    2.0339   -1.9619   42.6217 C   0  0  0  0  0  0  0  0  0  0  0  0
    5.0090    0.1219   42.9340 N   0  0  0  0  0  0  0  0  0  0  0  0
    4.2895   -2.4979   43.6707 C   0  0  0  0  0  0  0  0  0  0  0  0
    5.8391   -0.6675   43.6343 C   0  0  0  0  0  0  0  0  0  0  0  0
    6.9849   -0.2377   44.0028 N   0  0  0  0  0  0  0  0  0  0  0  0
    4.0426   -3.8794   44.0832 C   0  0  0  0  0  0  0  0  0  0  0  0
    7.6796   -0.8734   44.9326 C   0  0  0  0  0  0  0  0  0  0  0  0
    1.1064   -2.9576   42.4211 C   0  0  0  0  0  0  0  0  0  0  0  0
    5.5298   -1.9496   44.0315 C   0  0  0  0  0  0  0  0  0  0  0  0
    3.8954   -4.1817   45.4718 C   0  0  0  0  0  0  0  0  0  0  0  0
    0.6765   -3.5480   43.4006 C   0  0  0  0  0  0  0  0  0  0  0  0
    0.5804   -3.2191   41.1635 C   0  0  0  0  0  0  0  0  0  0  0  0
    2.8083   -4.8227   45.9203 N   0  0  0  0  0  0  0  0  0  0  0  0
   -0.2895   -4.3411   41.4783 C   0  0  0  0  0  0  0  0  0  0  0  0
    1.6241   -4.1113   46.2493 C   0  0  0  0  0  0  0  0  0  0  0  0
    6.2863   -2.7050   44.9803 C   0  0  0  0  0  0  0  0  0  0  0  0
    1.0882   -3.7164   44.7216 C   0  0  0  0  0  0  0  0  0  0  0  0
    8.8985   -0.3341   45.3420 O   0  0  0  0  0  0  0  0  0  0  0  0
    7.4055   -2.1315   45.4246 C   0  0  0  0  0  0  0  0  0  0  0  0
   -0.2918   -4.5804   42.8509 N   0  0  0  0  0  0  0  0  0  0  0  0
    8.3728   -2.8281   46.3777 C   0  0  0  0  0  0  0  0  0  0  0  0
    8.4072   -4.1332   46.4009 C   0  0  0  0  0  0  0  0  0  0  0  0
    9.3109   -2.2410   47.2139 C   0  0  0  0  0  0  0  0  0  0  0  0
    9.1730   -4.9411   47.1540 C   0  0  0  0  0  0  0  0  0  0  0  0
    9.1203   -6.3907   47.0855 O   0  0  0  0  0  0  0  0  0  0  0  0
   10.1020   -4.3285   48.0302 C   0  0  0  0  0  0  0  0  0  0  0  0
   10.1431   -2.7921   47.9992 C   0  0  0  0  0  0  0  0  0  0  0  0
   10.1996   -6.9728   46.9860 C   0  0  0  0  0  0  0  0  0  0  0  0
  1  2  1  0
  2  3  2  0
  3  4  1  0
  1  5  2  0
  4  5  1  0
  3  6  1  0
  4  7  2  0
  6  8  1  0
  8  9  1  0
  7 10  1  0
  9 11  1  0
  5 12  1  0
  7 13  1  0
  8 13  2  0
 10 14  1  0
 12 15  1  0
 12 16  2  0
 14 17  1  0
 16 18  1  0
 17 19  1  0
 13 20  1  0
 15 21  2  3
 19 21  1  0
 11 22  2  0
 11 23  1  0
 20 23  2  0
 15 24  1  0
 18 24  2  0
 23 25  1  0
 25 26  2  0
 25 27  1  0
 26 28  1  0
 28 29  1  0
 28 30  2  0
 27 31  2  0
 30 31  1  0
 29 32  1  0
M  END
$$$$
O14757_Pocket2Mol_idx-in-all-generaetd-843
     RDKit          3D

 34 38  0  0  0  0  0  0  0  0999 V2000
    4.5142    0.3543   42.7132 N   0  0  0  0  0  0  0  0  0  0  0  0
    3.5107   -0.4860   42.6298 C   0  0  0  0  0  0  0  0  0  0  0  0
    3.5891   -1.7637   43.2512 N   0  0  0  0  0  0  0  0  0  0  0  0
    5.5470   -0.0112   43.3539 C   0  0  0  0  0  0  0  0  0  0  0  0
    2.1469   -0.1899   41.9512 C   0  0  0  0  0  0  0  0  0  0  0  0
    4.6725   -2.0734   43.8606 C   0  0  0  0  0  0  0  0  0  0  0  0
    5.7749   -1.1829   43.9325 C   0  0  0  0  0  0  0  0  0  0  0  0
    4.7150   -3.3068   44.6440 C   0  0  0  0  0  0  0  0  0  0  0  0
    6.9086   -1.5797   44.6919 C   0  0  0  0  0  0  0  0  0  0  0  0
    3.5691   -4.2517   44.6407 C   0  0  0  0  0  0  0  0  0  0  0  0
    2.3573   -4.0060   44.5430 C   0  0  0  0  0  0  0  0  0  0  0  0
    6.9170   -2.8018   45.4663 C   0  0  0  0  0  0  0  0  0  0  0  0
    5.8006   -3.6152   45.4297 C   0  0  0  0  0  0  0  0  0  0  0  0
    8.0903   -3.1108   46.2193 C   0  0  0  0  0  0  0  0  0  0  0  0
    4.0064   -5.4798   44.1304 O   0  0  0  0  0  0  0  0  0  0  0  0
    1.3499   -4.4927   43.7488 C   0  0  0  0  0  0  0  0  0  0  0  0
    8.9407   -2.1153   46.7855 N   0  0  0  0  0  0  0  0  0  0  0  0
    9.9131   -2.4307   47.6296 C   0  0  0  0  0  0  0  0  0  0  0  0
    9.9401   -2.1931   48.7722 O   0  0  0  0  0  0  0  0  0  0  0  0
    1.6925   -3.8787   45.7737 C   0  0  0  0  0  0  0  0  0  0  0  0
    0.0956   -4.4506   43.8726 C   0  0  0  0  0  0  0  0  0  0  0  0
   -0.4743   -4.1254   44.9651 C   0  0  0  0  0  0  0  0  0  0  0  0
   11.1474   -2.9718   46.9683 C   0  0  0  0  0  0  0  0  0  0  0  0
    0.1760   -3.8909   45.9333 C   0  0  0  0  0  0  0  0  0  0  0  0
   11.1208   -4.2039   46.7415 C   0  0  0  0  0  0  0  0  0  0  0  0
   10.0412   -5.1887   46.8168 O   0  0  0  0  0  0  0  0  0  0  0  0
   10.4183   -6.3723   46.3087 C   0  0  0  0  0  0  0  0  0  0  0  0
   12.3853   -4.9158   46.3459 C   0  0  0  0  0  0  0  0  0  0  0  0
   12.2368   -2.1585   46.6785 C   0  0  0  0  0  0  0  0  0  0  0  0
   12.4271   -6.3323   46.2380 O   0  0  0  0  0  0  0  0  0  0  0  0
   11.4652   -6.9767   46.5386 C   0  0  0  0  0  0  0  0  0  0  0  0
   13.5266   -4.2577   46.1756 C   0  0  0  0  0  0  0  0  0  0  0  0
   12.2384   -0.7527   46.8671 C   0  0  0  0  0  0  0  0  0  0  0  0
   13.4734   -2.7783   46.3219 C   0  0  0  0  0  0  0  0  0  0  0  0
  1  2  2  0
  2  3  1  0
  1  4  1  0
  2  5  1  0
  3  6  2  0
  4  7  2  0
  6  7  1  0
  6  8  1  0
  7  9  1  0
  8 10  1  0
 10 11  1  0
  9 12  2  0
  8 13  2  0
 12 13  1  0
 12 14  1  0
 10 15  2  0
 11 16  2  0
 14 17  1  0
 17 18  1  0
 18 19  2  0
 11 20  1  0
 16 21  1  0
 21 22  2  0
 18 23  1  0
 20 24  2  0
 22 24  1  0
 23 25  1  0
 25 26  1  0
 26 27  1  0
 25 28  2  0
 23 29  2  0
 28 30  1  0
 27 31  1  0
 30 31  1  0
 28 32  1  0
 29 33  1  0
 29 34  1  0
 32 34  2  0
M  END
$$$$
O14757_Pocket2Mol_idx-in-all-generaetd-844
     RDKit          3D

 48 57  0  0  0  0  0  0  0  0999 V2000
    1.5482   -0.3111   41.9233 C   0  0  0  0  0  0  0  0  0  0  0  0
    2.7284    0.2018   42.1525 N   0  0  0  0  0  0  0  0  0  0  0  0
    3.7893   -0.3016   42.7005 C   0  0  0  0  0  0  0  0  0  0  0  0
    3.3781   -1.7350   43.0000 C   0  0  0  0  0  0  0  0  0  0  0  0
    2.0339   -1.9619   42.6217 C   0  0  0  0  0  0  0  0  0  0  0  0
    5.0090    0.1219   42.9340 N   0  0  0  0  0  0  0  0  0  0  0  0
    4.2895   -2.4979   43.6707 C   0  0  0  0  0  0  0  0  0  0  0  0
    5.8391   -0.6675   43.6343 C   0  0  0  0  0  0  0  0  0  0  0  0
    6.9849   -0.2377   44.0028 N   0  0  0  0  0  0  0  0  0  0  0  0
    4.0426   -3.8794   44.0832 C   0  0  0  0  0  0  0  0  0  0  0  0
    7.6796   -0.8734   44.9326 C   0  0  0  0  0  0  0  0  0  0  0  0
    1.1064   -2.9576   42.4211 C   0  0  0  0  0  0  0  0  0  0  0  0
    5.5298   -1.9496   44.0315 C   0  0  0  0  0  0  0  0  0  0  0  0
    3.8954   -4.1817   45.4718 C   0  0  0  0  0  0  0  0  0  0  0  0
    0.6765   -3.5480   43.4006 C   0  0  1  0  0  0  0  0  0  0  0  0
    0.5804   -3.2191   41.1635 C   0  0  0  0  0  0  0  0  0  0  0  0
    2.8083   -4.8227   45.9203 N   0  0  0  0  0  0  0  0  0  0  0  0
   -0.1574   -4.5754   42.9329 N   0  0  0  0  0  0  0  0  0  0  0  0
    6.5271   -2.5531   44.9677 C   0  0  0  0  0  0  0  0  0  0  0  0
   -0.2272   -4.3703   41.5137 C   0  0  0  0  0  0  0  0  0  0  0  0
    7.5095   -2.0029   45.3993 C   0  0  0  0  0  0  0  0  0  0  0  0
    8.2550   -2.6982   46.3988 C   0  0  1  0  0  0  0  0  0  0  0  0
    8.8975   -0.3029   45.3267 O   0  0  0  0  0  0  0  0  0  0  0  0
    4.8299   -4.4637   46.4212 C   0  0  0  0  0  0  0  0  0  0  0  0
    4.2707   -4.9248   47.6295 N   0  0  0  0  0  0  0  0  0  0  0  0
    3.2045   -5.2092   47.1521 C   0  0  0  0  0  0  0  0  0  0  0  0
    1.4482   -4.6186   45.4134 C   0  0  0  0  0  0  0  0  0  0  0  0
    1.3256   -3.7660   44.6394 N   0  0  0  0  0  0  0  0  0  0  0  0
    9.2816   -2.1418   47.1273 N   0  0  0  0  0  0  0  0  0  0  0  0
   10.0629   -3.1324   47.8508 C   0  0  0  0  0  0  0  0  0  0  0  0
    6.3491   -3.8960   46.0844 C   0  0  2  0  0  0  0  0  0  0  0  0
    7.4349   -3.5889   46.9054 C   0  0  0  0  0  0  0  0  0  0  0  0
   10.3145   -2.7271   49.0818 O   0  0  0  0  0  0  0  0  0  0  0  0
    0.6213   -5.4445   45.7455 O   0  0  0  0  0  0  0  0  0  0  0  0
   11.0262   -3.8136   47.1050 C   0  0  0  0  0  0  0  0  0  0  0  0
   12.1704   -3.3854   46.7547 C   0  0  0  0  0  0  0  0  0  0  0  0
   13.1080   -4.1111   46.0053 C   0  0  0  0  0  0  0  0  0  0  0  0
   14.3489   -3.5966   45.7888 C   0  0  0  0  0  0  0  0  0  0  0  0
   12.7430   -5.2725   45.5056 C   0  0  0  0  0  0  0  0  0  0  0  0
   10.8315   -5.3520   46.8908 C   0  0  0  0  0  0  0  0  0  0  0  0
   11.5834   -5.8795   45.9965 C   0  0  0  0  0  0  0  0  0  0  0  0
   14.5673   -2.2844   45.3294 C   0  0  0  0  0  0  0  0  0  0  0  0
   15.6990   -1.9377   44.9307 C   0  0  0  0  0  0  0  0  0  0  0  0
   15.4698   -4.3840   45.9734 C   0  0  0  0  0  0  0  0  0  0  0  0
   15.3726   -5.7464   46.5341 O   0  0  0  0  0  0  0  0  0  0  0  0
   16.8663   -2.6545   45.1307 C   0  0  0  0  0  0  0  0  0  0  0  0
   18.1345   -2.1797   44.7234 O   0  0  0  0  0  0  0  0  0  0  0  0
   16.8465   -3.9018   45.6454 C   0  0  0  0  0  0  0  0  0  0  0  0
  1  2  1  0
  2  3  2  0
  3  4  1  0
  1  5  2  0
  4  5  1  0
  3  6  1  0
  4  7  2  0
  6  8  1  0
  8  9  1  0
  7 10  1  0
  9 11  1  0
  5 12  1  0
  7 13  1  0
  8 13  2  0
 10 14  1  0
 12 15  1  0
 12 16  2  0
 14 17  1  0
 15 18  1  0
 13 19  1  0
 16 20  1  0
 18 20  2  0
 11 21  1  0
 19 21  2  0
 21 22  1  0
 11 23  2  0
 14 24  2  0
 24 25  1  0
 17 26  1  0
 25 26  2  0
 17 27  1  0
 15 28  1  6
 27 28  1  0
 22 29  1  1
 29 30  1  0
 19 31  1  0
 24 31  1  0
 22 32  1  0
 31 32  1  1
 30 33  2  0
 27 34  2  0
 30 35  1  0
 35 36  2  0
 36 37  1  0
 37 38  1  0
 37 39  2  0
 35 40  1  0
 39 41  1  0
 40 41  2  0
 38 42  2  0
 42 43  1  0
 38 44  1  0
 44 45  1  0
 43 46  2  0
 46 47  1  0
 44 48  2  0
 46 48  1  0
M  END
$$$$
O14757_Pocket2Mol_idx-in-all-generaetd-845
     RDKit          3D

 49 58  0  0  0  0  0  0  0  0999 V2000
    1.5482   -0.3111   41.9233 C   0  0  0  0  0  0  0  0  0  0  0  0
    2.7284    0.2018   42.1525 N   0  0  0  0  0  0  0  0  0  0  0  0
    3.7893   -0.3016   42.7005 C   0  0  0  0  0  0  0  0  0  0  0  0
    3.3781   -1.7350   43.0000 C   0  0  0  0  0  0  0  0  0  0  0  0
    2.0339   -1.9619   42.6217 C   0  0  0  0  0  0  0  0  0  0  0  0
    5.0090    0.1219   42.9340 N   0  0  0  0  0  0  0  0  0  0  0  0
    4.2895   -2.4979   43.6707 C   0  0  0  0  0  0  0  0  0  0  0  0
    5.8391   -0.6675   43.6343 C   0  0  0  0  0  0  0  0  0  0  0  0
    6.9849   -0.2377   44.0028 N   0  0  0  0  0  0  0  0  0  0  0  0
    4.0426   -3.8794   44.0832 C   0  0  0  0  0  0  0  0  0  0  0  0
    7.6796   -0.8734   44.9326 C   0  0  0  0  0  0  0  0  0  0  0  0
    1.1064   -2.9576   42.4211 C   0  0  0  0  0  0  0  0  0  0  0  0
    5.5298   -1.9496   44.0315 C   0  0  0  0  0  0  0  0  0  0  0  0
    3.8954   -4.1817   45.4718 C   0  0  0  0  0  0  0  0  0  0  0  0
    0.6765   -3.5480   43.4006 C   0  0  1  0  0  0  0  0  0  0  0  0
    0.5804   -3.2191   41.1635 C   0  0  0  0  0  0  0  0  0  0  0  0
    2.8083   -4.8227   45.9203 N   0  0  0  0  0  0  0  0  0  0  0  0
   -0.1574   -4.5754   42.9329 N   0  0  0  0  0  0  0  0  0  0  0  0
    6.5271   -2.5531   44.9677 C   0  0  0  0  0  0  0  0  0  0  0  0
   -0.2272   -4.3703   41.5137 C   0  0  0  0  0  0  0  0  0  0  0  0
    7.5095   -2.0029   45.3993 C   0  0  0  0  0  0  0  0  0  0  0  0
    8.2550   -2.6982   46.3988 C   0  0  2  0  0  0  0  0  0  0  0  0
    8.8975   -0.3029   45.3267 O   0  0  0  0  0  0  0  0  0  0  0  0
    4.8299   -4.4637   46.4212 C   0  0  0  0  0  0  0  0  0  0  0  0
    4.2707   -4.9248   47.6295 N   0  0  0  0  0  0  0  0  0  0  0  0
    3.2045   -5.2092   47.1521 C   0  0  0  0  0  0  0  0  0  0  0  0
    1.4482   -4.6186   45.4134 C   0  0  2  0  0  0  0  0  0  0  0  0
    1.2398   -3.5043   44.6236 O   0  0  0  0  0  0  0  0  0  0  0  0
    6.3317   -3.9297   46.0870 C   0  0  2  0  0  0  0  0  0  0  0  0
    9.5296   -2.5449   46.9776 C   0  0  0  0  0  0  0  0  0  0  0  0
    9.7921   -1.7530   47.9018 O   0  0  0  0  0  0  0  0  0  0  0  0
    7.4454   -3.8344   46.8035 C   0  0  0  0  0  0  0  0  0  0  0  0
   10.5010   -3.0847   46.3190 O   0  0  0  0  0  0  0  0  0  0  0  0
    0.5569   -4.7693   46.5649 C   0  0  0  0  0  0  0  0  0  0  0  0
   11.7452   -2.8462   46.6234 C   0  0  0  0  0  0  0  0  0  0  0  0
   12.4344   -1.8951   45.7393 C   0  0  0  0  0  0  0  0  0  0  0  0
   12.4612   -3.5429   47.5581 C   0  0  0  0  0  0  0  0  0  0  0  0
   11.7737   -4.5216   48.4115 C   0  0  0  0  0  0  0  0  0  0  0  0
   13.7761   -1.6251   45.9829 C   0  0  0  0  0  0  0  0  0  0  0  0
   13.7909   -3.1787   47.7950 C   0  0  0  0  0  0  0  0  0  0  0  0
   14.4374   -0.6496   45.1506 C   0  0  0  0  0  0  0  0  0  0  0  0
   14.5863   -3.8413   48.8675 O   0  0  0  0  0  0  0  0  0  0  0  0
   14.4586   -2.2541   47.0105 C   0  0  0  0  0  0  0  0  0  0  0  0
   14.2838   -0.7700   43.8201 C   0  0  0  0  0  0  0  0  0  0  0  0
   14.9711    0.0529   42.9796 C   0  0  0  0  0  0  0  0  0  0  0  0
   15.5797    1.1587   43.6271 C   0  0  0  0  0  0  0  0  0  0  0  0
   16.3023    2.1446   42.7666 O   0  0  0  0  0  0  0  0  0  0  0  0
   15.7898    1.5651   44.8928 C   0  0  0  0  0  0  0  0  0  0  0  0
   15.0823    0.5337   45.8311 C   0  0  0  0  0  0  0  0  0  0  0  0
  1  2  1  0
  2  3  2  0
  3  4  1  0
  1  5  2  0
  4  5  1  0
  3  6  1  0
  4  7  2  0
  6  8  1  0
  8  9  1  0
  7 10  1  0
  9 11  1  0
  5 12  1  0
  7 13  1  0
  8 13  2  0
 10 14  1  0
 12 15  1  0
 12 16  2  0
 14 17  1  0
 15 18  1  0
 13 19  1  0
 16 20  1  0
 18 20  2  0
 11 21  1  0
 19 21  2  0
 21 22  1  0
 11 23  2  0
 14 24  2  0
 24 25  1  0
 17 26  1  0
 25 26  2  0
 17 27  1  0
 15 28  1  6
 27 28  1  0
 19 29  1  0
 24 29  1  0
 22 30  1  6
 30 31  2  0
 22 32  1  0
 29 32  1  1
 30 33  1  0
 27 34  1  1
 33 35  1  0
 35 36  2  0
 35 37  1  0
 37 38  1  0
 36 39  1  0
 37 40  2  0
 39 41  1  0
 40 42  1  0
 39 43  2  0
 40 43  1  0
 41 44  2  0
 44 45  1  0
 45 46  2  0
 46 47  1  0
 46 48  1  0
 41 49  1  0
 48 49  2  0
M  END
$$$$
O14757_Pocket2Mol_idx-in-all-generaetd-846
     RDKit          3D

 23 27  0  0  0  0  0  0  0  0999 V2000
    4.5156    0.0550   42.9895 N   0  0  0  0  0  0  0  0  0  0  0  0
    5.0618   -0.8645   43.5295 C   0  0  0  0  0  0  0  0  0  0  0  0
    4.4350   -2.0604   43.7783 C   0  0  0  0  0  0  0  0  0  0  0  0
    3.1949   -1.8657   43.0982 C   0  0  0  0  0  0  0  0  0  0  0  0
    4.9542   -3.1463   44.5335 C   0  0  0  0  0  0  0  0  0  0  0  0
    6.4558   -0.5585   44.1886 N   0  0  0  0  0  0  0  0  0  0  0  0
    4.2721   -4.3244   44.6685 C   0  0  0  0  0  0  0  0  0  0  0  0
    2.1703   -2.7509   42.8781 C   0  0  0  0  0  0  0  0  0  0  0  0
    5.9828   -2.9133   45.5213 C   0  0  0  0  0  0  0  0  0  0  0  0
    6.9086   -1.5074   45.1325 C   0  0  0  0  0  0  0  0  0  0  0  0
    3.2765   -0.4576   42.4761 C   0  0  0  0  0  0  0  0  0  0  0  0
    6.4419   -3.9195   46.2207 C   0  0  0  0  0  0  0  0  0  0  0  0
    2.2978    0.1055   41.9789 N   0  0  0  0  0  0  0  0  0  0  0  0
    4.6348   -5.2697   45.5724 C   0  0  0  0  0  0  0  0  0  0  0  0
    7.9237   -1.3626   46.0251 C   0  0  0  0  0  0  0  0  0  0  0  0
    1.1461   -0.6630   41.7112 C   0  0  0  0  0  0  0  0  0  0  0  0
    1.0232   -2.0141   42.1688 C   0  0  0  0  0  0  0  0  0  0  0  0
    8.6268   -0.3975   45.9645 O   0  0  0  0  0  0  0  0  0  0  0  0
    5.7312   -5.0412   46.3931 C   0  0  0  0  0  0  0  0  0  0  0  0
    8.3426   -2.4677   46.8682 N   0  0  0  0  0  0  0  0  0  0  0  0
    7.6510   -3.5507   47.0559 C   0  0  0  0  0  0  0  0  0  0  0  0
    0.1626   -2.7050   41.8129 N   0  0  0  0  0  0  0  0  0  0  0  0
    0.0095   -3.6906   40.9036 O   0  0  0  0  0  0  0  0  0  0  0  0
  1  2  2  0
  2  3  1  0
  3  4  2  0
  3  5  1  0
  2  6  1  0
  5  7  2  0
  4  8  1  0
  5  9  1  0
  6 10  2  0
  9 10  1  0
  1 11  1  0
  4 11  1  0
  9 12  2  0
 11 13  2  0
  7 14  1  0
 10 15  1  0
 13 16  1  0
  8 17  1  0
 16 17  1  0
 15 18  2  0
 12 19  1  0
 14 19  2  0
 15 20  1  0
 12 21  1  0
 20 21  2  0
 17 22  2  3
 22 23  1  0
M  END
$$$$
O14757_Pocket2Mol_idx-in-all-generaetd-847
     RDKit          3D

 42 50  0  0  0  0  0  0  0  0999 V2000
    1.5482   -0.3111   41.9233 C   0  0  0  0  0  0  0  0  0  0  0  0
    2.7284    0.2018   42.1525 N   0  0  0  0  0  0  0  0  0  0  0  0
    3.7893   -0.3016   42.7005 C   0  0  0  0  0  0  0  0  0  0  0  0
    3.3781   -1.7350   43.0000 C   0  0  0  0  0  0  0  0  0  0  0  0
    2.0339   -1.9619   42.6217 C   0  0  0  0  0  0  0  0  0  0  0  0
    4.1166   -2.4997   43.8458 C   0  0  0  0  0  0  0  0  0  0  0  0
    1.1731   -3.0051   42.5773 C   0  0  0  0  0  0  0  0  0  0  0  0
    0.4701   -3.2344   41.4901 C   0  0  0  0  0  0  0  0  0  0  0  0
    5.3799   -1.7814   44.2691 C   0  0  0  0  0  0  0  0  0  0  0  0
    5.0159   -0.0180   43.1201 N   0  0  0  0  0  0  0  0  0  0  0  0
    5.7693   -0.6937   43.8418 C   0  0  0  0  0  0  0  0  0  0  0  0
    0.8078   -3.6166   43.6782 C   0  0  0  0  0  0  0  0  0  0  0  0
    0.0663   -4.7011   43.7415 N   0  0  0  0  0  0  0  0  0  0  0  0
    6.2223   -2.6843   45.1565 C   0  0  0  0  0  0  0  0  0  0  0  0
    6.9599   -0.2351   44.2608 N   0  0  0  0  0  0  0  0  0  0  0  0
    5.9065   -3.9037   45.7499 N   0  0  0  0  0  0  0  0  0  0  0  0
   -0.5459   -5.1185   42.5870 C   0  0  0  0  0  0  0  0  0  0  0  0
    5.7480   -4.0340   46.9810 C   0  0  0  0  0  0  0  0  0  0  0  0
    7.4448   -1.8511   45.4198 C   0  0  0  0  0  0  0  0  0  0  0  0
    7.7572   -0.7827   45.0128 C   0  0  0  0  0  0  0  0  0  0  0  0
    8.4076   -2.7217   46.4541 C   0  0  0  0  0  0  0  0  0  0  0  0
    9.3167   -2.0988   47.1049 N   0  0  0  0  0  0  0  0  0  0  0  0
   -0.4719   -4.3893   41.5406 C   0  0  0  0  0  0  0  0  0  0  0  0
    8.3667   -4.0284   46.5743 N   0  0  0  0  0  0  0  0  0  0  0  0
    9.5309   -4.3147   47.3094 C   0  0  0  0  0  0  0  0  0  0  0  0
    5.3113   -3.3789   47.8005 O   0  0  0  0  0  0  0  0  0  0  0  0
    9.9022   -5.6301   47.7684 C   0  0  0  0  0  0  0  0  0  0  0  0
    5.4470   -5.5868   47.2096 C   0  0  0  0  0  0  0  0  0  0  0  0
   11.2254   -5.8679   48.0402 C   0  0  0  0  0  0  0  0  0  0  0  0
    8.9736   -6.6532   47.8548 C   0  0  0  0  0  0  0  0  0  0  0  0
   10.0616   -3.0670   47.6360 C   0  0  0  0  0  0  0  0  0  0  0  0
    7.5566   -6.3564   47.5477 N   0  0  0  0  0  0  0  0  0  0  0  0
   12.3328   -4.8893   47.9268 C   0  0  2  0  0  0  0  0  0  0  0  0
   12.2085   -3.9673   46.9997 C   0  0  0  0  0  0  0  0  0  0  0  0
   11.5720   -2.8294   47.8112 C   0  0  0  0  0  0  0  0  0  0  0  0
   11.5497   -7.1871   48.4172 C   0  0  0  0  0  0  0  0  0  0  0  0
   13.5576   -5.8273   47.6737 C   0  0  1  0  0  0  0  0  0  0  0  0
   10.6555   -8.2234   48.5860 C   0  0  0  0  0  0  0  0  0  0  0  0
    9.3214   -7.9341   48.2947 C   0  0  0  0  0  0  0  0  0  0  0  0
   14.8413   -5.2792   47.8604 C   0  0  0  0  0  0  0  0  0  0  0  0
    6.4058   -6.1050   48.1525 C   0  0  0  0  0  0  0  0  0  0  0  0
   13.1219   -7.0925   48.5017 C   0  0  0  0  0  0  0  0  0  0  0  0
  1  2  1  0
  2  3  2  0
  3  4  1  0
  1  5  2  0
  4  5  1  0
  4  6  2  0
  5  7  1  0
  7  8  2  0
  6  9  1  0
  3 10  1  0
  9 11  2  0
 10 11  1  0
  7 12  1  0
 12 13  2  0
  9 14  1  0
 11 15  1  0
 14 16  1  0
 13 17  1  0
 16 18  1  0
 14 19  2  0
 15 20  2  0
 19 20  1  0
 19 21  1  0
 21 22  2  0
  8 23  1  0
 17 23  2  0
 21 24  1  0
 24 25  1  0
 18 26  2  0
 25 27  1  0
 18 28  1  0
 27 29  2  0
 27 30  1  0
 22 31  1  0
 25 31  2  0
 30 32  1  0
 29 33  1  0
 33 34  1  6
 31 35  1  0
 34 35  1  0
 29 36  1  0
 33 37  1  0
 36 38  2  0
 30 39  2  0
 38 39  1  0
 37 40  1  1
 28 41  1  0
 32 41  1  0
 36 42  1  0
 37 42  1  0
M  END
$$$$
O14757_Pocket2Mol_idx-in-all-generaetd-848
     RDKit          3D

 41 46  0  0  0  0  0  0  0  0999 V2000
    5.3420    0.2589   42.8836 O   0  0  0  0  0  0  0  0  0  0  0  0
    5.1627   -0.7554   43.4753 C   0  0  0  0  0  0  0  0  0  0  0  0
    4.0509   -1.4657   43.4177 N   0  0  0  0  0  0  0  0  0  0  0  0
    5.9969   -1.2317   44.6840 C   0  0  0  0  0  0  0  0  0  0  0  0
    2.9618   -1.1021   42.5918 C   0  0  1  0  0  0  0  0  0  0  0  0
    7.3392   -0.8596   44.8412 C   0  0  0  0  0  0  0  0  0  0  0  0
    1.9754   -2.0820   42.2741 C   0  0  0  0  0  0  0  0  0  0  0  0
    5.5910   -2.4282   45.3439 C   0  0  0  0  0  0  0  0  0  0  0  0
    6.5874   -2.9636   46.1581 C   0  0  0  0  0  0  0  0  0  0  0  0
    4.2763   -3.0680   45.0493 N   0  0  0  0  0  0  0  0  0  0  0  0
    3.6188   -2.5886   44.2024 C   0  0  0  0  0  0  0  0  0  0  0  0
    8.1921   -1.4071   45.7505 C   0  0  0  0  0  0  0  0  0  0  0  0
    1.0154   -1.8839   41.2980 C   0  0  0  0  0  0  0  0  0  0  0  0
    2.5720   -3.3564   43.9063 C   0  0  0  0  0  0  0  0  0  0  0  0
    0.2502   -2.8976   41.0751 C   0  0  0  0  0  0  0  0  0  0  0  0
    6.1761   -4.1775   47.0209 C   0  0  0  0  0  0  0  0  0  0  0  0
    1.7266   -3.1047   43.0115 C   0  0  2  0  0  0  0  0  0  0  0  0
    2.3696   -4.5367   44.7536 N   0  0  0  0  0  0  0  0  0  0  0  0
    1.2264   -5.2346   44.4693 C   0  0  0  0  0  0  0  0  0  0  0  0
    0.7187   -3.8955   42.5465 C   0  0  0  0  0  0  0  0  0  0  0  0
    9.4576   -0.8949   46.0327 N   0  0  0  0  0  0  0  0  0  0  0  0
    0.8625   -6.3901   45.2462 C   0  0  0  0  0  0  0  0  0  0  0  0
    7.6467   -2.5139   46.4892 C   0  0  0  0  0  0  0  0  0  0  0  0
   10.4908   -1.5336   45.8242 C   0  0  0  0  0  0  0  0  0  0  0  0
    0.3057   -4.9299   43.2909 C   0  0  0  0  0  0  0  0  0  0  0  0
   11.5916   -1.4291   46.7436 C   0  0  0  0  0  0  0  0  0  0  0  0
   10.5566   -2.3672   44.8649 O   0  0  0  0  0  0  0  0  0  0  0  0
   12.8421   -1.9355   46.2823 C   0  0  0  0  0  0  0  0  0  0  0  0
   13.4833   -2.8582   46.9841 C   0  0  0  0  0  0  0  0  0  0  0  0
   11.4002   -1.1447   48.0540 C   0  0  0  0  0  0  0  0  0  0  0  0
   10.2867   -0.4569   48.4999 O   0  0  0  0  0  0  0  0  0  0  0  0
   12.3327   -1.4798   48.9564 C   0  0  0  0  0  0  0  0  0  0  0  0
   14.7901   -3.3162   46.6439 C   0  0  0  0  0  0  0  0  0  0  0  0
   12.1651   -1.3050   50.3239 O   0  0  0  0  0  0  0  0  0  0  0  0
   15.6765   -2.5740   46.0979 C   0  0  0  0  0  0  0  0  0  0  0  0
   13.4417   -2.4710   48.5369 C   0  0  0  0  0  0  0  0  0  0  0  0
   15.5553   -1.2853   45.8338 C   0  0  0  0  0  0  0  0  0  0  0  0
   15.4119   -0.8806   44.5116 C   0  0  0  0  0  0  0  0  0  0  0  0
    2.4631    0.2112   42.8539 C   0  0  0  0  0  0  0  0  0  0  0  0
   14.8794    0.3049   44.1896 C   0  0  0  0  0  0  0  0  0  0  0  0
   14.3450    0.4972   42.9116 C   0  0  0  0  0  0  0  0  0  0  0  0
  1  2  2  0
  2  3  1  0
  2  4  1  0
  3  5  1  0
  4  6  2  0
  5  7  1  0
  4  8  1  0
  8  9  2  0
  8 10  1  0
  3 11  1  0
 10 11  2  0
  6 12  1  0
  7 13  2  0
 11 14  1  0
 13 15  1  0
  9 16  1  0
 17  7  1  6
 14 17  1  0
 14 18  2  0
 18 19  1  0
 15 20  2  0
 17 20  1  0
 12 21  1  0
 19 22  1  0
  9 23  1  0
 12 23  2  0
 21 24  1  0
 19 25  2  0
 20 25  1  0
 24 26  1  0
 24 27  2  0
 26 28  2  0
 28 29  1  0
 26 30  1  0
 30 31  1  0
 30 32  2  0
 29 33  1  0
 32 34  1  0
 33 35  2  3
 29 36  2  0
 32 36  1  0
 35 37  1  0
 37 38  1  0
  5 39  1  1
 38 40  1  0
 40 41  2  0
M  END
$$$$
O14757_Pocket2Mol_idx-in-all-generaetd-849
     RDKit          3D

 26 29  0  0  0  0  0  0  0  0999 V2000
    5.5575   -0.4055   43.2321 N   0  0  0  0  0  0  0  0  0  0  0  0
    4.3352   -0.4199   42.8749 C   0  0  0  0  0  0  0  0  0  0  0  0
    5.9990   -1.3122   44.1764 C   0  0  0  0  0  0  0  0  0  0  0  0
    3.4120   -1.4389   43.1188 C   0  0  0  0  0  0  0  0  0  0  0  0
    3.8361   -2.4046   43.9422 C   0  0  0  0  0  0  0  0  0  0  0  0
    5.1679   -2.3747   44.5447 C   0  0  0  0  0  0  0  0  0  0  0  0
    3.0502   -3.5480   44.2767 N   0  0  0  0  0  0  0  0  0  0  0  0
    2.0554   -1.5626   42.6416 C   0  0  0  0  0  0  0  0  0  0  0  0
    5.7066   -3.3299   45.4765 C   0  0  0  0  0  0  0  0  0  0  0  0
    3.7427    0.5760   42.0003 N   0  0  0  0  0  0  0  0  0  0  0  0
    4.9790   -3.9414   46.1775 O   0  0  0  0  0  0  0  0  0  0  0  0
    7.0173   -3.0376   45.8484 N   0  0  0  0  0  0  0  0  0  0  0  0
    1.3468   -2.6561   42.5594 C   0  0  0  0  0  0  0  0  0  0  0  0
    1.8548   -3.6188   43.5814 C   0  0  0  0  0  0  0  0  0  0  0  0
    0.1121   -2.8705   41.8647 C   0  0  0  0  0  0  0  0  0  0  0  0
   -0.0333   -4.0085   41.3088 O   0  0  0  0  0  0  0  0  0  0  0  0
   -0.7265   -1.9501   41.6394 O   0  0  0  0  0  0  0  0  0  0  0  0
    7.6791   -3.9358   46.8241 C   0  0  0  0  0  0  0  0  0  0  0  0
    9.0644   -4.1059   46.5447 C   0  0  0  0  0  0  0  0  0  0  0  0
    9.9395   -2.9938   46.7513 C   0  0  1  0  0  0  0  0  0  0  0  0
   10.8438   -2.6722   45.7668 C   0  0  0  0  0  0  0  0  0  0  0  0
    9.2459   -1.6709   46.9933 C   0  0  0  0  0  0  0  0  0  0  0  0
    8.6370   -1.2328   45.8986 C   0  0  0  0  0  0  0  0  0  0  0  0
    7.4241   -1.8140   45.2011 C   0  0  2  0  0  0  0  0  0  0  0  0
   11.4422   -1.5830   45.6295 O   0  0  0  0  0  0  0  0  0  0  0  0
   11.1018   -3.5698   44.7876 O   0  0  0  0  0  0  0  0  0  0  0  0
  1  2  2  0
  1  3  1  0
  2  4  1  0
  4  5  2  0
  3  6  2  0
  5  6  1  0
  5  7  1  0
  4  8  1  0
  6  9  1  0
  2 10  1  0
  9 11  2  0
  9 12  1  0
  8 13  2  0
  7 14  2  0
 13 14  1  0
 13 15  1  0
 15 16  2  0
 15 17  1  0
 12 18  1  0
 18 19  1  0
 19 20  1  0
 20 21  1  6
 20 22  1  0
 22 23  1  0
  3 24  1  0
 12 24  1  0
 24 23  1  1
 21 25  2  0
 21 26  1  0
M  END
$$$$
O14757_Pocket2Mol_idx-in-all-generaetd-850
     RDKit          3D

 35 39  0  0  0  0  0  0  0  0999 V2000
    4.5156    0.0550   42.9895 N   0  0  0  0  0  0  0  0  0  0  0  0
    5.0618   -0.8645   43.5295 C   0  0  0  0  0  0  0  0  0  0  0  0
    4.4350   -2.0604   43.7783 C   0  0  0  0  0  0  0  0  0  0  0  0
    4.9987   -3.0994   44.5839 C   0  0  0  0  0  0  0  0  0  0  0  0
    3.2714   -1.8664   43.0632 C   0  0  0  0  0  0  0  0  0  0  0  0
    6.4064   -0.5942   44.3204 N   0  0  0  0  0  0  0  0  0  0  0  0
    4.3422   -4.3256   44.7203 C   0  0  0  0  0  0  0  0  0  0  0  0
    2.1845   -2.6668   42.8270 N   0  0  0  0  0  0  0  0  0  0  0  0
    6.7872   -1.6740   45.1626 C   0  0  0  0  0  0  0  0  0  0  0  0
    3.3364   -0.5682   42.5216 C   0  0  0  0  0  0  0  0  0  0  0  0
    6.0794   -2.8367   45.2418 C   0  0  0  0  0  0  0  0  0  0  0  0
    2.2080   -0.0040   41.8105 N   0  0  0  0  0  0  0  0  0  0  0  0
    3.5122   -4.5717   45.8882 C   0  0  0  0  0  0  0  0  0  0  0  0
    8.0343   -1.3439   45.8176 C   0  0  0  0  0  0  0  0  0  0  0  0
    8.5676   -2.2678   46.6666 C   0  0  0  0  0  0  0  0  0  0  0  0
    1.2034   -0.9715   41.7505 C   0  0  0  0  0  0  0  0  0  0  0  0
    9.7543   -2.0263   47.4257 C   0  0  1  0  0  0  0  0  0  0  0  0
   10.9435   -2.3462   46.8726 C   0  0  0  0  0  0  0  0  0  0  0  0
    2.0759   -4.8825   45.5393 N   0  0  0  0  0  0  0  0  0  0  0  0
    1.2148   -2.2334   42.1576 C   0  0  0  0  0  0  0  0  0  0  0  0
    9.6982   -0.8148   48.0427 O   0  0  0  0  0  0  0  0  0  0  0  0
   11.0881   -3.3882   46.0717 O   0  0  0  0  0  0  0  0  0  0  0  0
    7.6623   -3.4449   46.9706 C   0  0  0  0  0  0  0  0  0  0  0  0
    6.5323   -3.6370   46.2770 C   0  0  0  0  0  0  0  0  0  0  0  0
    0.0607   -3.1280   41.9172 C   0  0  0  0  0  0  0  0  0  0  0  0
   12.3311   -3.5802   45.4279 C   0  0  0  0  0  0  0  0  0  0  0  0
   11.7186   -1.3261   46.7020 C   0  0  0  0  0  0  0  0  0  0  0  0
   12.1074   -0.6139   47.6871 O   0  0  0  0  0  0  0  0  0  0  0  0
   -0.3863   -3.3709   40.6959 O   0  0  0  0  0  0  0  0  0  0  0  0
    1.0768   -4.0688   45.7368 C   0  0  0  0  0  0  0  0  0  0  0  0
    0.2411   -3.9036   44.8688 N   0  0  0  0  0  0  0  0  0  0  0  0
   -0.6544   -3.6460   42.8525 N   0  0  0  0  0  0  0  0  0  0  0  0
    0.1782   -4.5311   43.7092 C   0  0  2  0  0  0  0  0  0  0  0  0
   -0.3885   -5.8191   43.8749 O   0  0  0  0  0  0  0  0  0  0  0  0
    0.6460   -3.7091   47.0860 N   0  0  0  0  0  0  0  0  0  0  0  0
  1  2  2  0
  2  3  1  0
  3  4  1  0
  3  5  2  0
  2  6  1  0
  4  7  1  0
  5  8  1  0
  6  9  2  0
  1 10  1  0
  5 10  1  0
  4 11  2  0
  9 11  1  0
 10 12  2  0
  7 13  1  0
  9 14  1  0
 14 15  2  0
 12 16  1  0
 15 17  1  0
 17 18  1  0
 13 19  1  0
  8 20  2  0
 16 20  1  0
 17 21  1  6
 18 22  1  0
 15 23  1  0
 11 24  1  0
 23 24  2  0
 20 25  1  0
 22 26  1  0
 18 27  2  3
 27 28  1  0
 25 29  2  0
 19 30  1  0
 30 31  2  3
 25 32  1  0
 31 33  1  0
 32 33  1  0
 33 34  1  1
 30 35  1  0
M  END
$$$$
O14757_Pocket2Mol_idx-in-all-generaetd-851
     RDKit          3D

 25 28  0  0  0  0  0  0  0  0999 V2000
    4.5142    0.3543   42.7132 N   0  0  0  0  0  0  0  0  0  0  0  0
    3.5107   -0.4860   42.6298 C   0  0  0  0  0  0  0  0  0  0  0  0
    3.5891   -1.7637   43.2512 N   0  0  0  0  0  0  0  0  0  0  0  0
    5.5470   -0.0112   43.3539 C   0  0  0  0  0  0  0  0  0  0  0  0
    2.1469   -0.1899   41.9512 C   0  0  0  0  0  0  0  0  0  0  0  0
    4.6725   -2.0734   43.8606 C   0  0  0  0  0  0  0  0  0  0  0  0
    5.7749   -1.1829   43.9325 C   0  0  0  0  0  0  0  0  0  0  0  0
    4.7150   -3.3068   44.6440 C   0  0  0  0  0  0  0  0  0  0  0  0
    6.9086   -1.5797   44.6919 C   0  0  0  0  0  0  0  0  0  0  0  0
    3.5691   -4.2517   44.6407 C   0  0  0  0  0  0  0  0  0  0  0  0
    2.3573   -4.0060   44.5430 C   0  0  0  0  0  0  0  0  0  0  0  0
    6.9170   -2.8018   45.4663 C   0  0  0  0  0  0  0  0  0  0  0  0
    5.8006   -3.6152   45.4297 C   0  0  0  0  0  0  0  0  0  0  0  0
    1.4121   -5.0069   44.5415 C   0  0  0  0  0  0  0  0  0  0  0  0
    3.7971   -5.7279   44.7344 C   0  0  0  0  0  0  0  0  0  0  0  0
    2.3987   -6.3703   44.6650 S   0  0  0  0  0  0  0  0  0  0  0  0
    8.1594   -3.0392   46.3481 C   0  0  0  0  0  0  0  0  0  0  0  0
    8.9239   -2.0940   46.8979 C   0  0  0  0  0  0  0  0  0  0  0  0
   -0.1377   -4.9421   44.5813 C   0  0  0  0  0  0  0  0  0  0  0  0
    8.4791   -4.2139   46.9383 C   0  0  0  0  0  0  0  0  0  0  0  0
    9.9638   -2.1758   47.7405 C   0  0  0  0  0  0  0  0  0  0  0  0
   10.1331   -3.7048   48.1687 C   0  0  0  0  0  0  0  0  0  0  0  0
   -0.5463   -4.9360   43.4533 O   0  0  0  0  0  0  0  0  0  0  0  0
    9.3404   -4.5721   47.9238 C   0  0  0  0  0  0  0  0  0  0  0  0
   -0.7039   -5.8097   45.3669 O   0  0  0  0  0  0  0  0  0  0  0  0
  1  2  2  0
  2  3  1  0
  1  4  1  0
  2  5  1  0
  3  6  2  0
  4  7  2  0
  6  7  1  0
  6  8  1  0
  7  9  1  0
  8 10  1  0
 10 11  1  0
  9 12  2  0
  8 13  2  0
 12 13  1  0
 11 14  2  0
 10 15  2  0
 14 16  1  0
 15 16  1  0
 12 17  1  0
 17 18  2  0
 14 19  1  0
 17 20  1  0
 18 21  1  0
 21 22  2  0
 19 23  1  0
 20 24  2  0
 22 24  1  0
 19 25  1  0
M  END
$$$$
O14757_Pocket2Mol_idx-in-all-generaetd-852
     RDKit          3D

 41 48  0  0  0  0  0  0  0  0999 V2000
    1.5482   -0.3111   41.9233 C   0  0  0  0  0  0  0  0  0  0  0  0
    2.7284    0.2018   42.1525 N   0  0  0  0  0  0  0  0  0  0  0  0
    3.7893   -0.3016   42.7005 C   0  0  0  0  0  0  0  0  0  0  0  0
    3.3781   -1.7350   43.0000 C   0  0  0  0  0  0  0  0  0  0  0  0
    2.0339   -1.9619   42.6217 C   0  0  0  0  0  0  0  0  0  0  0  0
    4.1166   -2.4997   43.8458 C   0  0  0  0  0  0  0  0  0  0  0  0
    1.1731   -3.0051   42.5773 C   0  0  0  0  0  0  0  0  0  0  0  0
    0.4701   -3.2344   41.4901 C   0  0  0  0  0  0  0  0  0  0  0  0
    5.3799   -1.7814   44.2691 C   0  0  0  0  0  0  0  0  0  0  0  0
    5.0159   -0.0180   43.1201 N   0  0  0  0  0  0  0  0  0  0  0  0
    5.7693   -0.6937   43.8418 C   0  0  0  0  0  0  0  0  0  0  0  0
    0.8078   -3.6166   43.6782 C   0  0  0  0  0  0  0  0  0  0  0  0
    0.0663   -4.7011   43.7415 N   0  0  0  0  0  0  0  0  0  0  0  0
    6.2223   -2.6843   45.1565 C   0  0  0  0  0  0  0  0  0  0  0  0
    6.9599   -0.2351   44.2608 N   0  0  0  0  0  0  0  0  0  0  0  0
    5.9065   -3.9037   45.7499 N   0  0  0  0  0  0  0  0  0  0  0  0
   -0.5459   -5.1185   42.5870 C   0  0  0  0  0  0  0  0  0  0  0  0
    5.7480   -4.0340   46.9810 C   0  0  0  0  0  0  0  0  0  0  0  0
    7.4448   -1.8511   45.4198 C   0  0  0  0  0  0  0  0  0  0  0  0
    7.7572   -0.7827   45.0128 C   0  0  0  0  0  0  0  0  0  0  0  0
    8.4076   -2.7217   46.4541 C   0  0  0  0  0  0  0  0  0  0  0  0
    9.3167   -2.0988   47.1049 N   0  0  0  0  0  0  0  0  0  0  0  0
   -0.4719   -4.3893   41.5406 C   0  0  0  0  0  0  0  0  0  0  0  0
    8.3667   -4.0284   46.5743 N   0  0  0  0  0  0  0  0  0  0  0  0
    9.5309   -4.3147   47.3094 C   0  0  0  0  0  0  0  0  0  0  0  0
    5.3113   -3.3789   47.8005 O   0  0  0  0  0  0  0  0  0  0  0  0
    9.9022   -5.6301   47.7684 C   0  0  0  0  0  0  0  0  0  0  0  0
    5.4470   -5.5868   47.2096 C   0  0  0  0  0  0  0  0  0  0  0  0
   11.2254   -5.8679   48.0402 C   0  0  0  0  0  0  0  0  0  0  0  0
    8.9736   -6.6532   47.8548 C   0  0  0  0  0  0  0  0  0  0  0  0
   10.0616   -3.0670   47.6360 C   0  0  0  0  0  0  0  0  0  0  0  0
    7.5566   -6.3564   47.5477 N   0  0  0  0  0  0  0  0  0  0  0  0
    6.4157   -6.1721   48.0913 C   0  0  0  0  0  0  0  0  0  0  0  0
   12.3275   -4.8510   47.9324 C   0  0  2  0  0  0  0  0  0  0  0  0
    9.4585   -7.9662   48.0726 C   0  0  0  0  0  0  0  0  0  0  0  0
   11.5288   -2.7910   48.1740 C   0  0  0  0  0  0  0  0  0  0  0  0
   10.7288   -8.1991   48.4378 C   0  0  0  0  0  0  0  0  0  0  0  0
   13.5791   -5.4803   48.0269 O   0  0  0  0  0  0  0  0  0  0  0  0
   11.7234   -7.0676   48.3944 C   0  0  0  0  0  0  0  0  0  0  0  0
   12.3464   -3.5437   48.2880 C   0  0  0  0  0  0  0  0  0  0  0  0
   13.6704   -3.2411   48.7060 O   0  0  0  0  0  0  0  0  0  0  0  0
  1  2  1  0
  2  3  2  0
  3  4  1  0
  1  5  2  0
  4  5  1  0
  4  6  2  0
  5  7  1  0
  7  8  2  0
  6  9  1  0
  3 10  1  0
  9 11  2  0
 10 11  1  0
  7 12  1  0
 12 13  2  0
  9 14  1  0
 11 15  1  0
 14 16  1  0
 13 17  1  0
 16 18  1  0
 14 19  2  0
 15 20  2  0
 19 20  1  0
 19 21  1  0
 21 22  2  0
  8 23  1  0
 17 23  2  0
 21 24  1  0
 24 25  1  0
 18 26  2  0
 25 27  1  0
 18 28  1  0
 27 29  2  0
 27 30  1  0
 22 31  1  0
 25 31  2  0
 30 32  1  0
 28 33  1  0
 32 33  1  0
 29 34  1  0
 30 35  2  0
 31 36  1  0
 35 37  1  0
 34 38  1  1
 29 39  1  0
 37 39  2  0
 34 40  1  0
 36 40  1  0
 40 41  2  0
M  END
$$$$
O14757_Pocket2Mol_idx-in-all-generaetd-853
     RDKit          3D

 40 48  0  0  0  0  0  0  0  0999 V2000
    1.5482   -0.3111   41.9233 C   0  0  0  0  0  0  0  0  0  0  0  0
    2.7284    0.2018   42.1525 N   0  0  0  0  0  0  0  0  0  0  0  0
    3.7893   -0.3016   42.7005 C   0  0  0  0  0  0  0  0  0  0  0  0
    3.3781   -1.7350   43.0000 C   0  0  0  0  0  0  0  0  0  0  0  0
    2.0339   -1.9619   42.6217 C   0  0  0  0  0  0  0  0  0  0  0  0
    5.0090    0.1219   42.9340 N   0  0  0  0  0  0  0  0  0  0  0  0
    4.2895   -2.4979   43.6707 C   0  0  0  0  0  0  0  0  0  0  0  0
    5.8391   -0.6675   43.6343 C   0  0  0  0  0  0  0  0  0  0  0  0
    6.9849   -0.2377   44.0028 N   0  0  0  0  0  0  0  0  0  0  0  0
    4.0426   -3.8794   44.0832 C   0  0  0  0  0  0  0  0  0  0  0  0
    7.6796   -0.8734   44.9326 C   0  0  0  0  0  0  0  0  0  0  0  0
    1.1064   -2.9576   42.4211 C   0  0  0  0  0  0  0  0  0  0  0  0
    5.5298   -1.9496   44.0315 C   0  0  0  0  0  0  0  0  0  0  0  0
    3.8954   -4.1817   45.4718 C   0  0  0  0  0  0  0  0  0  0  0  0
    0.6765   -3.5480   43.4006 C   0  0  1  0  0  0  0  0  0  0  0  0
    0.5804   -3.2191   41.1635 C   0  0  0  0  0  0  0  0  0  0  0  0
    2.8083   -4.8227   45.9203 N   0  0  0  0  0  0  0  0  0  0  0  0
   -0.1574   -4.5754   42.9329 N   0  0  0  0  0  0  0  0  0  0  0  0
    6.5271   -2.5531   44.9677 C   0  0  0  0  0  0  0  0  0  0  0  0
   -0.2272   -4.3703   41.5137 C   0  0  0  0  0  0  0  0  0  0  0  0
    7.5095   -2.0029   45.3993 C   0  0  0  0  0  0  0  0  0  0  0  0
    8.2550   -2.6982   46.3988 C   0  0  1  0  0  0  0  0  0  0  0  0
    8.8975   -0.3029   45.3267 O   0  0  0  0  0  0  0  0  0  0  0  0
    4.8299   -4.4637   46.4212 C   0  0  0  0  0  0  0  0  0  0  0  0
    4.2707   -4.9248   47.6295 N   0  0  0  0  0  0  0  0  0  0  0  0
    3.2045   -5.2092   47.1521 C   0  0  0  0  0  0  0  0  0  0  0  0
    1.4482   -4.6186   45.4134 C   0  0  0  0  0  0  0  0  0  0  0  0
    1.3256   -3.7660   44.6394 N   0  0  0  0  0  0  0  0  0  0  0  0
    9.2816   -2.1418   47.1273 N   0  0  0  0  0  0  0  0  0  0  0  0
   10.0629   -3.1324   47.8508 C   0  0  0  0  0  0  0  0  0  0  0  0
    6.3491   -3.8960   46.0844 C   0  0  2  0  0  0  0  0  0  0  0  0
    7.4349   -3.5889   46.9054 C   0  0  0  0  0  0  0  0  0  0  0  0
   10.3145   -2.7271   49.0818 O   0  0  0  0  0  0  0  0  0  0  0  0
   11.0221   -3.8171   47.1052 C   0  0  0  0  0  0  0  0  0  0  0  0
    0.8710   -5.7412   45.2074 O   0  0  0  0  0  0  0  0  0  0  0  0
   12.1654   -3.3890   46.7468 C   0  0  0  0  0  0  0  0  0  0  0  0
   10.8862   -5.2442   47.2797 C   0  0  0  0  0  0  0  0  0  0  0  0
   11.6445   -5.8923   46.6301 C   0  0  0  0  0  0  0  0  0  0  0  0
   12.9157   -5.4427   46.1328 C   0  0  0  0  0  0  0  0  0  0  0  0
   13.1183   -4.0607   46.2202 C   0  0  0  0  0  0  0  0  0  0  0  0
  1  2  1  0
  2  3  2  0
  3  4  1  0
  1  5  2  0
  4  5  1  0
  3  6  1  0
  4  7  2  0
  6  8  1  0
  8  9  1  0
  7 10  1  0
  9 11  1  0
  5 12  1  0
  7 13  1  0
  8 13  2  0
 10 14  1  0
 12 15  1  0
 12 16  2  0
 14 17  1  0
 15 18  1  0
 13 19  1  0
 16 20  1  0
 18 20  2  0
 11 21  1  0
 19 21  2  0
 21 22  1  0
 11 23  2  0
 14 24  2  0
 24 25  1  0
 17 26  1  0
 25 26  2  0
 17 27  1  0
 15 28  1  6
 27 28  1  0
 22 29  1  1
 29 30  1  0
 19 31  1  0
 24 31  1  0
 22 32  1  0
 31 32  1  1
 30 33  2  0
 30 34  1  0
 27 35  2  0
 34 36  2  0
 34 37  1  0
 37 38  2  0
 38 39  1  0
 36 40  1  0
 39 40  2  0
M  END
$$$$
O14757_Pocket2Mol_idx-in-all-generaetd-854
     RDKit          3D

 47 54  0  0  0  0  0  0  0  0999 V2000
    5.3420    0.2589   42.8836 O   0  0  0  0  0  0  0  0  0  0  0  0
    5.1627   -0.7554   43.4753 C   0  0  0  0  0  0  0  0  0  0  0  0
    4.0509   -1.4657   43.4177 N   0  0  0  0  0  0  0  0  0  0  0  0
    5.9969   -1.2317   44.6840 C   0  0  0  0  0  0  0  0  0  0  0  0
    2.9618   -1.1021   42.5918 C   0  0  1  0  0  0  0  0  0  0  0  0
    7.3392   -0.8596   44.8412 C   0  0  0  0  0  0  0  0  0  0  0  0
    1.9754   -2.0820   42.2741 C   0  0  0  0  0  0  0  0  0  0  0  0
    5.5910   -2.4282   45.3439 C   0  0  0  0  0  0  0  0  0  0  0  0
    6.5874   -2.9636   46.1581 C   0  0  0  0  0  0  0  0  0  0  0  0
    4.2763   -3.0680   45.0493 N   0  0  0  0  0  0  0  0  0  0  0  0
    3.6188   -2.5886   44.2024 C   0  0  0  0  0  0  0  0  0  0  0  0
    8.1921   -1.4071   45.7505 C   0  0  0  0  0  0  0  0  0  0  0  0
    1.0154   -1.8839   41.2980 C   0  0  0  0  0  0  0  0  0  0  0  0
    2.5720   -3.3564   43.9063 C   0  0  0  0  0  0  0  0  0  0  0  0
    0.2502   -2.8976   41.0751 C   0  0  0  0  0  0  0  0  0  0  0  0
    6.1761   -4.1775   47.0209 C   0  0  0  0  0  0  0  0  0  0  0  0
    1.7266   -3.1047   43.0115 C   0  0  2  0  0  0  0  0  0  0  0  0
    2.3696   -4.5367   44.7536 N   0  0  0  0  0  0  0  0  0  0  0  0
    1.2264   -5.2346   44.4693 C   0  0  0  0  0  0  0  0  0  0  0  0
    0.7187   -3.8955   42.5465 C   0  0  0  0  0  0  0  0  0  0  0  0
    9.4576   -0.8949   46.0327 N   0  0  0  0  0  0  0  0  0  0  0  0
    0.8625   -6.3901   45.2462 C   0  0  0  0  0  0  0  0  0  0  0  0
    7.6467   -2.5139   46.4892 C   0  0  0  0  0  0  0  0  0  0  0  0
   10.4908   -1.5336   45.8242 C   0  0  0  0  0  0  0  0  0  0  0  0
    0.3057   -4.9299   43.2909 C   0  0  0  0  0  0  0  0  0  0  0  0
   11.5916   -1.4291   46.7436 C   0  0  0  0  0  0  0  0  0  0  0  0
   10.5566   -2.3672   44.8649 O   0  0  0  0  0  0  0  0  0  0  0  0
   12.8421   -1.9355   46.2823 C   0  0  0  0  0  0  0  0  0  0  0  0
   13.4833   -2.8582   46.9841 C   0  0  0  0  0  0  0  0  0  0  0  0
   11.4002   -1.1447   48.0540 C   0  0  0  0  0  0  0  0  0  0  0  0
   10.2867   -0.4569   48.4999 O   0  0  0  0  0  0  0  0  0  0  0  0
   12.3327   -1.4798   48.9564 C   0  0  0  0  0  0  0  0  0  0  0  0
   14.7901   -3.3162   46.6439 C   0  0  0  0  0  0  0  0  0  0  0  0
   12.1651   -1.3050   50.3239 O   0  0  0  0  0  0  0  0  0  0  0  0
   15.6765   -2.5740   46.0979 C   0  0  0  0  0  0  0  0  0  0  0  0
   13.4417   -2.4710   48.5369 C   0  0  0  0  0  0  0  0  0  0  0  0
   15.5553   -1.2853   45.8338 C   0  0  0  0  0  0  0  0  0  0  0  0
    2.4633    0.2112   42.8553 O   0  0  0  0  0  0  0  0  0  0  0  0
   15.3909   -0.8808   44.5119 C   0  0  0  0  0  0  0  0  0  0  0  0
   14.8684    0.3217   44.1996 C   0  0  0  0  0  0  0  0  0  0  0  0
   14.3830    0.6137   42.7600 C   0  0  0  0  0  0  0  0  0  0  0  0
   14.7134    1.3866   45.0637 C   0  0  0  0  0  0  0  0  0  0  0  0
   14.0665    2.6619   44.8118 C   0  0  0  0  0  0  0  0  0  0  0  0
   13.7989    2.8281   43.3634 C   0  0  0  0  0  0  0  0  0  0  0  0
   15.2908    1.1045   46.3753 C   0  0  0  0  0  0  0  0  0  0  0  0
   15.7452   -0.1509   46.6603 C   0  0  0  0  0  0  0  0  0  0  0  0
   14.0460    2.0043   42.6367 C   0  0  0  0  0  0  0  0  0  0  0  0
  1  2  2  0
  2  3  1  0
  2  4  1  0
  3  5  1  0
  4  6  2  0
  5  7  1  0
  4  8  1  0
  8  9  2  0
  8 10  1  0
  3 11  1  0
 10 11  2  0
  6 12  1  0
  7 13  2  0
 11 14  1  0
 13 15  1  0
  9 16  1  0
 17  7  1  6
 14 17  1  0
 14 18  2  0
 18 19  1  0
 15 20  2  0
 17 20  1  0
 12 21  1  0
 19 22  1  0
  9 23  1  0
 12 23  2  0
 21 24  1  0
 19 25  2  0
 20 25  1  0
 24 26  1  0
 24 27  2  0
 26 28  2  0
 28 29  1  0
 26 30  1  0
 30 31  1  0
 30 32  2  0
 29 33  1  0
 32 34  1  0
 33 35  2  3
 29 36  2  0
 32 36  1  0
 35 37  1  0
  5 38  1  1
 37 39  2  0
 39 40  1  0
 40 41  1  0
 40 42  2  0
 42 43  1  0
 43 44  1  0
 42 45  1  0
 37 46  1  0
 45 46  2  0
 41 47  1  0
 44 47  2  0
M  END
$$$$
O14757_Pocket2Mol_idx-in-all-generaetd-855
     RDKit          3D

 28 32  0  0  0  0  0  0  0  0999 V2000
    4.5156    0.0550   42.9895 N   0  0  0  0  0  0  0  0  0  0  0  0
    5.0618   -0.8645   43.5295 C   0  0  0  0  0  0  0  0  0  0  0  0
    4.4350   -2.0604   43.7783 C   0  0  0  0  0  0  0  0  0  0  0  0
    4.9987   -3.0994   44.5839 C   0  0  0  0  0  0  0  0  0  0  0  0
    3.2714   -1.8664   43.0632 C   0  0  0  0  0  0  0  0  0  0  0  0
    6.4064   -0.5942   44.3204 N   0  0  0  0  0  0  0  0  0  0  0  0
    3.2662   -0.5029   42.4637 C   0  0  1  0  0  0  0  0  0  0  0  0
    6.2094   -2.8994   45.2671 C   0  0  0  0  0  0  0  0  0  0  0  0
    2.1311   -2.7283   42.6149 C   0  0  0  0  0  0  0  0  0  0  0  0
    1.2031   -2.2156   41.7977 C   0  0  0  0  0  0  0  0  0  0  0  0
    0.1331   -3.1384   41.3837 C   0  0  0  0  0  0  0  0  0  0  0  0
    2.2239   -0.0756   41.7904 C   0  0  0  0  0  0  0  0  0  0  0  0
    6.8407   -1.5014   45.1300 C   0  0  0  0  0  0  0  0  0  0  0  0
    1.1705   -0.9157   41.4367 C   0  0  0  0  0  0  0  0  0  0  0  0
    8.0745   -1.2705   45.7566 C   0  0  0  0  0  0  0  0  0  0  0  0
    8.6211   -2.2130   46.7115 C   0  0  0  0  0  0  0  0  0  0  0  0
    6.7527   -3.8063   46.1672 C   0  0  0  0  0  0  0  0  0  0  0  0
    9.8071   -1.9409   47.4563 O   0  0  0  0  0  0  0  0  0  0  0  0
    7.9753   -3.4769   46.9003 C   0  0  0  0  0  0  0  0  0  0  0  0
   10.9253   -1.6673   46.6796 C   0  0  0  0  0  0  0  0  0  0  0  0
   -0.8560   -3.4196   42.1765 O   0  0  0  0  0  0  0  0  0  0  0  0
   11.9215   -1.2612   47.2170 C   0  0  0  0  0  0  0  0  0  0  0  0
   10.8281   -1.9454   45.2452 C   0  0  0  0  0  0  0  0  0  0  0  0
   11.8590   -0.9367   48.6931 F   0  0  0  0  0  0  0  0  0  0  0  0
   12.0808   -1.7835   44.5667 C   0  0  0  0  0  0  0  0  0  0  0  0
   13.0955   -1.4449   45.2112 C   0  0  0  0  0  0  0  0  0  0  0  0
   13.0628   -1.1222   46.6929 C   0  0  0  0  0  0  0  0  0  0  0  0
   14.3779   -1.2144   44.5944 F   0  0  0  0  0  0  0  0  0  0  0  0
  1  2  2  0
  2  3  1  0
  3  4  1  0
  3  5  2  0
  2  6  1  0
  1  7  1  0
  5  7  1  0
  4  8  2  0
  5  9  1  0
  9 10  2  0
 10 11  1  0
  7 12  1  1
  6 13  2  0
  8 13  1  0
 10 14  1  0
 12 14  2  0
 13 15  1  0
 15 16  2  0
  8 17  1  0
 16 18  1  0
 16 19  1  0
 17 19  2  0
 18 20  1  0
 11 21  1  0
 20 22  2  0
 20 23  1  0
 22 24  1  0
 23 25  2  0
 25 26  1  0
 22 27  1  0
 26 27  2  0
 26 28  1  0
M  END
$$$$
O14757_Pocket2Mol_idx-in-all-generaetd-856
     RDKit          3D

 28 32  0  0  0  0  0  0  0  0999 V2000
    2.2608    0.0351   42.1039 C   0  0  0  0  0  0  0  0  0  0  0  0
    2.7906   -1.0673   42.3987 N   0  0  0  0  0  0  0  0  0  0  0  0
    3.1210    0.9973   42.3040 N   0  0  0  0  0  0  0  0  0  0  0  0
    4.0827   -0.7954   42.9700 C   0  0  0  0  0  0  0  0  0  0  0  0
    4.9955   -1.7234   43.5259 N   0  0  0  0  0  0  0  0  0  0  0  0
    4.5382   -2.7016   44.3398 C   0  0  0  0  0  0  0  0  0  0  0  0
    5.3738   -2.9294   45.5228 C   0  0  2  0  0  0  0  0  0  0  0  0
    6.6133   -2.1566   45.5018 C   0  0  0  0  0  0  0  0  0  0  0  0
    4.2841    0.3926   42.8877 N   0  0  0  0  0  0  0  0  0  0  0  0
    5.4441   -4.2364   45.9837 C   0  0  0  0  0  0  0  0  0  0  0  0
    1.9678   -2.2711   42.4114 C   0  0  0  0  0  0  0  0  0  0  0  0
    7.1399   -1.4316   44.7431 O   0  0  0  0  0  0  0  0  0  0  0  0
    7.4936   -2.5586   46.5441 N   0  0  0  0  0  0  0  0  0  0  0  0
    5.8242   -4.4706   47.3868 C   0  0  0  0  0  0  0  0  0  0  0  0
    1.0261   -2.3754   41.4347 C   0  0  0  0  0  0  0  0  0  0  0  0
    0.1189   -3.5468   41.4614 C   0  0  0  0  0  0  0  0  0  0  0  0
    2.2389   -3.3785   43.2951 C   0  0  0  0  0  0  0  0  0  0  0  0
    8.8204   -2.0489   46.8075 C   0  0  0  0  0  0  0  0  0  0  0  0
    0.3484   -4.5483   42.3997 C   0  0  0  0  0  0  0  0  0  0  0  0
   -0.4651   -5.6361   42.4743 O   0  0  0  0  0  0  0  0  0  0  0  0
    3.2198   -3.1033   44.3843 N   0  0  0  0  0  0  0  0  0  0  0  0
    7.2641   -3.8381   47.4343 C   0  0  0  0  0  0  0  0  0  0  0  0
    1.3789   -4.4109   43.4827 C   0  0  0  0  0  0  0  0  0  0  0  0
    9.7712   -2.4491   45.9795 C   0  0  0  0  0  0  0  0  0  0  0  0
   10.9705   -1.7394   45.8403 C   0  0  0  0  0  0  0  0  0  0  0  0
    9.0236   -1.0067   47.6624 C   0  0  0  0  0  0  0  0  0  0  0  0
   10.3522   -0.4618   47.6745 C   0  0  0  0  0  0  0  0  0  0  0  0
   11.3020   -0.8702   46.8294 C   0  0  0  0  0  0  0  0  0  0  0  0
  1  2  1  0
  1  3  2  0
  2  4  1  0
  4  5  1  0
  5  6  1  0
  7  6  1  6
  7  8  1  0
  3  9  1  0
  4  9  2  0
  7 10  1  0
  2 11  1  0
  8 12  2  0
  8 13  1  0
 10 14  1  0
 11 15  2  0
 15 16  1  0
 11 17  1  0
 13 18  1  0
 16 19  2  0
 19 20  1  0
  6 21  2  0
 17 21  1  0
 13 22  1  0
 14 22  1  0
 17 23  2  0
 19 23  1  0
 18 24  2  0
 24 25  1  0
 18 26  1  0
 26 27  2  0
 25 28  2  0
 27 28  1  0
M  END
$$$$
O14757_Pocket2Mol_idx-in-all-generaetd-857
     RDKit          3D

 42 49  0  0  0  0  0  0  0  0999 V2000
    1.5482   -0.3111   41.9233 C   0  0  0  0  0  0  0  0  0  0  0  0
    2.7284    0.2018   42.1525 N   0  0  0  0  0  0  0  0  0  0  0  0
    3.7893   -0.3016   42.7005 C   0  0  0  0  0  0  0  0  0  0  0  0
    3.3781   -1.7350   43.0000 C   0  0  0  0  0  0  0  0  0  0  0  0
    2.0339   -1.9619   42.6217 C   0  0  0  0  0  0  0  0  0  0  0  0
    4.1166   -2.4997   43.8458 C   0  0  0  0  0  0  0  0  0  0  0  0
    1.1731   -3.0051   42.5773 C   0  0  0  0  0  0  0  0  0  0  0  0
    0.4701   -3.2344   41.4901 C   0  0  0  0  0  0  0  0  0  0  0  0
    5.3799   -1.7814   44.2691 C   0  0  0  0  0  0  0  0  0  0  0  0
    5.0159   -0.0180   43.1201 N   0  0  0  0  0  0  0  0  0  0  0  0
    5.7693   -0.6937   43.8418 C   0  0  0  0  0  0  0  0  0  0  0  0
    0.8078   -3.6166   43.6782 C   0  0  0  0  0  0  0  0  0  0  0  0
    0.0663   -4.7011   43.7415 N   0  0  0  0  0  0  0  0  0  0  0  0
    6.2223   -2.6843   45.1565 C   0  0  0  0  0  0  0  0  0  0  0  0
    6.9599   -0.2351   44.2608 N   0  0  0  0  0  0  0  0  0  0  0  0
    5.9065   -3.9037   45.7499 N   0  0  0  0  0  0  0  0  0  0  0  0
   -0.5459   -5.1185   42.5870 C   0  0  0  0  0  0  0  0  0  0  0  0
    5.7480   -4.0340   46.9810 C   0  0  0  0  0  0  0  0  0  0  0  0
    7.4448   -1.8511   45.4198 C   0  0  0  0  0  0  0  0  0  0  0  0
    7.7572   -0.7827   45.0128 C   0  0  0  0  0  0  0  0  0  0  0  0
    8.4076   -2.7217   46.4541 C   0  0  0  0  0  0  0  0  0  0  0  0
    9.3167   -2.0988   47.1049 N   0  0  0  0  0  0  0  0  0  0  0  0
   -0.4719   -4.3893   41.5406 C   0  0  0  0  0  0  0  0  0  0  0  0
    8.3667   -4.0284   46.5743 N   0  0  0  0  0  0  0  0  0  0  0  0
    9.5309   -4.3147   47.3094 C   0  0  0  0  0  0  0  0  0  0  0  0
    5.3113   -3.3789   47.8005 O   0  0  0  0  0  0  0  0  0  0  0  0
    9.9022   -5.6301   47.7684 C   0  0  0  0  0  0  0  0  0  0  0  0
    5.4470   -5.5868   47.2096 C   0  0  0  0  0  0  0  0  0  0  0  0
   11.2254   -5.8679   48.0402 C   0  0  0  0  0  0  0  0  0  0  0  0
    8.9736   -6.6532   47.8548 C   0  0  0  0  0  0  0  0  0  0  0  0
   10.0616   -3.0670   47.6360 C   0  0  0  0  0  0  0  0  0  0  0  0
    7.5566   -6.3564   47.5477 N   0  0  0  0  0  0  0  0  0  0  0  0
    6.4157   -6.1721   48.0913 C   0  0  0  0  0  0  0  0  0  0  0  0
   12.3275   -4.8510   47.9324 C   0  0  0  0  0  0  0  0  0  0  0  0
    9.3494   -7.8378   48.4266 C   0  0  0  0  0  0  0  0  0  0  0  0
   11.2226   -2.8389   48.5368 C   0  0  0  0  0  0  0  0  0  0  0  0
   12.3750   -3.4239   48.2319 N   0  0  0  0  0  0  0  0  0  0  0  0
    8.3353   -8.9139   48.5511 O   0  0  0  0  0  0  0  0  0  0  0  0
   11.6766   -7.0738   48.4718 C   0  0  0  0  0  0  0  0  0  0  0  0
   13.3187   -5.1286   47.1481 O   0  0  0  0  0  0  0  0  0  0  0  0
    8.1405   -9.3849   49.8024 C   0  0  0  0  0  0  0  0  0  0  0  0
   10.7196   -8.1039   48.6597 C   0  0  0  0  0  0  0  0  0  0  0  0
  1  2  1  0
  2  3  2  0
  3  4  1  0
  1  5  2  0
  4  5  1  0
  4  6  2  0
  5  7  1  0
  7  8  2  0
  6  9  1  0
  3 10  1  0
  9 11  2  0
 10 11  1  0
  7 12  1  0
 12 13  2  0
  9 14  1  0
 11 15  1  0
 14 16  1  0
 13 17  1  0
 16 18  1  0
 14 19  2  0
 15 20  2  0
 19 20  1  0
 19 21  1  0
 21 22  2  0
  8 23  1  0
 17 23  2  0
 21 24  1  0
 24 25  1  0
 18 26  2  0
 25 27  1  0
 18 28  1  0
 27 29  2  0
 27 30  1  0
 22 31  1  0
 25 31  2  0
 30 32  1  0
 28 33  1  0
 32 33  1  0
 29 34  1  0
 30 35  2  0
 31 36  1  0
 34 37  1  0
 36 37  1  0
 35 38  1  0
 29 39  1  0
 34 40  2  0
 38 41  1  0
 35 42  1  0
 39 42  2  0
M  END
$$$$
O14757_Pocket2Mol_idx-in-all-generaetd-858
     RDKit          3D

 40 47  0  0  0  0  0  0  0  0999 V2000
    1.5482   -0.3111   41.9233 C   0  0  0  0  0  0  0  0  0  0  0  0
    2.7284    0.2018   42.1525 N   0  0  0  0  0  0  0  0  0  0  0  0
    3.7893   -0.3016   42.7005 C   0  0  0  0  0  0  0  0  0  0  0  0
    3.3781   -1.7350   43.0000 C   0  0  0  0  0  0  0  0  0  0  0  0
    2.0339   -1.9619   42.6217 C   0  0  0  0  0  0  0  0  0  0  0  0
    4.1166   -2.4997   43.8458 C   0  0  0  0  0  0  0  0  0  0  0  0
    1.1731   -3.0051   42.5773 C   0  0  0  0  0  0  0  0  0  0  0  0
    0.4701   -3.2344   41.4901 C   0  0  0  0  0  0  0  0  0  0  0  0
    5.3799   -1.7814   44.2691 C   0  0  0  0  0  0  0  0  0  0  0  0
    5.0159   -0.0180   43.1201 N   0  0  0  0  0  0  0  0  0  0  0  0
    5.7693   -0.6937   43.8418 C   0  0  0  0  0  0  0  0  0  0  0  0
    0.8078   -3.6166   43.6782 C   0  0  0  0  0  0  0  0  0  0  0  0
    0.0663   -4.7011   43.7415 N   0  0  0  0  0  0  0  0  0  0  0  0
    6.2223   -2.6843   45.1565 C   0  0  0  0  0  0  0  0  0  0  0  0
    6.9599   -0.2351   44.2608 N   0  0  0  0  0  0  0  0  0  0  0  0
    5.9065   -3.9037   45.7499 N   0  0  0  0  0  0  0  0  0  0  0  0
   -0.5459   -5.1185   42.5870 C   0  0  0  0  0  0  0  0  0  0  0  0
    5.7480   -4.0340   46.9810 C   0  0  0  0  0  0  0  0  0  0  0  0
    7.4448   -1.8511   45.4198 C   0  0  0  0  0  0  0  0  0  0  0  0
    7.7572   -0.7827   45.0128 C   0  0  0  0  0  0  0  0  0  0  0  0
    8.4076   -2.7217   46.4541 C   0  0  0  0  0  0  0  0  0  0  0  0
    9.3167   -2.0988   47.1049 N   0  0  0  0  0  0  0  0  0  0  0  0
   -0.4719   -4.3893   41.5406 C   0  0  0  0  0  0  0  0  0  0  0  0
    8.3667   -4.0284   46.5743 N   0  0  0  0  0  0  0  0  0  0  0  0
    9.5309   -4.3147   47.3094 C   0  0  0  0  0  0  0  0  0  0  0  0
    5.3113   -3.3789   47.8005 O   0  0  0  0  0  0  0  0  0  0  0  0
    9.9022   -5.6301   47.7684 C   0  0  0  0  0  0  0  0  0  0  0  0
    5.4470   -5.5868   47.2096 C   0  0  0  0  0  0  0  0  0  0  0  0
   11.2254   -5.8679   48.0402 C   0  0  0  0  0  0  0  0  0  0  0  0
    8.9736   -6.6532   47.8548 C   0  0  0  0  0  0  0  0  0  0  0  0
   10.0616   -3.0670   47.6360 C   0  0  0  0  0  0  0  0  0  0  0  0
    7.5566   -6.3564   47.5477 N   0  0  0  0  0  0  0  0  0  0  0  0
    6.4157   -6.1721   48.0913 C   0  0  0  0  0  0  0  0  0  0  0  0
   12.3275   -4.8510   47.9324 C   0  0  2  0  0  0  0  0  0  0  0  0
    9.4585   -7.9662   48.0726 C   0  0  0  0  0  0  0  0  0  0  0  0
   11.5288   -2.7910   48.1740 C   0  0  0  0  0  0  0  0  0  0  0  0
   10.7288   -8.1991   48.4378 C   0  0  0  0  0  0  0  0  0  0  0  0
   13.5791   -5.4803   48.0269 O   0  0  0  0  0  0  0  0  0  0  0  0
   12.2177   -3.5918   48.1995 O   0  0  0  0  0  0  0  0  0  0  0  0
   11.6828   -7.1690   48.3745 C   0  0  0  0  0  0  0  0  0  0  0  0
  1  2  1  0
  2  3  2  0
  3  4  1  0
  1  5  2  0
  4  5  1  0
  4  6  2  0
  5  7  1  0
  7  8  2  0
  6  9  1  0
  3 10  1  0
  9 11  2  0
 10 11  1  0
  7 12  1  0
 12 13  2  0
  9 14  1  0
 11 15  1  0
 14 16  1  0
 13 17  1  0
 16 18  1  0
 14 19  2  0
 15 20  2  0
 19 20  1  0
 19 21  1  0
 21 22  2  0
  8 23  1  0
 17 23  2  0
 21 24  1  0
 24 25  1  0
 18 26  2  0
 25 27  1  0
 18 28  1  0
 27 29  2  0
 27 30  1  0
 22 31  1  0
 25 31  2  0
 30 32  1  0
 28 33  1  0
 32 33  1  0
 29 34  1  0
 30 35  2  0
 31 36  1  0
 35 37  1  0
 34 38  1  1
 34 39  1  0
 36 39  1  0
 29 40  1  0
 37 40  2  0
M  END
$$$$
O14757_Pocket2Mol_idx-in-all-generaetd-859
     RDKit          3D

 31 36  0  0  0  0  0  0  0  0999 V2000
    4.8173    0.2791   42.6993 N   0  0  0  0  0  0  0  0  0  0  0  0
    5.3297   -0.7477   43.3688 C   0  0  0  0  0  0  0  0  0  0  0  0
    3.4732   -0.2235   42.4530 C   0  0  0  0  0  0  0  0  0  0  0  0
    4.4984   -1.7876   43.6214 C   0  0  0  0  0  0  0  0  0  0  0  0
    3.3438   -1.5190   42.9379 C   0  0  0  0  0  0  0  0  0  0  0  0
    2.1381   -2.3401   42.8254 C   0  0  0  0  0  0  0  0  0  0  0  0
    2.3894    0.3572   41.9843 N   0  0  0  0  0  0  0  0  0  0  0  0
    4.9180   -3.0430   44.3829 C   0  0  0  0  0  0  0  0  0  0  0  0
    5.9444   -2.9314   45.3934 C   0  0  0  0  0  0  0  0  0  0  0  0
    4.2808   -4.1329   44.3252 C   0  0  0  0  0  0  0  0  0  0  0  0
    3.1588   -4.4221   43.4852 O   0  0  0  0  0  0  0  0  0  0  0  0
    4.5704   -5.2518   45.1995 C   0  0  0  0  0  0  0  0  0  0  0  0
    1.9853   -3.6792   43.3495 C   0  0  0  0  0  0  0  0  0  0  0  0
    0.9181   -4.3294   43.4638 C   0  0  0  0  0  0  0  0  0  0  0  0
    6.7403   -1.6226   45.5272 C   0  0  0  0  0  0  0  0  0  0  0  0
    0.9752   -1.7845   42.3366 C   0  0  0  0  0  0  0  0  0  0  0  0
    5.5543   -5.1294   46.1078 C   0  0  0  0  0  0  0  0  0  0  0  0
    7.9772   -1.5901   46.1526 C   0  0  0  0  0  0  0  0  0  0  0  0
    8.6171   -2.7180   46.2255 N   0  0  0  0  0  0  0  0  0  0  0  0
    6.5160   -0.7262   44.3482 C   0  0  0  0  0  0  0  0  0  0  0  0
    5.8670   -6.1665   47.0241 O   0  0  0  0  0  0  0  0  0  0  0  0
   -0.2437   -2.4672   42.2827 C   0  0  0  0  0  0  0  0  0  0  0  0
   -0.2692   -3.7414   42.8178 C   0  0  0  0  0  0  0  0  0  0  0  0
    9.9681   -2.6191   46.7638 C   0  0  0  0  0  0  0  0  0  0  0  0
    1.1363   -0.3573   41.8489 C   0  0  0  0  0  0  0  0  0  0  0  0
    6.3057   -3.9844   46.2155 C   0  0  0  0  0  0  0  0  0  0  0  0
   10.5657   -1.5965   47.0197 O   0  0  0  0  0  0  0  0  0  0  0  0
   10.5892   -3.9324   47.0834 C   0  0  0  0  0  0  0  0  0  0  0  0
    6.3930   -5.8468   48.2153 C   0  0  0  0  0  0  0  0  0  0  0  0
    9.9668   -4.9401   47.1209 O   0  0  0  0  0  0  0  0  0  0  0  0
   11.9463   -3.9380   47.0830 N   0  0  0  0  0  0  0  0  0  0  0  0
  1  2  2  0
  1  3  1  0
  2  4  1  0
  3  5  1  0
  4  5  2  0
  5  6  1  0
  3  7  2  0
  4  8  1  0
  8  9  2  0
  8 10  1  0
 10 11  1  0
 10 12  2  0
  6 13  2  0
 11 13  1  0
 13 14  1  0
  9 15  1  0
  6 16  1  0
 12 17  1  0
 15 18  1  0
 18 19  1  0
  2 20  1  0
 15 20  2  0
 17 21  1  0
 16 22  2  0
 14 23  2  0
 22 23  1  0
 19 24  1  0
  7 25  1  0
 16 25  1  0
  9 26  1  0
 17 26  2  0
 24 27  2  0
 24 28  1  0
 21 29  1  0
 28 30  2  0
 28 31  1  0
M  END
$$$$
O14757_Pocket2Mol_idx-in-all-generaetd-860
     RDKit          3D

 22 25  0  0  0  0  0  0  0  0999 V2000
    4.5156    0.0550   42.9895 N   0  0  0  0  0  0  0  0  0  0  0  0
    5.0618   -0.8645   43.5295 C   0  0  0  0  0  0  0  0  0  0  0  0
    4.4350   -2.0604   43.7783 C   0  0  0  0  0  0  0  0  0  0  0  0
    3.1949   -1.8657   43.0982 C   0  0  0  0  0  0  0  0  0  0  0  0
    4.9542   -3.1463   44.5335 C   0  0  0  0  0  0  0  0  0  0  0  0
    6.4558   -0.5585   44.1886 N   0  0  0  0  0  0  0  0  0  0  0  0
    4.2721   -4.3244   44.6685 C   0  0  0  0  0  0  0  0  0  0  0  0
    2.1703   -2.7509   42.8781 C   0  0  0  0  0  0  0  0  0  0  0  0
    5.9828   -2.9133   45.5213 C   0  0  0  0  0  0  0  0  0  0  0  0
    6.9086   -1.5074   45.1325 C   0  0  0  0  0  0  0  0  0  0  0  0
    3.2765   -0.4576   42.4761 C   0  0  0  0  0  0  0  0  0  0  0  0
    6.4419   -3.9195   46.2207 C   0  0  0  0  0  0  0  0  0  0  0  0
    5.7479   -5.0350   46.3913 C   0  0  0  0  0  0  0  0  0  0  0  0
    4.5713   -5.2600   45.5036 C   0  0  0  0  0  0  0  0  0  0  0  0
    7.9587   -1.3446   46.0046 C   0  0  0  0  0  0  0  0  0  0  0  0
    8.0130   -1.1133   47.1866 O   0  0  0  0  0  0  0  0  0  0  0  0
    2.3504    0.0664   41.9257 N   0  0  0  0  0  0  0  0  0  0  0  0
    9.1240   -1.0921   45.2760 O   0  0  0  0  0  0  0  0  0  0  0  0
    1.1615   -0.6972   41.6846 C   0  0  0  0  0  0  0  0  0  0  0  0
    1.0961   -2.1263   42.0956 C   0  0  0  0  0  0  0  0  0  0  0  0
   -0.0278   -2.9519   41.7870 C   0  0  0  0  0  0  0  0  0  0  0  0
   -0.2180   -3.5924   40.8644 O   0  0  0  0  0  0  0  0  0  0  0  0
  1  2  2  0
  2  3  1  0
  3  4  2  0
  3  5  1  0
  2  6  1  0
  5  7  2  0
  4  8  1  0
  5  9  1  0
  6 10  2  0
  9 10  1  0
  1 11  1  0
  4 11  1  0
  9 12  2  0
 12 13  1  0
  7 14  1  0
 13 14  2  0
 10 15  1  0
 15 16  2  0
 11 17  2  0
 15 18  1  0
 17 19  1  0
  8 20  1  0
 19 20  1  0
 20 21  2  3
 21 22  1  0
M  END
$$$$
O14757_Pocket2Mol_idx-in-all-generaetd-861
     RDKit          3D

 43 51  0  0  0  0  0  0  0  0999 V2000
    1.5482   -0.3111   41.9233 C   0  0  0  0  0  0  0  0  0  0  0  0
    2.7284    0.2018   42.1525 N   0  0  0  0  0  0  0  0  0  0  0  0
    3.7893   -0.3016   42.7005 C   0  0  0  0  0  0  0  0  0  0  0  0
    3.3781   -1.7350   43.0000 C   0  0  0  0  0  0  0  0  0  0  0  0
    2.0339   -1.9619   42.6217 C   0  0  0  0  0  0  0  0  0  0  0  0
    4.1166   -2.4997   43.8458 C   0  0  0  0  0  0  0  0  0  0  0  0
    1.1731   -3.0051   42.5773 C   0  0  0  0  0  0  0  0  0  0  0  0
    0.4701   -3.2344   41.4901 C   0  0  0  0  0  0  0  0  0  0  0  0
    5.3799   -1.7814   44.2691 C   0  0  0  0  0  0  0  0  0  0  0  0
    5.0159   -0.0180   43.1201 N   0  0  0  0  0  0  0  0  0  0  0  0
    5.7693   -0.6937   43.8418 C   0  0  0  0  0  0  0  0  0  0  0  0
    0.8078   -3.6166   43.6782 C   0  0  0  0  0  0  0  0  0  0  0  0
    0.0663   -4.7011   43.7415 N   0  0  0  0  0  0  0  0  0  0  0  0
    6.2223   -2.6843   45.1565 C   0  0  0  0  0  0  0  0  0  0  0  0
    6.9599   -0.2351   44.2608 N   0  0  0  0  0  0  0  0  0  0  0  0
    5.9065   -3.9037   45.7499 N   0  0  0  0  0  0  0  0  0  0  0  0
   -0.5459   -5.1185   42.5870 C   0  0  0  0  0  0  0  0  0  0  0  0
    5.7480   -4.0340   46.9810 C   0  0  0  0  0  0  0  0  0  0  0  0
    7.4448   -1.8511   45.4198 C   0  0  0  0  0  0  0  0  0  0  0  0
    7.7572   -0.7827   45.0128 C   0  0  0  0  0  0  0  0  0  0  0  0
    8.4076   -2.7217   46.4541 C   0  0  0  0  0  0  0  0  0  0  0  0
    9.3167   -2.0988   47.1049 N   0  0  0  0  0  0  0  0  0  0  0  0
   -0.4719   -4.3893   41.5406 C   0  0  0  0  0  0  0  0  0  0  0  0
    8.3667   -4.0284   46.5743 N   0  0  0  0  0  0  0  0  0  0  0  0
    9.5309   -4.3147   47.3094 C   0  0  0  0  0  0  0  0  0  0  0  0
    5.3113   -3.3789   47.8005 O   0  0  0  0  0  0  0  0  0  0  0  0
    9.9022   -5.6301   47.7684 C   0  0  0  0  0  0  0  0  0  0  0  0
    5.4470   -5.5868   47.2096 C   0  0  0  0  0  0  0  0  0  0  0  0
   11.2254   -5.8679   48.0402 C   0  0  0  0  0  0  0  0  0  0  0  0
    8.9736   -6.6532   47.8548 C   0  0  0  0  0  0  0  0  0  0  0  0
   10.0616   -3.0670   47.6360 C   0  0  0  0  0  0  0  0  0  0  0  0
    7.5566   -6.3564   47.5477 N   0  0  0  0  0  0  0  0  0  0  0  0
    6.4157   -6.1721   48.0913 C   0  0  0  0  0  0  0  0  0  0  0  0
   12.3275   -4.8510   47.9324 C   0  0  2  0  0  0  0  0  0  0  0  0
    9.4585   -7.9662   48.0726 C   0  0  0  0  0  0  0  0  0  0  0  0
   11.5288   -2.7910   48.1740 C   0  0  0  0  0  0  0  0  0  0  0  0
   13.6010   -5.5179   48.0202 O   0  0  0  0  0  0  0  0  0  0  0  0
   11.6306   -7.1387   48.1870 C   0  0  0  0  0  0  0  0  0  0  0  0
   12.2455   -3.5875   48.1245 C   0  0  0  0  0  0  0  0  0  0  0  0
   13.6412   -3.2570   48.4414 O   0  0  0  0  0  0  0  0  0  0  0  0
   13.0307   -7.4579   48.5163 O   0  0  0  0  0  0  0  0  0  0  0  0
   10.7479   -8.1889   48.3627 C   0  0  0  0  0  0  0  0  0  0  0  0
   13.9452   -6.7049   48.3901 C   0  0  0  0  0  0  0  0  0  0  0  0
  1  2  1  0
  2  3  2  0
  3  4  1  0
  1  5  2  0
  4  5  1  0
  4  6  2  0
  5  7  1  0
  7  8  2  0
  6  9  1  0
  3 10  1  0
  9 11  2  0
 10 11  1  0
  7 12  1  0
 12 13  2  0
  9 14  1  0
 11 15  1  0
 14 16  1  0
 13 17  1  0
 16 18  1  0
 14 19  2  0
 15 20  2  0
 19 20  1  0
 19 21  1  0
 21 22  2  0
  8 23  1  0
 17 23  2  0
 21 24  1  0
 24 25  1  0
 18 26  2  0
 25 27  1  0
 18 28  1  0
 27 29  2  0
 27 30  1  0
 22 31  1  0
 25 31  2  0
 30 32  1  0
 28 33  1  0
 32 33  1  0
 29 34  1  0
 30 35  2  0
 31 36  1  0
 34 37  1  1
 29 38  1  0
 34 39  1  0
 36 39  1  0
 39 40  2  0
 38 41  1  0
 35 42  1  0
 38 42  2  0
 37 43  1  0
 41 43  1  0
M  END
$$$$
O14757_Pocket2Mol_idx-in-all-generaetd-862
     RDKit          3D

 35 40  0  0  0  0  0  0  0  0999 V2000
    1.5482   -0.3111   41.9233 C   0  0  0  0  0  0  0  0  0  0  0  0
    2.7284    0.2018   42.1525 N   0  0  0  0  0  0  0  0  0  0  0  0
    3.7893   -0.3016   42.7005 C   0  0  0  0  0  0  0  0  0  0  0  0
    3.3781   -1.7350   43.0000 C   0  0  0  0  0  0  0  0  0  0  0  0
    2.0339   -1.9619   42.6217 C   0  0  0  0  0  0  0  0  0  0  0  0
    4.1166   -2.4997   43.8458 C   0  0  0  0  0  0  0  0  0  0  0  0
    1.1731   -3.0051   42.5773 C   0  0  0  0  0  0  0  0  0  0  0  0
    0.4701   -3.2344   41.4901 C   0  0  0  0  0  0  0  0  0  0  0  0
    5.3799   -1.7814   44.2691 C   0  0  0  0  0  0  0  0  0  0  0  0
    5.0159   -0.0180   43.1201 N   0  0  0  0  0  0  0  0  0  0  0  0
    5.7693   -0.6937   43.8418 C   0  0  0  0  0  0  0  0  0  0  0  0
    0.8078   -3.6166   43.6782 C   0  0  0  0  0  0  0  0  0  0  0  0
    0.0663   -4.7011   43.7415 N   0  0  0  0  0  0  0  0  0  0  0  0
    6.2223   -2.6843   45.1565 C   0  0  0  0  0  0  0  0  0  0  0  0
    6.9599   -0.2351   44.2608 N   0  0  0  0  0  0  0  0  0  0  0  0
    5.9065   -3.9037   45.7499 N   0  0  0  0  0  0  0  0  0  0  0  0
   -0.5459   -5.1185   42.5870 C   0  0  0  0  0  0  0  0  0  0  0  0
    5.7480   -4.0340   46.9810 C   0  0  0  0  0  0  0  0  0  0  0  0
    7.4448   -1.8511   45.4198 C   0  0  0  0  0  0  0  0  0  0  0  0
    7.7572   -0.7827   45.0128 C   0  0  0  0  0  0  0  0  0  0  0  0
    8.4076   -2.7217   46.4541 C   0  0  0  0  0  0  0  0  0  0  0  0
    9.3167   -2.0988   47.1049 N   0  0  0  0  0  0  0  0  0  0  0  0
   -0.4719   -4.3893   41.5406 C   0  0  0  0  0  0  0  0  0  0  0  0
    8.3667   -4.0284   46.5743 N   0  0  0  0  0  0  0  0  0  0  0  0
   10.1532   -2.5726   47.9567 C   0  0  0  0  0  0  0  0  0  0  0  0
    7.1666   -4.7114   47.2915 C   0  0  0  0  0  0  0  0  0  0  0  0
   11.4560   -2.5376   47.5873 C   0  0  2  0  0  0  0  0  0  0  0  0
   11.8152   -3.5493   46.6694 C   0  0  0  0  0  0  0  0  0  0  0  0
   12.7174   -3.2253   45.6793 O   0  0  0  0  0  0  0  0  0  0  0  0
   11.1601   -4.5914   46.3617 O   0  0  0  0  0  0  0  0  0  0  0  0
    9.8346   -2.3571   49.3169 C   0  0  0  0  0  0  0  0  0  0  0  0
   11.0830   -2.4359   50.1249 C   0  0  0  0  0  0  0  0  0  0  0  0
   10.6602   -2.2937   51.6316 O   0  0  0  0  0  0  0  0  0  0  0  0
   12.5613   -3.0363   48.5486 C   0  0  0  0  0  0  0  0  0  0  0  0
   12.2280   -3.0426   49.9011 C   0  0  0  0  0  0  0  0  0  0  0  0
  1  2  1  0
  2  3  2  0
  3  4  1  0
  1  5  2  0
  4  5  1  0
  4  6  2  0
  5  7  1  0
  7  8  2  0
  6  9  1  0
  3 10  1  0
  9 11  2  0
 10 11  1  0
  7 12  1  0
 12 13  2  0
  9 14  1  0
 11 15  1  0
 14 16  1  0
 13 17  1  0
 16 18  1  0
 14 19  2  0
 15 20  2  0
 19 20  1  0
 19 21  1  0
 21 22  2  3
  8 23  1  0
 17 23  2  0
 21 24  1  0
 22 25  1  0
 18 26  1  0
 24 26  1  0
 25 27  1  0
 27 28  1  6
 28 29  2  0
 28 30  1  0
 25 31  2  0
 31 32  1  0
 32 33  1  0
 27 34  1  0
 32 35  2  0
 34 35  1  0
M  END
$$$$
O14757_Pocket2Mol_idx-in-all-generaetd-863
     RDKit          3D

 49 57  0  0  0  0  0  0  0  0999 V2000
    5.3420    0.2589   42.8836 O   0  0  0  0  0  0  0  0  0  0  0  0
    5.1627   -0.7554   43.4753 C   0  0  0  0  0  0  0  0  0  0  0  0
    4.0509   -1.4657   43.4177 N   0  0  0  0  0  0  0  0  0  0  0  0
    5.9969   -1.2317   44.6840 C   0  0  0  0  0  0  0  0  0  0  0  0
    2.9618   -1.1021   42.5918 C   0  0  1  0  0  0  0  0  0  0  0  0
    7.3392   -0.8596   44.8412 C   0  0  0  0  0  0  0  0  0  0  0  0
    1.9754   -2.0820   42.2741 C   0  0  0  0  0  0  0  0  0  0  0  0
    5.5910   -2.4282   45.3439 C   0  0  0  0  0  0  0  0  0  0  0  0
    6.5874   -2.9636   46.1581 C   0  0  0  0  0  0  0  0  0  0  0  0
    4.2763   -3.0680   45.0493 N   0  0  0  0  0  0  0  0  0  0  0  0
    3.6188   -2.5886   44.2024 C   0  0  0  0  0  0  0  0  0  0  0  0
    8.1921   -1.4071   45.7505 C   0  0  0  0  0  0  0  0  0  0  0  0
    1.0154   -1.8839   41.2980 C   0  0  0  0  0  0  0  0  0  0  0  0
    2.5720   -3.3564   43.9063 C   0  0  0  0  0  0  0  0  0  0  0  0
    0.2502   -2.8976   41.0751 C   0  0  0  0  0  0  0  0  0  0  0  0
    6.1761   -4.1775   47.0209 C   0  0  0  0  0  0  0  0  0  0  0  0
    1.7266   -3.1047   43.0115 C   0  0  2  0  0  0  0  0  0  0  0  0
    2.3696   -4.5367   44.7536 N   0  0  0  0  0  0  0  0  0  0  0  0
    1.2264   -5.2346   44.4693 C   0  0  0  0  0  0  0  0  0  0  0  0
    0.7187   -3.8955   42.5465 C   0  0  0  0  0  0  0  0  0  0  0  0
    9.4576   -0.8949   46.0327 N   0  0  0  0  0  0  0  0  0  0  0  0
    0.8625   -6.3901   45.2462 C   0  0  0  0  0  0  0  0  0  0  0  0
    7.6467   -2.5139   46.4892 C   0  0  0  0  0  0  0  0  0  0  0  0
   10.4908   -1.5336   45.8242 C   0  0  0  0  0  0  0  0  0  0  0  0
    0.3057   -4.9299   43.2909 C   0  0  0  0  0  0  0  0  0  0  0  0
   11.5916   -1.4291   46.7436 C   0  0  0  0  0  0  0  0  0  0  0  0
   10.5566   -2.3672   44.8649 O   0  0  0  0  0  0  0  0  0  0  0  0
    2.4730    0.2084   42.8389 O   0  0  0  0  0  0  0  0  0  0  0  0
   11.6027   -2.2081   47.7725 N   0  0  0  0  0  0  0  0  0  0  0  0
   12.6189   -0.5862   46.5415 C   0  0  0  0  0  0  0  0  0  0  0  0
   13.6413   -0.4484   47.4129 C   0  0  0  0  0  0  0  0  0  0  0  0
   10.4764   -3.1097   48.1134 C   0  0  0  0  0  0  0  0  0  0  0  0
    9.5762   -2.4717   49.0753 C   0  0  0  0  0  0  0  0  0  0  0  0
    9.7761   -1.2394   49.5167 C   0  0  0  0  0  0  0  0  0  0  0  0
    8.6397   -3.3252   49.7339 C   0  0  0  0  0  0  0  0  0  0  0  0
    8.9861   -0.7034   50.5819 C   0  0  0  0  0  0  0  0  0  0  0  0
   14.7137    0.5128   47.0925 C   0  0  0  0  0  0  0  0  0  0  0  0
    8.1815   -1.5423   51.2387 C   0  0  0  0  0  0  0  0  0  0  0  0
    8.4156   -4.7176   49.2102 O   0  0  0  0  0  0  0  0  0  0  0  0
   13.6915   -1.2597   48.4795 C   0  0  0  0  0  0  0  0  0  0  0  0
   14.7842   -1.1839   49.3622 C   0  0  0  0  0  0  0  0  0  0  0  0
   12.5774   -2.1710   48.6835 C   0  0  0  0  0  0  0  0  0  0  0  0
   14.8423   -1.9939   50.5370 O   0  0  0  0  0  0  0  0  0  0  0  0
   15.7346    0.5935   47.9963 C   0  0  0  0  0  0  0  0  0  0  0  0
    7.9706   -2.9009   50.8137 C   0  0  0  0  0  0  0  0  0  0  0  0
   16.8231    1.5237   47.7871 O   0  0  0  0  0  0  0  0  0  0  0  0
   15.8768   -0.2234   49.1845 C   0  0  0  0  0  0  0  0  0  0  0  0
    7.1885   -5.2267   49.3878 C   0  0  0  0  0  0  0  0  0  0  0  0
    6.2849   -4.3770   48.2973 C   0  0  0  0  0  0  0  0  0  0  0  0
  1  2  2  0
  2  3  1  0
  2  4  1  0
  3  5  1  0
  4  6  2  0
  5  7  1  0
  4  8  1  0
  8  9  2  0
  8 10  1  0
  3 11  1  0
 10 11  2  0
  6 12  1  0
  7 13  2  0
 11 14  1  0
 13 15  1  0
  9 16  1  0
 17  7  1  6
 14 17  1  0
 14 18  2  0
 18 19  1  0
 15 20  2  0
 17 20  1  0
 12 21  1  0
 19 22  1  0
  9 23  1  0
 12 23  2  0
 21 24  1  0
 19 25  2  0
 20 25  1  0
 24 26  1  0
 24 27  2  0
  5 28  1  1
 26 29  1  0
 26 30  2  0
 30 31  1  0
 29 32  1  0
 32 33  1  0
 33 34  1  0
 33 35  2  0
 34 36  2  0
 31 37  2  0
 36 38  1  0
 35 39  1  0
 31 40  1  0
 40 41  2  0
 29 42  1  0
 40 42  1  0
 41 43  1  0
 37 44  1  0
 35 45  1  0
 38 45  2  0
 44 46  1  0
 41 47  1  0
 44 47  2  0
 39 48  1  0
 16 49  2  3
 48 49  1  0
M  END
$$$$
O14757_Pocket2Mol_idx-in-all-generaetd-864
     RDKit          3D

 39 47  0  0  0  0  0  0  0  0999 V2000
    1.5482   -0.3111   41.9233 C   0  0  0  0  0  0  0  0  0  0  0  0
    2.7284    0.2018   42.1525 N   0  0  0  0  0  0  0  0  0  0  0  0
    3.7893   -0.3016   42.7005 C   0  0  0  0  0  0  0  0  0  0  0  0
    3.3781   -1.7350   43.0000 C   0  0  0  0  0  0  0  0  0  0  0  0
    2.0339   -1.9619   42.6217 C   0  0  0  0  0  0  0  0  0  0  0  0
    5.0090    0.1219   42.9340 N   0  0  0  0  0  0  0  0  0  0  0  0
    4.2895   -2.4979   43.6707 C   0  0  0  0  0  0  0  0  0  0  0  0
    5.8391   -0.6675   43.6343 C   0  0  0  0  0  0  0  0  0  0  0  0
    6.9849   -0.2377   44.0028 N   0  0  0  0  0  0  0  0  0  0  0  0
    4.0426   -3.8794   44.0832 C   0  0  0  0  0  0  0  0  0  0  0  0
    7.6796   -0.8734   44.9326 C   0  0  0  0  0  0  0  0  0  0  0  0
    1.1064   -2.9576   42.4211 C   0  0  0  0  0  0  0  0  0  0  0  0
    5.5298   -1.9496   44.0315 C   0  0  0  0  0  0  0  0  0  0  0  0
    3.8954   -4.1817   45.4718 C   0  0  0  0  0  0  0  0  0  0  0  0
    0.6765   -3.5480   43.4006 C   0  0  1  0  0  0  0  0  0  0  0  0
    0.5804   -3.2191   41.1635 C   0  0  0  0  0  0  0  0  0  0  0  0
    2.8083   -4.8227   45.9203 N   0  0  0  0  0  0  0  0  0  0  0  0
   -0.1574   -4.5754   42.9329 N   0  0  0  0  0  0  0  0  0  0  0  0
    6.5271   -2.5531   44.9677 C   0  0  0  0  0  0  0  0  0  0  0  0
   -0.2272   -4.3703   41.5137 C   0  0  0  0  0  0  0  0  0  0  0  0
    7.5095   -2.0029   45.3993 C   0  0  0  0  0  0  0  0  0  0  0  0
    8.2550   -2.6982   46.3988 C   0  0  0  0  0  0  0  0  0  0  0  0
    8.8975   -0.3029   45.3267 O   0  0  0  0  0  0  0  0  0  0  0  0
    4.8299   -4.4637   46.4212 C   0  0  0  0  0  0  0  0  0  0  0  0
    4.2707   -4.9248   47.6295 N   0  0  0  0  0  0  0  0  0  0  0  0
    3.2045   -5.2092   47.1521 C   0  0  0  0  0  0  0  0  0  0  0  0
    1.4482   -4.6186   45.4134 C   0  0  1  0  0  0  0  0  0  0  0  0
    1.2398   -3.5043   44.6236 O   0  0  0  0  0  0  0  0  0  0  0  0
    7.8521   -3.9584   46.8773 C   0  0  0  0  0  0  0  0  0  0  0  0
    8.4079   -4.7553   47.7407 C   0  0  0  0  0  0  0  0  0  0  0  0
    5.9516   -3.8110   45.9146 C   0  0  0  0  0  0  0  0  0  0  0  0
    6.6436   -4.3892   46.6649 C   0  0  0  0  0  0  0  0  0  0  0  0
    9.5111   -5.5246   47.2994 O   0  0  0  0  0  0  0  0  0  0  0  0
   10.6238   -5.0197   46.8534 C   0  0  1  0  0  0  0  0  0  0  0  0
   11.5866   -4.7361   47.6189 O   0  0  0  0  0  0  0  0  0  0  0  0
   11.2719   -6.0196   45.8653 C   0  0  0  0  0  0  0  0  0  0  0  0
   12.8150   -4.4783   47.1162 C   0  0  0  0  0  0  0  0  0  0  0  0
    1.2185   -5.7985   44.5774 C   0  0  0  0  0  0  0  0  0  0  0  0
   12.7596   -5.7070   46.1487 C   0  0  0  0  0  0  0  0  0  0  0  0
  1  2  1  0
  2  3  2  0
  3  4  1  0
  1  5  2  0
  4  5  1  0
  3  6  1  0
  4  7  2  0
  6  8  1  0
  8  9  1  0
  7 10  1  0
  9 11  1  0
  5 12  1  0
  7 13  1  0
  8 13  2  0
 10 14  1  0
 12 15  1  0
 12 16  2  0
 14 17  1  0
 15 18  1  0
 13 19  1  0
 16 20  1  0
 18 20  2  0
 11 21  1  0
 19 21  2  0
 21 22  1  0
 11 23  2  0
 14 24  2  0
 24 25  1  0
 17 26  1  0
 25 26  2  0
 17 27  1  0
 15 28  1  6
 27 28  1  0
 22 29  2  0
 29 30  1  0
 19 31  1  0
 24 31  1  0
 29 32  1  0
 31 32  2  0
 30 33  1  0
 34 33  1  1
 34 35  1  0
 34 36  1  0
 35 37  1  0
 27 38  1  6
 36 39  1  0
 37 39  1  0
M  END
$$$$
O14757_Pocket2Mol_idx-in-all-generaetd-865
     RDKit          3D

 32 38  0  0  0  0  0  0  0  0999 V2000
    4.8173    0.2791   42.6993 N   0  0  0  0  0  0  0  0  0  0  0  0
    5.3297   -0.7477   43.3688 C   0  0  0  0  0  0  0  0  0  0  0  0
    3.4732   -0.2235   42.4530 C   0  0  0  0  0  0  0  0  0  0  0  0
    4.4984   -1.7876   43.6214 C   0  0  0  0  0  0  0  0  0  0  0  0
    3.3438   -1.5190   42.9379 C   0  0  0  0  0  0  0  0  0  0  0  0
    2.1381   -2.3401   42.8254 C   0  0  0  0  0  0  0  0  0  0  0  0
    2.3894    0.3572   41.9843 N   0  0  0  0  0  0  0  0  0  0  0  0
    4.9180   -3.0430   44.3829 C   0  0  0  0  0  0  0  0  0  0  0  0
    5.9444   -2.9314   45.3934 C   0  0  0  0  0  0  0  0  0  0  0  0
    4.2808   -4.1329   44.3252 C   0  0  0  0  0  0  0  0  0  0  0  0
    3.1588   -4.4221   43.4852 O   0  0  0  0  0  0  0  0  0  0  0  0
    4.5704   -5.2518   45.1995 C   0  0  0  0  0  0  0  0  0  0  0  0
    1.9853   -3.6792   43.3495 C   0  0  0  0  0  0  0  0  0  0  0  0
    0.9181   -4.3294   43.4638 C   0  0  0  0  0  0  0  0  0  0  0  0
    6.7403   -1.6226   45.5272 C   0  0  2  0  0  0  0  0  0  0  0  0
    0.9752   -1.7845   42.3366 C   0  0  0  0  0  0  0  0  0  0  0  0
    6.2516   -3.7287   46.2722 C   0  0  0  0  0  0  0  0  0  0  0  0
   -0.2404   -2.4179   42.2529 C   0  0  0  0  0  0  0  0  0  0  0  0
   -1.3835   -1.8904   41.6559 N   0  0  0  0  0  0  0  0  0  0  0  0
    3.8706   -6.4216   45.1394 O   0  0  0  0  0  0  0  0  0  0  0  0
    0.9456   -0.2789   41.7649 C   0  0  0  0  0  0  0  0  0  0  0  0
   -0.2678   -3.6969   42.7575 C   0  0  0  0  0  0  0  0  0  0  0  0
    6.3913   -0.7000   44.3807 N   0  0  0  0  0  0  0  0  0  0  0  0
    7.9391   -1.5867   46.0069 C   0  0  0  0  0  0  0  0  0  0  0  0
    8.7787   -0.4879   45.9761 O   0  0  0  0  0  0  0  0  0  0  0  0
    5.3853   -5.1216   46.3780 C   0  0  0  0  0  0  0  0  0  0  0  0
    8.4504   -2.7517   46.6262 N   0  0  0  0  0  0  0  0  0  0  0  0
    7.4807   -3.7374   47.0380 C   0  0  0  0  0  0  0  0  0  0  0  0
    9.7861   -2.6616   47.2863 C   0  0  0  0  0  0  0  0  0  0  0  0
   10.0358   -3.7697   48.0129 C   0  0  0  0  0  0  0  0  0  0  0  0
   11.1918   -4.4404   47.7629 O   0  0  0  0  0  0  0  0  0  0  0  0
   11.1499   -4.8779   46.3913 C   0  0  0  0  0  0  0  0  0  0  0  0
  1  2  2  0
  1  3  1  0
  2  4  1  0
  3  5  1  0
  4  5  2  0
  5  6  1  0
  3  7  2  0
  4  8  1  0
  8  9  1  0
  8 10  2  0
 10 11  1  0
 10 12  1  0
  6 13  1  0
 11 13  1  0
 13 14  2  0
  9 15  1  0
  6 16  2  0
  9 17  2  0
 16 18  1  0
 18 19  1  0
 12 20  1  0
  7 21  1  0
 16 21  1  0
 14 22  1  0
 18 22  2  0
  2 23  1  0
 15 23  1  6
 15 24  1  0
 24 25  2  0
 12 26  2  0
 17 26  1  0
 24 27  1  0
 17 28  1  0
 27 28  1  0
 27 29  1  0
 29 30  1  0
 30 31  1  0
 31 32  1  0
M  END
$$$$
O14757_Pocket2Mol_idx-in-all-generaetd-866
     RDKit          3D

 30 36  0  0  0  0  0  0  0  0999 V2000
    4.8037   -0.1366   42.7100 N   0  0  0  0  0  0  0  0  0  0  0  0
    3.6577   -0.7759   42.7186 C   0  0  0  0  0  0  0  0  0  0  0  0
    3.6660   -1.8665   43.4760 C   0  0  0  0  0  0  0  0  0  0  0  0
    2.7271   -2.8718   43.6599 C   0  0  0  0  0  0  0  0  0  0  0  0
    2.4846   -0.2994   42.1254 N   0  0  0  0  0  0  0  0  0  0  0  0
    5.0524   -1.7697   43.9367 C   0  0  0  0  0  0  0  0  0  0  0  0
    1.4917   -2.9000   43.0914 C   0  0  0  0  0  0  0  0  0  0  0  0
    3.1274   -3.9503   44.5163 C   0  0  0  0  0  0  0  0  0  0  0  0
    1.0744   -1.9066   42.1491 C   0  0  2  0  0  0  0  0  0  0  0  0
    5.6624   -0.7003   43.4895 C   0  0  0  0  0  0  0  0  0  0  0  0
    5.5753   -2.5784   45.0324 C   0  0  0  0  0  0  0  0  0  0  0  0
    0.4030   -3.6297   43.4883 N   0  0  0  0  0  0  0  0  0  0  0  0
    1.5052   -0.8077   41.7519 C   0  0  0  0  0  0  0  0  0  0  0  0
   -0.5645   -3.4039   42.5585 N   0  0  0  0  0  0  0  0  0  0  0  0
    2.5059   -5.1012   44.7935 C   0  0  0  0  0  0  0  0  0  0  0  0
    4.4581   -3.8218   45.2947 C   0  0  0  0  0  0  0  0  0  0  0  0
   -0.3089   -2.3979   41.8128 C   0  0  0  0  0  0  0  0  0  0  0  0
    6.6435   -2.6577   45.6991 C   0  0  0  0  0  0  0  0  0  0  0  0
    7.0869   -3.7008   46.4717 C   0  0  0  0  0  0  0  0  0  0  0  0
    7.5912   -1.5296   45.5455 C   0  0  0  0  0  0  0  0  0  0  0  0
    8.7765   -1.4352   46.2248 C   0  0  0  0  0  0  0  0  0  0  0  0
    6.3069   -4.7944   46.6836 O   0  0  0  0  0  0  0  0  0  0  0  0
    4.8984   -4.5252   46.1302 C   0  0  0  0  0  0  0  0  0  0  0  0
    4.2122   -5.9932   46.2216 C   0  0  0  0  0  0  0  0  0  0  0  0
    3.0046   -6.0549   45.6421 C   0  0  0  0  0  0  0  0  0  0  0  0
    9.1783   -2.6075   47.0889 C   0  0  0  0  0  0  0  0  0  0  0  0
    8.4395   -3.7081   47.2453 C   0  0  0  0  0  0  0  0  0  0  0  0
   10.5052   -2.5021   47.7918 C   0  0  0  0  0  0  0  0  0  0  0  0
   10.7786   -1.5701   48.4898 O   0  0  0  0  0  0  0  0  0  0  0  0
   11.5398   -3.0997   47.1344 O   0  0  0  0  0  0  0  0  0  0  0  0
  1  2  2  0
  2  3  1  0
  3  4  2  0
  2  5  1  0
  3  6  1  0
  4  7  1  0
  4  8  1  0
  7  9  1  0
  1 10  1  0
  6 10  1  0
  6 11  2  0
  7 12  2  0
  5 13  2  0
  9 13  1  1
 12 14  1  0
  8 15  2  0
  8 16  1  0
 11 16  1  0
  9 17  1  0
 14 17  2  0
 11 18  1  0
 18 19  2  0
 18 20  1  0
 20 21  2  0
 19 22  1  0
 16 23  2  0
 22 23  1  0
 23 24  1  0
 15 25  1  0
 24 25  2  0
 21 26  1  0
 19 27  1  0
 26 27  2  0
 26 28  1  0
 28 29  1  0
 28 30  2  0
M  END
$$$$
O14757_Pocket2Mol_idx-in-all-generaetd-867
     RDKit          3D

 22 25  0  0  0  0  0  0  0  0999 V2000
    4.5156    0.0550   42.9895 N   0  0  0  0  0  0  0  0  0  0  0  0
    3.2960    0.1633   42.4470 C   0  0  0  0  0  0  0  0  0  0  0  0
    2.7621   -1.2305   42.4476 C   0  0  0  0  0  0  0  0  0  0  0  0
    5.2005   -0.8099   43.5858 C   0  0  0  0  0  0  0  0  0  0  0  0
    4.4157   -2.0357   43.6745 C   0  0  0  0  0  0  0  0  0  0  0  0
    3.3964   -2.2069   43.1195 C   0  0  0  0  0  0  0  0  0  0  0  0
    2.6107   -3.4636   43.1542 N   0  0  0  0  0  0  0  0  0  0  0  0
    1.4467   -1.2849   41.8335 C   0  0  0  0  0  0  0  0  0  0  0  0
    5.1851   -3.1348   44.4538 N   0  0  0  0  0  0  0  0  0  0  0  0
    6.4172   -0.8203   44.3346 N   0  0  0  0  0  0  0  0  0  0  0  0
    0.8321   -2.5451   41.8394 C   0  0  0  0  0  0  0  0  0  0  0  0
    6.3079   -2.8731   45.1171 C   0  0  0  0  0  0  0  0  0  0  0  0
    6.8863   -3.8787   45.9525 C   0  0  0  0  0  0  0  0  0  0  0  0
    1.4408   -3.5475   42.6011 C   0  0  0  0  0  0  0  0  0  0  0  0
    6.8919   -1.7510   45.0602 C   0  0  0  0  0  0  0  0  0  0  0  0
    8.1383   -1.7029   45.8456 C   0  0  0  0  0  0  0  0  0  0  0  0
    8.8942   -0.3556   45.7602 O   0  0  0  0  0  0  0  0  0  0  0  0
    8.5707   -2.6683   46.5680 C   0  0  0  0  0  0  0  0  0  0  0  0
    6.0278   -5.1474   46.0603 F   0  0  0  0  0  0  0  0  0  0  0  0
    7.9204   -3.7865   46.7739 C   0  0  0  0  0  0  0  0  0  0  0  0
    9.8313   -2.3710   47.3315 O   0  0  0  0  0  0  0  0  0  0  0  0
   10.9501   -2.4758   46.4843 C   0  0  0  0  0  0  0  0  0  0  0  0
  1  2  2  0
  2  3  1  0
  1  4  1  0
  4  5  2  0
  3  6  2  0
  5  6  1  0
  6  7  1  0
  3  8  1  0
  5  9  1  0
  4 10  1  0
  8 11  2  0
  9 12  2  0
 12 13  1  0
  7 14  2  0
 11 14  1  0
 10 15  2  0
 12 15  1  0
 15 16  1  0
 16 17  1  0
 16 18  2  0
 13 19  1  0
 13 20  2  0
 18 20  1  0
 18 21  1  0
 21 22  1  0
M  END
$$$$
O14757_Pocket2Mol_idx-in-all-generaetd-868
     RDKit          3D

 43 50  0  0  0  0  0  0  0  0999 V2000
    1.5482   -0.3111   41.9233 C   0  0  0  0  0  0  0  0  0  0  0  0
    2.7284    0.2018   42.1525 N   0  0  0  0  0  0  0  0  0  0  0  0
    3.7893   -0.3016   42.7005 C   0  0  0  0  0  0  0  0  0  0  0  0
    3.3781   -1.7350   43.0000 C   0  0  0  0  0  0  0  0  0  0  0  0
    2.0339   -1.9619   42.6217 C   0  0  0  0  0  0  0  0  0  0  0  0
    4.1166   -2.4997   43.8458 C   0  0  0  0  0  0  0  0  0  0  0  0
    1.1731   -3.0051   42.5773 C   0  0  0  0  0  0  0  0  0  0  0  0
    0.4701   -3.2344   41.4901 C   0  0  0  0  0  0  0  0  0  0  0  0
    5.3799   -1.7814   44.2691 C   0  0  0  0  0  0  0  0  0  0  0  0
    5.0159   -0.0180   43.1201 N   0  0  0  0  0  0  0  0  0  0  0  0
    5.7693   -0.6937   43.8418 C   0  0  0  0  0  0  0  0  0  0  0  0
    0.8078   -3.6166   43.6782 C   0  0  0  0  0  0  0  0  0  0  0  0
    0.0663   -4.7011   43.7415 N   0  0  0  0  0  0  0  0  0  0  0  0
    6.2223   -2.6843   45.1565 C   0  0  0  0  0  0  0  0  0  0  0  0
    6.9599   -0.2351   44.2608 N   0  0  0  0  0  0  0  0  0  0  0  0
    5.9065   -3.9037   45.7499 N   0  0  0  0  0  0  0  0  0  0  0  0
   -0.5459   -5.1185   42.5870 C   0  0  0  0  0  0  0  0  0  0  0  0
    5.7480   -4.0340   46.9810 C   0  0  0  0  0  0  0  0  0  0  0  0
    7.4448   -1.8511   45.4198 C   0  0  0  0  0  0  0  0  0  0  0  0
    7.7572   -0.7827   45.0128 C   0  0  0  0  0  0  0  0  0  0  0  0
    8.4076   -2.7217   46.4541 C   0  0  0  0  0  0  0  0  0  0  0  0
    9.3167   -2.0988   47.1049 N   0  0  0  0  0  0  0  0  0  0  0  0
   -0.4719   -4.3893   41.5406 C   0  0  0  0  0  0  0  0  0  0  0  0
    8.3667   -4.0284   46.5743 N   0  0  0  0  0  0  0  0  0  0  0  0
    9.5309   -4.3147   47.3094 C   0  0  0  0  0  0  0  0  0  0  0  0
    5.3113   -3.3789   47.8005 O   0  0  0  0  0  0  0  0  0  0  0  0
    9.9022   -5.6301   47.7684 C   0  0  0  0  0  0  0  0  0  0  0  0
    5.4470   -5.5868   47.2096 C   0  0  0  0  0  0  0  0  0  0  0  0
   11.2254   -5.8679   48.0402 C   0  0  0  0  0  0  0  0  0  0  0  0
    8.9736   -6.6532   47.8548 C   0  0  0  0  0  0  0  0  0  0  0  0
   10.0616   -3.0670   47.6360 C   0  0  0  0  0  0  0  0  0  0  0  0
    7.5566   -6.3564   47.5477 N   0  0  0  0  0  0  0  0  0  0  0  0
    6.4157   -6.1721   48.0913 C   0  0  0  0  0  0  0  0  0  0  0  0
   12.3275   -4.8510   47.9324 C   0  0  0  0  0  0  0  0  0  0  0  0
    9.3494   -7.8378   48.4266 C   0  0  0  0  0  0  0  0  0  0  0  0
   11.2226   -2.8389   48.5368 C   0  0  0  0  0  0  0  0  0  0  0  0
   12.0874   -3.8095   48.8377 N   0  0  0  0  0  0  0  0  0  0  0  0
   11.5658   -7.0862   48.3351 C   0  0  0  0  0  0  0  0  0  0  0  0
   11.1271   -1.6403   49.2140 O   0  0  0  0  0  0  0  0  0  0  0  0
    8.3510   -8.9063   48.5963 O   0  0  0  0  0  0  0  0  0  0  0  0
   13.0057   -7.4956   48.6661 C   0  0  0  0  0  0  0  0  0  0  0  0
    8.3425   -9.4481   49.8782 C   0  0  0  0  0  0  0  0  0  0  0  0
   10.6715   -8.1665   48.5999 C   0  0  0  0  0  0  0  0  0  0  0  0
  1  2  1  0
  2  3  2  0
  3  4  1  0
  1  5  2  0
  4  5  1  0
  4  6  2  0
  5  7  1  0
  7  8  2  0
  6  9  1  0
  3 10  1  0
  9 11  2  0
 10 11  1  0
  7 12  1  0
 12 13  2  0
  9 14  1  0
 11 15  1  0
 14 16  1  0
 13 17  1  0
 16 18  1  0
 14 19  2  0
 15 20  2  0
 19 20  1  0
 19 21  1  0
 21 22  2  0
  8 23  1  0
 17 23  2  0
 21 24  1  0
 24 25  1  0
 18 26  2  0
 25 27  1  0
 18 28  1  0
 27 29  2  0
 27 30  1  0
 22 31  1  0
 25 31  2  0
 30 32  1  0
 28 33  1  0
 32 33  1  0
 29 34  1  0
 30 35  2  0
 31 36  1  0
 34 37  1  0
 36 37  1  0
 29 38  1  0
 36 39  2  0
 35 40  1  0
 38 41  1  0
 40 42  1  0
 35 43  1  0
 38 43  2  0
M  END
$$$$
O14757_Pocket2Mol_idx-in-all-generaetd-869
     RDKit          3D

 28 31  0  0  0  0  0  0  0  0999 V2000
    0.3497   -2.5592   41.5321 C   0  0  0  0  0  0  0  0  0  0  0  0
    0.7059   -1.3065   41.4152 C   0  0  0  0  0  0  0  0  0  0  0  0
    2.0121   -0.9206   42.0074 C   0  0  0  0  0  0  0  0  0  0  0  0
    2.8273   -1.8583   42.7096 C   0  0  0  0  0  0  0  0  0  0  0  0
   -0.9158   -2.9896   41.0259 O   0  0  0  0  0  0  0  0  0  0  0  0
    2.1785   -3.2182   42.8202 C   0  0  0  0  0  0  0  0  0  0  0  0
    2.9957   -4.0364   43.6549 N   0  0  0  0  0  0  0  0  0  0  0  0
    1.0381   -3.5102   42.3147 C   0  0  0  0  0  0  0  0  0  0  0  0
    4.0501   -1.4436   43.3296 C   0  0  0  0  0  0  0  0  0  0  0  0
    4.2345   -3.7127   44.1966 C   0  0  0  0  0  0  0  0  0  0  0  0
    4.9099   -4.6363   45.0387 N   0  0  0  0  0  0  0  0  0  0  0  0
    4.7563   -2.4299   44.0678 C   0  0  0  0  0  0  0  0  0  0  0  0
    6.0306   -2.0532   44.6670 C   0  0  0  0  0  0  0  0  0  0  0  0
    4.6111   -0.1656   43.0716 N   0  0  0  0  0  0  0  0  0  0  0  0
    6.7834   -2.7598   45.5925 N   0  0  0  0  0  0  0  0  0  0  0  0
    8.0062   -2.3962   46.0654 C   0  0  1  0  0  0  0  0  0  0  0  0
    8.3845   -1.1262   46.4117 C   0  0  0  0  0  0  0  0  0  0  0  0
    6.3026   -0.6817   44.5619 N   0  0  0  0  0  0  0  0  0  0  0  0
    5.6684    0.0898   43.6845 C   0  0  0  0  0  0  0  0  0  0  0  0
    8.3525   -3.2296   47.1905 C   0  0  0  0  0  0  0  0  0  0  0  0
    9.8112   -0.8718   46.4448 C   0  0  0  0  0  0  0  0  0  0  0  0
   -2.1452   -2.6079   41.5170 C   0  0  0  0  0  0  0  0  0  0  0  0
   10.3633   -1.7219   47.5388 C   0  0  0  0  0  0  0  0  0  0  0  0
    9.8848   -3.1495   47.3831 N   0  0  0  0  0  0  0  0  0  0  0  0
   10.4024   -4.0542   48.4027 C   0  0  0  0  0  0  0  0  0  0  0  0
   11.1704   -5.0607   47.7169 C   0  0  0  0  0  0  0  0  0  0  0  0
   10.7569   -5.4437   46.4456 C   0  0  0  0  0  0  0  0  0  0  0  0
   11.6155   -5.0766   45.3930 O   0  0  0  0  0  0  0  0  0  0  0  0
  1  2  2  0
  2  3  1  0
  3  4  2  0
  1  5  1  0
  4  6  1  0
  6  7  1  0
  1  8  1  0
  6  8  2  0
  4  9  1  0
  7 10  2  0
 10 11  1  0
  9 12  2  0
 10 12  1  0
 12 13  1  0
  9 14  1  0
 13 15  1  0
 16 15  1  1
 16 17  1  0
 13 18  2  0
 14 19  2  0
 18 19  1  0
 16 20  1  0
 17 21  1  0
  5 22  1  0
 21 23  1  0
 20 24  1  0
 23 24  1  0
 24 25  1  0
 25 26  1  0
 26 27  1  0
 27 28  1  0
M  END
$$$$
O14757_Pocket2Mol_idx-in-all-generaetd-870
     RDKit          3D

 33 38  0  0  0  0  0  0  0  0999 V2000
    4.5156    0.0550   42.9895 N   0  0  0  0  0  0  0  0  0  0  0  0
    5.0618   -0.8645   43.5295 C   0  0  0  0  0  0  0  0  0  0  0  0
    4.4350   -2.0604   43.7783 C   0  0  0  0  0  0  0  0  0  0  0  0
    4.9987   -3.0994   44.5839 C   0  0  0  0  0  0  0  0  0  0  0  0
    3.2714   -1.8664   43.0632 C   0  0  0  0  0  0  0  0  0  0  0  0
    6.4064   -0.5942   44.3204 N   0  0  0  0  0  0  0  0  0  0  0  0
    4.3422   -4.3256   44.7203 C   0  0  0  0  0  0  0  0  0  0  0  0
    2.1845   -2.6668   42.8270 N   0  0  0  0  0  0  0  0  0  0  0  0
    3.3305   -0.5395   42.5465 N   0  0  0  0  0  0  0  0  0  0  0  0
    1.9502   -3.8972   43.4076 C   0  0  0  0  0  0  0  0  0  0  0  0
    2.7156   -4.1184   44.6954 N   0  0  0  0  0  0  0  0  0  0  0  0
    6.8581   -1.5862   45.1101 C   0  0  0  0  0  0  0  0  0  0  0  0
    6.1801   -2.8430   45.2383 C   0  0  0  0  0  0  0  0  0  0  0  0
    2.1454   -5.1901   45.5771 C   0  0  0  0  0  0  0  0  0  0  0  0
    8.0137   -1.3946   45.8526 C   0  0  0  0  0  0  0  0  0  0  0  0
    0.9733   -4.5725   43.2066 O   0  0  0  0  0  0  0  0  0  0  0  0
    2.2437    0.0035   41.8733 C   0  0  0  0  0  0  0  0  0  0  0  0
    1.3210   -2.2077   41.7009 C   0  0  0  0  0  0  0  0  0  0  0  0
    8.6047   -2.2876   46.6923 C   0  0  0  0  0  0  0  0  0  0  0  0
    7.9141   -3.5157   46.8869 C   0  0  0  0  0  0  0  0  0  0  0  0
    1.0501   -0.8658   41.6612 C   0  0  0  0  0  0  0  0  0  0  0  0
    6.7278   -3.7718   46.2525 C   0  0  0  0  0  0  0  0  0  0  0  0
    9.8280   -2.0492   47.3361 C   0  0  0  0  0  0  0  0  0  0  0  0
    9.8262   -1.5735   48.5432 C   0  0  0  0  0  0  0  0  0  0  0  0
   11.0745   -2.0905   46.6735 C   0  0  0  0  0  0  0  0  0  0  0  0
    8.5798   -1.4294   49.3788 F   0  0  0  0  0  0  0  0  0  0  0  0
   12.2255   -1.7445   47.2852 C   0  0  0  0  0  0  0  0  0  0  0  0
   11.0129   -1.2913   49.2988 C   0  0  0  0  0  0  0  0  0  0  0  0
   10.9974   -0.9794   50.7055 O   0  0  0  0  0  0  0  0  0  0  0  0
   13.5064   -1.9432   46.5430 O   0  0  0  0  0  0  0  0  0  0  0  0
   12.2357   -1.4230   48.6408 C   0  0  0  0  0  0  0  0  0  0  0  0
   11.8309   -0.3304   51.3643 C   0  0  0  0  0  0  0  0  0  0  0  0
   13.6341   -1.2738   45.3855 C   0  0  0  0  0  0  0  0  0  0  0  0
  1  2  2  0
  2  3  1  0
  3  4  1  0
  3  5  2  0
  2  6  1  0
  4  7  1  0
  5  8  1  0
  1  9  1  0
  5  9  1  0
  8 10  1  0
  7 11  1  0
 10 11  1  0
  6 12  2  0
  4 13  2  0
 12 13  1  0
 11 14  1  0
 12 15  1  0
 10 16  2  0
  9 17  1  0
  8 18  1  0
 15 19  2  0
 19 20  1  0
 17 21  1  0
 18 21  1  0
 13 22  1  0
 20 22  2  0
 19 23  1  0
 23 24  2  0
 23 25  1  0
 24 26  1  0
 25 27  2  0
 24 28  1  0
 28 29  1  0
 27 30  1  0
 27 31  1  0
 28 31  2  0
 29 32  1  0
 30 33  1  0
M  END
$$$$
O14757_Pocket2Mol_idx-in-all-generaetd-871
     RDKit          3D

 39 45  0  0  0  0  0  0  0  0999 V2000
    5.1775    0.2381   42.7925 N   0  0  0  0  0  0  0  0  0  0  0  0
    3.8485    0.3515   42.4285 N   0  0  0  0  0  0  0  0  0  0  0  0
    5.5201   -0.8216   43.5188 C   0  0  0  0  0  0  0  0  0  0  0  0
    4.5575   -1.7838   43.9113 C   0  0  0  0  0  0  0  0  0  0  0  0
    2.9777   -0.5504   42.6073 C   0  0  0  0  0  0  0  0  0  0  0  0
    4.8521   -2.9209   44.7316 C   0  0  0  0  0  0  0  0  0  0  0  0
    3.2351   -1.5675   43.1903 C   0  0  0  0  0  0  0  0  0  0  0  0
    1.6955   -0.2711   41.8967 C   0  0  0  0  0  0  0  0  0  0  0  0
    0.8864   -1.3663   42.0618 C   0  0  0  0  0  0  0  0  0  0  0  0
    2.3187   -2.7500   43.4543 C   0  0  0  0  0  0  0  0  0  0  0  0
    1.1071   -2.5907   42.7445 C   0  0  0  0  0  0  0  0  0  0  0  0
    6.0979   -2.8249   45.5633 C   0  0  0  0  0  0  0  0  0  0  0  0
    0.0423   -3.6939   42.8205 C   0  0  0  0  0  0  0  0  0  0  0  0
    4.2011   -4.0423   44.9363 C   0  0  0  0  0  0  0  0  0  0  0  0
    4.5424   -5.0339   45.7893 C   0  0  0  0  0  0  0  0  0  0  0  0
   -0.0110   -4.4040   41.6463 N   0  0  0  0  0  0  0  0  0  0  0  0
    2.8431   -3.9954   44.0809 C   0  0  0  0  0  0  0  0  0  0  0  0
    7.0703   -1.6758   45.5388 C   0  0  0  0  0  0  0  0  0  0  0  0
    6.5324   -3.6602   46.4424 C   0  0  0  0  0  0  0  0  0  0  0  0
    5.6842   -4.8828   46.5405 C   0  0  0  0  0  0  0  0  0  0  0  0
    6.7957   -0.7421   44.3455 N   0  0  0  0  0  0  0  0  0  0  0  0
   -0.5371   -3.9067   43.6730 O   0  0  0  0  0  0  0  0  0  0  0  0
    8.1253   -1.3380   46.2529 C   0  0  0  0  0  0  0  0  0  0  0  0
    8.4826   -2.3424   47.1646 C   0  0  0  0  0  0  0  0  0  0  0  0
    7.6160   -3.5262   47.3486 C   0  0  0  0  0  0  0  0  0  0  0  0
    9.6963   -2.1931   47.9970 C   0  0  0  0  0  0  0  0  0  0  0  0
    9.5527   -1.4028   48.9318 O   0  0  0  0  0  0  0  0  0  0  0  0
   10.7595   -2.8202   47.7301 O   0  0  0  0  0  0  0  0  0  0  0  0
   11.5009   -2.2828   46.6278 C   0  0  0  0  0  0  0  0  0  0  0  0
   12.6280   -1.6044   46.9222 C   0  0  0  0  0  0  0  0  0  0  0  0
   11.2344   -2.7160   45.2873 C   0  0  0  0  0  0  0  0  0  0  0  0
   11.9824   -2.2802   44.2730 C   0  0  0  0  0  0  0  0  0  0  0  0
   12.9544   -1.2252   48.3084 C   0  0  0  0  0  0  0  0  0  0  0  0
   12.6947   -0.0468   48.6551 O   0  0  0  0  0  0  0  0  0  0  0  0
   13.4095   -1.0886   45.8761 C   0  0  0  0  0  0  0  0  0  0  0  0
   11.6825   -2.4958   43.0304 O   0  0  0  0  0  0  0  0  0  0  0  0
   14.5350   -0.3157   46.1669 O   0  0  0  0  0  0  0  0  0  0  0  0
   13.4022   -2.0410   49.0907 O   0  0  0  0  0  0  0  0  0  0  0  0
   13.1104   -1.4162   44.5652 C   0  0  0  0  0  0  0  0  0  0  0  0
  1  2  2  0
  1  3  1  0
  3  4  2  0
  2  5  1  0
  4  6  1  0
  4  7  1  0
  5  7  2  0
  5  8  1  0
  8  9  2  0
  7 10  1  0
  9 11  1  0
 10 11  2  0
  6 12  2  0
 11 13  1  0
  6 14  1  0
 14 15  2  0
 13 16  1  0
 10 17  1  0
 14 17  1  0
 12 18  1  0
 12 19  1  0
 15 20  1  0
 19 20  2  0
  3 21  1  0
 18 21  2  0
 13 22  2  0
 18 23  1  0
 23 24  2  0
 19 25  1  0
 24 25  1  0
 24 26  1  0
 26 27  2  0
 26 28  1  0
 28 29  1  0
 29 30  2  0
 29 31  1  0
 31 32  2  0
 30 33  1  0
 33 34  2  0
 30 35  1  0
 32 36  1  0
 35 37  1  0
 33 38  1  0
 32 39  1  0
 35 39  2  0
M  END
$$$$
O14757_Pocket2Mol_idx-in-all-generaetd-872
     RDKit          3D

 33 38  0  0  0  0  0  0  0  0999 V2000
    1.5482   -0.3111   41.9233 C   0  0  0  0  0  0  0  0  0  0  0  0
    2.7284    0.2018   42.1525 N   0  0  0  0  0  0  0  0  0  0  0  0
    3.7893   -0.3016   42.7005 C   0  0  0  0  0  0  0  0  0  0  0  0
    3.3781   -1.7350   43.0000 C   0  0  0  0  0  0  0  0  0  0  0  0
    2.0339   -1.9619   42.6217 C   0  0  0  0  0  0  0  0  0  0  0  0
    4.1166   -2.4997   43.8458 C   0  0  0  0  0  0  0  0  0  0  0  0
    1.1731   -3.0051   42.5773 C   0  0  0  0  0  0  0  0  0  0  0  0
    0.4701   -3.2344   41.4901 C   0  0  0  0  0  0  0  0  0  0  0  0
    5.3799   -1.7814   44.2691 C   0  0  0  0  0  0  0  0  0  0  0  0
    5.0159   -0.0180   43.1201 N   0  0  0  0  0  0  0  0  0  0  0  0
    5.7693   -0.6937   43.8418 C   0  0  0  0  0  0  0  0  0  0  0  0
    0.8078   -3.6166   43.6782 C   0  0  0  0  0  0  0  0  0  0  0  0
    0.0663   -4.7011   43.7415 N   0  0  0  0  0  0  0  0  0  0  0  0
    6.2223   -2.6843   45.1565 C   0  0  0  0  0  0  0  0  0  0  0  0
    6.9599   -0.2351   44.2608 N   0  0  0  0  0  0  0  0  0  0  0  0
    5.9065   -3.9037   45.7499 N   0  0  0  0  0  0  0  0  0  0  0  0
   -0.5459   -5.1185   42.5870 C   0  0  0  0  0  0  0  0  0  0  0  0
    5.7480   -4.0340   46.9810 C   0  0  0  0  0  0  0  0  0  0  0  0
    7.4448   -1.8511   45.4198 C   0  0  0  0  0  0  0  0  0  0  0  0
    7.7572   -0.7827   45.0128 C   0  0  0  0  0  0  0  0  0  0  0  0
    8.4076   -2.7217   46.4541 C   0  0  0  0  0  0  0  0  0  0  0  0
    9.3167   -2.0988   47.1049 N   0  0  0  0  0  0  0  0  0  0  0  0
   -0.4719   -4.3893   41.5406 C   0  0  0  0  0  0  0  0  0  0  0  0
    8.3667   -4.0284   46.5743 N   0  0  0  0  0  0  0  0  0  0  0  0
    9.5309   -4.3147   47.3094 C   0  0  0  0  0  0  0  0  0  0  0  0
    5.3113   -3.3789   47.8005 O   0  0  0  0  0  0  0  0  0  0  0  0
    9.9022   -5.6301   47.7684 C   0  0  0  0  0  0  0  0  0  0  0  0
    5.4470   -5.5868   47.2096 C   0  0  0  0  0  0  0  0  0  0  0  0
   11.2254   -5.8679   48.0402 C   0  0  0  0  0  0  0  0  0  0  0  0
    9.5585   -6.7544   46.7817 C   0  0  0  0  0  0  0  0  0  0  0  0
   10.0274   -3.0845   47.6426 C   0  0  0  0  0  0  0  0  0  0  0  0
   10.6696   -7.3890   46.6469 C   0  0  0  0  0  0  0  0  0  0  0  0
   11.8045   -7.0961   47.3649 C   0  0  0  0  0  0  0  0  0  0  0  0
  1  2  1  0
  2  3  2  0
  3  4  1  0
  1  5  2  0
  4  5  1  0
  4  6  2  0
  5  7  1  0
  7  8  2  0
  6  9  1  0
  3 10  1  0
  9 11  2  0
 10 11  1  0
  7 12  1  0
 12 13  2  0
  9 14  1  0
 11 15  1  0
 14 16  1  0
 13 17  1  0
 16 18  1  0
 14 19  2  0
 15 20  2  0
 19 20  1  0
 19 21  1  0
 21 22  2  0
  8 23  1  0
 17 23  2  0
 21 24  1  0
 24 25  1  0
 18 26  2  0
 25 27  1  0
 18 28  1  0
 27 29  1  0
 27 30  1  0
 22 31  1  0
 25 31  2  0
 30 32  2  0
 29 33  2  0
 32 33  1  0
M  END
$$$$
O14757_Pocket2Mol_idx-in-all-generaetd-873
     RDKit          3D

 25 29  0  0  0  0  0  0  0  0999 V2000
    5.3420    0.2589   42.8836 N   0  0  0  0  0  0  0  0  0  0  0  0
    5.6740   -0.8311   43.5645 C   0  0  0  0  0  0  0  0  0  0  0  0
    4.6589   -1.7043   43.6799 C   0  0  0  0  0  0  0  0  0  0  0  0
    3.6286   -1.0900   42.8577 C   0  0  0  0  0  0  0  0  0  0  0  0
    4.0610    0.1743   42.5227 N   0  0  0  0  0  0  0  0  0  0  0  0
    2.2711   -1.4200   42.4728 C   0  0  0  0  0  0  0  0  0  0  0  0
    4.3843   -2.8218   44.3745 C   0  0  0  0  0  0  0  0  0  0  0  0
    1.4505   -0.5265   41.9137 C   0  0  0  0  0  0  0  0  0  0  0  0
    1.9236   -2.8327   42.4366 C   0  0  0  0  0  0  0  0  0  0  0  0
    0.5317   -2.7729   41.9287 C   0  0  0  0  0  0  0  0  0  0  0  0
    6.8587   -1.2119   44.3293 C   0  0  0  0  0  0  0  0  0  0  0  0
    0.2175   -1.3031   41.4860 C   0  0  0  0  0  0  0  0  0  0  0  0
   -0.3459   -3.9057   41.6978 C   0  0  0  0  0  0  0  0  0  0  0  0
    7.8877   -0.5486   44.6088 N   0  0  0  0  0  0  0  0  0  0  0  0
    6.7301   -2.3898   45.2144 C   0  0  0  0  0  0  0  0  0  0  0  0
    5.5335   -3.2051   45.1511 C   0  0  0  0  0  0  0  0  0  0  0  0
    7.9111   -2.4568   45.9191 C   0  0  0  0  0  0  0  0  0  0  0  0
    8.6956   -1.2139   45.6145 C   0  0  0  0  0  0  0  0  0  0  0  0
    8.4387   -3.4065   46.9399 C   0  0  0  0  0  0  0  0  0  0  0  0
    9.6434   -3.2081   47.4488 C   0  0  0  0  0  0  0  0  0  0  0  0
   10.1454   -4.1698   48.4457 C   0  0  0  0  0  0  0  0  0  0  0  0
    9.9571   -1.0853   46.2999 C   0  0  0  0  0  0  0  0  0  0  0  0
   10.3696   -2.0115   47.1904 C   0  0  0  0  0  0  0  0  0  0  0  0
   10.1204   -3.9536   49.5816 O   0  0  0  0  0  0  0  0  0  0  0  0
   10.6274   -5.2774   47.9599 O   0  0  0  0  0  0  0  0  0  0  0  0
  1  2  2  0
  2  3  1  0
  3  4  2  0
  1  5  1  0
  4  5  1  0
  4  6  1  0
  3  7  1  0
  6  8  2  0
  6  9  1  0
  9 10  2  0
  2 11  1  0
  8 12  1  0
 10 12  1  0
 10 13  1  0
 11 14  1  0
 11 15  2  0
  7 16  2  0
 15 16  1  0
 15 17  1  0
 14 18  1  0
 17 18  2  0
 17 19  1  0
 19 20  2  0
 20 21  1  0
 18 22  1  0
 20 23  1  0
 22 23  2  0
 21 24  1  0
 21 25  2  0
M  END
$$$$
O14757_Pocket2Mol_idx-in-all-generaetd-874
     RDKit          3D

 38 45  0  0  0  0  0  0  0  0999 V2000
    1.5482   -0.3111   41.9233 C   0  0  0  0  0  0  0  0  0  0  0  0
    2.7284    0.2018   42.1525 N   0  0  0  0  0  0  0  0  0  0  0  0
    3.7893   -0.3016   42.7005 C   0  0  0  0  0  0  0  0  0  0  0  0
    3.3781   -1.7350   43.0000 C   0  0  0  0  0  0  0  0  0  0  0  0
    2.0339   -1.9619   42.6217 C   0  0  0  0  0  0  0  0  0  0  0  0
    5.0090    0.1219   42.9340 N   0  0  0  0  0  0  0  0  0  0  0  0
    4.2895   -2.4979   43.6707 C   0  0  0  0  0  0  0  0  0  0  0  0
    5.8391   -0.6675   43.6343 C   0  0  0  0  0  0  0  0  0  0  0  0
    6.9849   -0.2377   44.0028 N   0  0  0  0  0  0  0  0  0  0  0  0
    4.0426   -3.8794   44.0832 C   0  0  0  0  0  0  0  0  0  0  0  0
    7.6796   -0.8734   44.9326 C   0  0  0  0  0  0  0  0  0  0  0  0
    1.1064   -2.9576   42.4211 C   0  0  0  0  0  0  0  0  0  0  0  0
    5.5298   -1.9496   44.0315 C   0  0  0  0  0  0  0  0  0  0  0  0
    3.8954   -4.1817   45.4718 C   0  0  0  0  0  0  0  0  0  0  0  0
    0.6765   -3.5480   43.4006 C   0  0  1  0  0  0  0  0  0  0  0  0
    0.5804   -3.2191   41.1635 C   0  0  0  0  0  0  0  0  0  0  0  0
    2.8083   -4.8227   45.9203 N   0  0  0  0  0  0  0  0  0  0  0  0
   -0.1574   -4.5754   42.9329 N   0  0  0  0  0  0  0  0  0  0  0  0
    6.5271   -2.5531   44.9677 C   0  0  0  0  0  0  0  0  0  0  0  0
   -0.2272   -4.3703   41.5137 C   0  0  0  0  0  0  0  0  0  0  0  0
    7.5095   -2.0029   45.3993 C   0  0  0  0  0  0  0  0  0  0  0  0
    8.2550   -2.6982   46.3988 C   0  0  0  0  0  0  0  0  0  0  0  0
    8.8975   -0.3029   45.3267 O   0  0  0  0  0  0  0  0  0  0  0  0
    4.8299   -4.4637   46.4212 C   0  0  0  0  0  0  0  0  0  0  0  0
    4.2707   -4.9248   47.6295 N   0  0  0  0  0  0  0  0  0  0  0  0
    3.2045   -5.2092   47.1521 C   0  0  0  0  0  0  0  0  0  0  0  0
    1.4482   -4.6186   45.4134 C   0  0  2  0  0  0  0  0  0  0  0  0
    1.2398   -3.5043   44.6236 O   0  0  0  0  0  0  0  0  0  0  0  0
    7.8521   -3.9584   46.8773 C   0  0  0  0  0  0  0  0  0  0  0  0
    8.4079   -4.7553   47.7407 C   0  0  0  0  0  0  0  0  0  0  0  0
    5.9516   -3.8110   45.9146 C   0  0  0  0  0  0  0  0  0  0  0  0
    6.6436   -4.3892   46.6649 C   0  0  0  0  0  0  0  0  0  0  0  0
    9.5111   -5.5246   47.2994 O   0  0  0  0  0  0  0  0  0  0  0  0
   10.6238   -5.0197   46.8534 C   0  0  1  0  0  0  0  0  0  0  0  0
   11.5866   -4.7361   47.6189 O   0  0  0  0  0  0  0  0  0  0  0  0
   11.2719   -6.0196   45.8653 C   0  0  0  0  0  0  0  0  0  0  0  0
   12.1052   -3.5209   47.8099 C   0  0  0  0  0  0  0  0  0  0  0  0
    0.5587   -4.7689   46.5884 C   0  0  0  0  0  0  0  0  0  0  0  0
  1  2  1  0
  2  3  2  0
  3  4  1  0
  1  5  2  0
  4  5  1  0
  3  6  1  0
  4  7  2  0
  6  8  1  0
  8  9  1  0
  7 10  1  0
  9 11  1  0
  5 12  1  0
  7 13  1  0
  8 13  2  0
 10 14  1  0
 12 15  1  0
 12 16  2  0
 14 17  1  0
 15 18  1  0
 13 19  1  0
 16 20  1  0
 18 20  2  0
 11 21  1  0
 19 21  2  0
 21 22  1  0
 11 23  2  0
 14 24  2  0
 24 25  1  0
 17 26  1  0
 25 26  2  0
 17 27  1  0
 15 28  1  6
 27 28  1  0
 22 29  2  0
 29 30  1  0
 19 31  1  0
 24 31  1  0
 29 32  1  0
 31 32  2  0
 30 33  1  0
 33 34  1  0
 34 35  1  0
 34 36  1  6
 35 37  1  0
 27 38  1  1
M  END
$$$$
O14757_Pocket2Mol_idx-in-all-generaetd-875
     RDKit          3D

 38 44  0  0  0  0  0  0  0  0999 V2000
    5.1775    0.2381   42.7925 N   0  0  0  0  0  0  0  0  0  0  0  0
    3.8485    0.3515   42.4285 N   0  0  0  0  0  0  0  0  0  0  0  0
    5.5201   -0.8216   43.5188 C   0  0  0  0  0  0  0  0  0  0  0  0
    4.5575   -1.7838   43.9113 C   0  0  0  0  0  0  0  0  0  0  0  0
    2.9777   -0.5504   42.6073 C   0  0  0  0  0  0  0  0  0  0  0  0
    4.8521   -2.9209   44.7316 C   0  0  0  0  0  0  0  0  0  0  0  0
    3.2351   -1.5675   43.1903 C   0  0  0  0  0  0  0  0  0  0  0  0
    1.6955   -0.2711   41.8967 C   0  0  0  0  0  0  0  0  0  0  0  0
    0.8864   -1.3663   42.0618 C   0  0  0  0  0  0  0  0  0  0  0  0
    2.3187   -2.7500   43.4543 C   0  0  0  0  0  0  0  0  0  0  0  0
    1.1071   -2.5907   42.7445 C   0  0  0  0  0  0  0  0  0  0  0  0
    6.0979   -2.8249   45.5633 C   0  0  0  0  0  0  0  0  0  0  0  0
    0.0423   -3.6939   42.8205 C   0  0  0  0  0  0  0  0  0  0  0  0
    4.2011   -4.0423   44.9363 C   0  0  0  0  0  0  0  0  0  0  0  0
    4.5424   -5.0339   45.7893 C   0  0  0  0  0  0  0  0  0  0  0  0
   -0.0110   -4.4040   41.6463 N   0  0  0  0  0  0  0  0  0  0  0  0
    2.8431   -3.9954   44.0809 C   0  0  0  0  0  0  0  0  0  0  0  0
    7.0703   -1.6758   45.5388 C   0  0  0  0  0  0  0  0  0  0  0  0
    6.5324   -3.6602   46.4424 C   0  0  0  0  0  0  0  0  0  0  0  0
    5.6842   -4.8828   46.5405 C   0  0  0  0  0  0  0  0  0  0  0  0
    6.7957   -0.7421   44.3455 N   0  0  0  0  0  0  0  0  0  0  0  0
   -0.5371   -3.9067   43.6730 O   0  0  0  0  0  0  0  0  0  0  0  0
    8.1253   -1.3380   46.2529 C   0  0  0  0  0  0  0  0  0  0  0  0
    8.4826   -2.3424   47.1646 C   0  0  0  0  0  0  0  0  0  0  0  0
    7.6160   -3.5262   47.3486 C   0  0  0  0  0  0  0  0  0  0  0  0
    9.6963   -2.1931   47.9970 C   0  0  0  0  0  0  0  0  0  0  0  0
    9.5527   -1.4028   48.9318 O   0  0  0  0  0  0  0  0  0  0  0  0
   10.7595   -2.8202   47.7301 O   0  0  0  0  0  0  0  0  0  0  0  0
   11.5009   -2.2828   46.6278 C   0  0  0  0  0  0  0  0  0  0  0  0
   12.6280   -1.6044   46.9222 C   0  0  0  0  0  0  0  0  0  0  0  0
   11.2344   -2.7160   45.2873 C   0  0  0  0  0  0  0  0  0  0  0  0
   11.9824   -2.2802   44.2730 C   0  0  0  0  0  0  0  0  0  0  0  0
   12.9544   -1.2252   48.3084 C   0  0  0  0  0  0  0  0  0  0  0  0
   12.6947   -0.0468   48.6551 O   0  0  0  0  0  0  0  0  0  0  0  0
   13.8013   -1.9182   48.9121 O   0  0  0  0  0  0  0  0  0  0  0  0
   13.1152   -1.4568   44.5323 C   0  0  0  0  0  0  0  0  0  0  0  0
   13.9568   -1.0162   43.4673 F   0  0  0  0  0  0  0  0  0  0  0  0
   13.4807   -1.1190   45.8552 C   0  0  0  0  0  0  0  0  0  0  0  0
  1  2  2  0
  1  3  1  0
  3  4  2  0
  2  5  1  0
  4  6  1  0
  4  7  1  0
  5  7  2  0
  5  8  1  0
  8  9  2  0
  7 10  1  0
  9 11  1  0
 10 11  2  0
  6 12  2  0
 11 13  1  0
  6 14  1  0
 14 15  2  0
 13 16  1  0
 10 17  1  0
 14 17  1  0
 12 18  1  0
 12 19  1  0
 15 20  1  0
 19 20  2  0
  3 21  1  0
 18 21  2  0
 13 22  2  0
 18 23  1  0
 23 24  2  0
 19 25  1  0
 24 25  1  0
 24 26  1  0
 26 27  2  0
 26 28  1  0
 28 29  1  0
 29 30  2  0
 29 31  1  0
 31 32  2  0
 30 33  1  0
 33 34  2  0
 33 35  1  0
 32 36  1  0
 36 37  1  0
 30 38  1  0
 36 38  2  0
M  END
$$$$
O14757_Pocket2Mol_idx-in-all-generaetd-876
     RDKit          3D

 33 38  0  0  0  0  0  0  0  0999 V2000
    4.5156    0.0550   42.9895 N   0  0  0  0  0  0  0  0  0  0  0  0
    5.0618   -0.8645   43.5295 C   0  0  0  0  0  0  0  0  0  0  0  0
    4.4350   -2.0604   43.7783 C   0  0  0  0  0  0  0  0  0  0  0  0
    4.9987   -3.0994   44.5839 C   0  0  0  0  0  0  0  0  0  0  0  0
    3.2714   -1.8664   43.0632 C   0  0  0  0  0  0  0  0  0  0  0  0
    6.4064   -0.5942   44.3204 N   0  0  0  0  0  0  0  0  0  0  0  0
    4.3422   -4.3256   44.7203 C   0  0  0  0  0  0  0  0  0  0  0  0
    2.1845   -2.6668   42.8270 N   0  0  0  0  0  0  0  0  0  0  0  0
    6.7872   -1.6740   45.1626 C   0  0  0  0  0  0  0  0  0  0  0  0
    3.3364   -0.5682   42.5216 C   0  0  0  0  0  0  0  0  0  0  0  0
    6.0794   -2.8367   45.2418 C   0  0  0  0  0  0  0  0  0  0  0  0
    2.2080   -0.0040   41.8105 N   0  0  0  0  0  0  0  0  0  0  0  0
    3.5122   -4.5717   45.8882 C   0  0  0  0  0  0  0  0  0  0  0  0
    8.0343   -1.3439   45.8176 C   0  0  0  0  0  0  0  0  0  0  0  0
    8.5676   -2.2678   46.6666 C   0  0  0  0  0  0  0  0  0  0  0  0
    1.2034   -0.9715   41.7505 C   0  0  0  0  0  0  0  0  0  0  0  0
    9.7543   -2.0263   47.4257 C   0  0  1  0  0  0  0  0  0  0  0  0
   10.9435   -2.3462   46.8726 C   0  0  2  0  0  0  0  0  0  0  0  0
    2.0759   -4.8825   45.5393 N   0  0  0  0  0  0  0  0  0  0  0  0
    1.2148   -2.2334   42.1576 C   0  0  0  0  0  0  0  0  0  0  0  0
    9.6982   -0.8148   48.0427 O   0  0  0  0  0  0  0  0  0  0  0  0
   11.0881   -3.3882   46.0717 O   0  0  0  0  0  0  0  0  0  0  0  0
    7.6623   -3.4449   46.9706 C   0  0  0  0  0  0  0  0  0  0  0  0
    6.5323   -3.6370   46.2770 C   0  0  0  0  0  0  0  0  0  0  0  0
    0.0607   -3.1280   41.9172 C   0  0  0  0  0  0  0  0  0  0  0  0
   12.3311   -3.5802   45.4279 C   0  0  0  0  0  0  0  0  0  0  0  0
    1.0515   -4.2336   46.1408 C   0  0  0  0  0  0  0  0  0  0  0  0
   12.0884   -2.0950   47.7381 C   0  0  0  0  0  0  0  0  0  0  0  0
    1.7632   -5.4542   44.3347 C   0  0  0  0  0  0  0  0  0  0  0  0
   12.0921   -0.9717   48.4948 O   0  0  0  0  0  0  0  0  0  0  0  0
    0.3347   -5.7545   44.2542 C   0  0  0  0  0  0  0  0  0  0  0  0
   -0.1621   -5.1892   45.6475 C   0  0  0  0  0  0  0  0  0  0  0  0
   10.7492   -0.7375   49.0493 C   0  0  0  0  0  0  0  0  0  0  0  0
  1  2  2  0
  2  3  1  0
  3  4  1  0
  3  5  2  0
  2  6  1  0
  4  7  1  0
  5  8  1  0
  6  9  2  0
  1 10  1  0
  5 10  1  0
  4 11  2  0
  9 11  1  0
 10 12  2  0
  7 13  1  0
  9 14  1  0
 14 15  2  0
 12 16  1  0
 17 15  1  6
 17 18  1  0
 13 19  1  0
  8 20  2  0
 16 20  1  0
 17 21  1  0
 18 22  1  1
 15 23  1  0
 11 24  1  0
 23 24  2  0
 20 25  1  0
 22 26  1  0
 19 27  1  0
 18 28  1  0
 19 29  1  0
 28 30  1  0
 29 31  1  0
 27 32  1  0
 31 32  1  0
 21 33  1  0
 30 33  1  0
M  END
$$$$
O14757_Pocket2Mol_idx-in-all-generaetd-877
     RDKit          3D

 39 45  0  0  0  0  0  0  0  0999 V2000
    1.5482   -0.3111   41.9233 C   0  0  0  0  0  0  0  0  0  0  0  0
    2.7284    0.2018   42.1525 N   0  0  0  0  0  0  0  0  0  0  0  0
    3.7893   -0.3016   42.7005 C   0  0  0  0  0  0  0  0  0  0  0  0
    3.3781   -1.7350   43.0000 C   0  0  0  0  0  0  0  0  0  0  0  0
    2.0339   -1.9619   42.6217 C   0  0  0  0  0  0  0  0  0  0  0  0
    4.1166   -2.4997   43.8458 C   0  0  0  0  0  0  0  0  0  0  0  0
    1.1731   -3.0051   42.5773 C   0  0  0  0  0  0  0  0  0  0  0  0
    0.4701   -3.2344   41.4901 C   0  0  0  0  0  0  0  0  0  0  0  0
    5.3799   -1.7814   44.2691 C   0  0  0  0  0  0  0  0  0  0  0  0
    5.0159   -0.0180   43.1201 N   0  0  0  0  0  0  0  0  0  0  0  0
    5.7693   -0.6937   43.8418 C   0  0  0  0  0  0  0  0  0  0  0  0
    0.8078   -3.6166   43.6782 C   0  0  0  0  0  0  0  0  0  0  0  0
    0.0663   -4.7011   43.7415 N   0  0  0  0  0  0  0  0  0  0  0  0
    6.2223   -2.6843   45.1565 C   0  0  0  0  0  0  0  0  0  0  0  0
    6.9599   -0.2351   44.2608 N   0  0  0  0  0  0  0  0  0  0  0  0
    5.9065   -3.9037   45.7499 N   0  0  0  0  0  0  0  0  0  0  0  0
   -0.5459   -5.1185   42.5870 C   0  0  0  0  0  0  0  0  0  0  0  0
    5.7480   -4.0340   46.9810 C   0  0  0  0  0  0  0  0  0  0  0  0
    7.4448   -1.8511   45.4198 C   0  0  0  0  0  0  0  0  0  0  0  0
    7.7572   -0.7827   45.0128 C   0  0  0  0  0  0  0  0  0  0  0  0
    8.4076   -2.7217   46.4541 C   0  0  0  0  0  0  0  0  0  0  0  0
    9.3167   -2.0988   47.1049 N   0  0  0  0  0  0  0  0  0  0  0  0
   -0.4719   -4.3893   41.5406 C   0  0  0  0  0  0  0  0  0  0  0  0
    8.3667   -4.0284   46.5743 N   0  0  0  0  0  0  0  0  0  0  0  0
    9.5309   -4.3147   47.3094 C   0  0  0  0  0  0  0  0  0  0  0  0
    5.3113   -3.3789   47.8005 O   0  0  0  0  0  0  0  0  0  0  0  0
    9.9022   -5.6301   47.7684 C   0  0  0  0  0  0  0  0  0  0  0  0
    5.4470   -5.5868   47.2096 C   0  0  0  0  0  0  0  0  0  0  0  0
   11.2254   -5.8679   48.0402 C   0  0  0  0  0  0  0  0  0  0  0  0
    8.9736   -6.6532   47.8548 C   0  0  0  0  0  0  0  0  0  0  0  0
   10.0616   -3.0670   47.6360 C   0  0  0  0  0  0  0  0  0  0  0  0
    7.5566   -6.3564   47.5477 N   0  0  0  0  0  0  0  0  0  0  0  0
    6.4157   -6.1721   48.0913 C   0  0  0  0  0  0  0  0  0  0  0  0
    9.3646   -7.8782   48.1671 C   0  0  0  0  0  0  0  0  0  0  0  0
   12.3073   -4.8526   47.9155 O   0  0  0  0  0  0  0  0  0  0  0  0
   13.3755   -5.0618   47.1745 C   0  0  0  0  0  0  0  0  0  0  0  0
   10.4755   -8.0527   48.4986 C   0  0  0  0  0  0  0  0  0  0  0  0
   11.0258   -9.5190   48.9245 C   0  0  0  0  0  0  0  0  0  0  0  0
   11.7034   -7.1448   48.4519 C   0  0  0  0  0  0  0  0  0  0  0  0
  1  2  1  0
  2  3  2  0
  3  4  1  0
  1  5  2  0
  4  5  1  0
  4  6  2  0
  5  7  1  0
  7  8  2  0
  6  9  1  0
  3 10  1  0
  9 11  2  0
 10 11  1  0
  7 12  1  0
 12 13  2  0
  9 14  1  0
 11 15  1  0
 14 16  1  0
 13 17  1  0
 16 18  1  0
 14 19  2  0
 15 20  2  0
 19 20  1  0
 19 21  1  0
 21 22  2  0
  8 23  1  0
 17 23  2  0
 21 24  1  0
 24 25  1  0
 18 26  2  0
 25 27  1  0
 18 28  1  0
 27 29  2  0
 27 30  1  0
 22 31  1  0
 25 31  2  0
 30 32  1  0
 28 33  1  0
 32 33  1  0
 30 34  2  0
 29 35  1  0
 35 36  1  0
 34 37  1  0
 37 38  1  0
 29 39  1  0
 37 39  2  0
M  END
$$$$
O14757_Pocket2Mol_idx-in-all-generaetd-878
     RDKit          3D

 30 33  0  0  0  0  0  0  0  0999 V2000
    2.2608    0.0351   42.1039 C   0  0  0  0  0  0  0  0  0  0  0  0
    2.7906   -1.0673   42.3987 N   0  0  0  0  0  0  0  0  0  0  0  0
    3.1210    0.9973   42.3040 N   0  0  0  0  0  0  0  0  0  0  0  0
    4.0827   -0.7954   42.9700 C   0  0  0  0  0  0  0  0  0  0  0  0
    4.9955   -1.7234   43.5259 N   0  0  0  0  0  0  0  0  0  0  0  0
    4.5382   -2.7016   44.3398 C   0  0  1  0  0  0  0  0  0  0  0  0
    5.3738   -2.9294   45.5228 C   0  0  2  0  0  0  0  0  0  0  0  0
    6.6133   -2.1566   45.5018 C   0  0  0  0  0  0  0  0  0  0  0  0
    4.2841    0.3926   42.8877 N   0  0  0  0  0  0  0  0  0  0  0  0
    5.4441   -4.2364   45.9837 C   0  0  0  0  0  0  0  0  0  0  0  0
    1.9678   -2.2711   42.4114 C   0  0  0  0  0  0  0  0  0  0  0  0
    7.1399   -1.4316   44.7431 O   0  0  0  0  0  0  0  0  0  0  0  0
    7.4936   -2.5586   46.5441 N   0  0  0  0  0  0  0  0  0  0  0  0
    5.8242   -4.4706   47.3868 C   0  0  0  0  0  0  0  0  0  0  0  0
    1.0261   -2.3754   41.4347 C   0  0  0  0  0  0  0  0  0  0  0  0
    0.1189   -3.5468   41.4614 C   0  0  0  0  0  0  0  0  0  0  0  0
    2.2389   -3.3785   43.2951 C   0  0  0  0  0  0  0  0  0  0  0  0
    3.3150   -3.3216   44.2621 C   0  0  0  0  0  0  0  0  0  0  0  0
   -0.9323   -3.5979   40.4982 O   0  0  0  0  0  0  0  0  0  0  0  0
    8.8055   -2.0091   46.8034 C   0  0  0  0  0  0  0  0  0  0  0  0
    7.0119   -3.4413   47.6500 C   0  0  0  0  0  0  0  0  0  0  0  0
    2.7433   -3.8413   45.4764 O   0  0  0  0  0  0  0  0  0  0  0  0
    9.7710   -2.5832   46.0267 C   0  0  0  0  0  0  0  0  0  0  0  0
   10.9637   -1.8384   45.7788 C   0  0  0  0  0  0  0  0  0  0  0  0
   12.0560   -2.3733   45.3152 C   0  0  0  0  0  0  0  0  0  0  0  0
    1.2235   -4.3730   43.1964 C   0  0  0  0  0  0  0  0  0  0  0  0
   13.1553   -1.6371   44.9461 O   0  0  0  0  0  0  0  0  0  0  0  0
   12.2389   -3.5942   45.5981 O   0  0  0  0  0  0  0  0  0  0  0  0
    1.4712   -5.4890   44.1870 O   0  0  0  0  0  0  0  0  0  0  0  0
    0.3007   -4.5032   42.3371 C   0  0  0  0  0  0  0  0  0  0  0  0
  1  2  1  0
  1  3  2  0
  2  4  1  0
  4  5  1  0
  6  5  1  1
  6  7  1  0
  7  8  1  0
  3  9  1  0
  4  9  2  0
  7 10  1  6
  2 11  1  0
  8 12  2  0
  8 13  1  0
 10 14  1  0
 11 15  2  0
 15 16  1  0
 11 17  1  0
  6 18  1  0
 17 18  1  0
 16 19  1  0
 13 20  1  0
 13 21  1  0
 14 21  1  0
 18 22  2  0
 20 23  1  0
 23 24  1  0
 24 25  1  0
 17 26  2  0
 25 27  2  0
 25 28  1  0
 26 29  1  0
 16 30  2  0
 26 30  1  0
M  END
$$$$
O14757_Pocket2Mol_idx-in-all-generaetd-879
     RDKit          3D

 46 55  0  0  0  0  0  0  0  0999 V2000
    1.5482   -0.3111   41.9233 C   0  0  0  0  0  0  0  0  0  0  0  0
    2.7284    0.2018   42.1525 N   0  0  0  0  0  0  0  0  0  0  0  0
    3.7893   -0.3016   42.7005 C   0  0  0  0  0  0  0  0  0  0  0  0
    3.3781   -1.7350   43.0000 C   0  0  0  0  0  0  0  0  0  0  0  0
    2.0339   -1.9619   42.6217 C   0  0  0  0  0  0  0  0  0  0  0  0
    5.0090    0.1219   42.9340 N   0  0  0  0  0  0  0  0  0  0  0  0
    4.2895   -2.4979   43.6707 C   0  0  0  0  0  0  0  0  0  0  0  0
    5.8391   -0.6675   43.6343 C   0  0  0  0  0  0  0  0  0  0  0  0
    6.9849   -0.2377   44.0028 N   0  0  0  0  0  0  0  0  0  0  0  0
    4.0426   -3.8794   44.0832 C   0  0  0  0  0  0  0  0  0  0  0  0
    7.6796   -0.8734   44.9326 C   0  0  0  0  0  0  0  0  0  0  0  0
    1.1064   -2.9576   42.4211 C   0  0  0  0  0  0  0  0  0  0  0  0
    5.5298   -1.9496   44.0315 C   0  0  0  0  0  0  0  0  0  0  0  0
    3.8954   -4.1817   45.4718 C   0  0  0  0  0  0  0  0  0  0  0  0
    0.6765   -3.5480   43.4006 C   0  0  1  0  0  0  0  0  0  0  0  0
    0.5804   -3.2191   41.1635 C   0  0  0  0  0  0  0  0  0  0  0  0
    2.8083   -4.8227   45.9203 N   0  0  0  0  0  0  0  0  0  0  0  0
   -0.1574   -4.5754   42.9329 N   0  0  0  0  0  0  0  0  0  0  0  0
    6.5271   -2.5531   44.9677 C   0  0  0  0  0  0  0  0  0  0  0  0
   -0.2272   -4.3703   41.5137 C   0  0  0  0  0  0  0  0  0  0  0  0
    7.5095   -2.0029   45.3993 C   0  0  0  0  0  0  0  0  0  0  0  0
    8.2550   -2.6982   46.3988 C   0  0  0  0  0  0  0  0  0  0  0  0
    8.8975   -0.3029   45.3267 O   0  0  0  0  0  0  0  0  0  0  0  0
    4.8299   -4.4637   46.4212 C   0  0  0  0  0  0  0  0  0  0  0  0
    4.2707   -4.9248   47.6295 N   0  0  0  0  0  0  0  0  0  0  0  0
    3.2045   -5.2092   47.1521 C   0  0  0  0  0  0  0  0  0  0  0  0
    1.4482   -4.6186   45.4134 C   0  0  1  0  0  0  0  0  0  0  0  0
    1.2398   -3.5043   44.6236 O   0  0  0  0  0  0  0  0  0  0  0  0
    7.8521   -3.9584   46.8773 C   0  0  0  0  0  0  0  0  0  0  0  0
    8.4079   -4.7553   47.7407 C   0  0  0  0  0  0  0  0  0  0  0  0
    5.9516   -3.8110   45.9146 C   0  0  0  0  0  0  0  0  0  0  0  0
    6.6436   -4.3892   46.6649 C   0  0  0  0  0  0  0  0  0  0  0  0
    9.5111   -5.5246   47.2994 O   0  0  0  0  0  0  0  0  0  0  0  0
   10.6238   -5.0197   46.8534 C   0  0  0  0  0  0  0  0  0  0  0  0
   11.5866   -4.7361   47.6189 C   0  0  0  0  0  0  0  0  0  0  0  0
    1.2153   -5.7944   44.5753 C   0  0  0  0  0  0  0  0  0  0  0  0
   10.7023   -4.6532   45.4361 C   0  0  0  0  0  0  0  0  0  0  0  0
   12.8078   -4.2193   47.0828 C   0  0  0  0  0  0  0  0  0  0  0  0
   11.7380   -4.2754   44.9534 C   0  0  0  0  0  0  0  0  0  0  0  0
   12.8684   -3.9910   45.7319 C   0  0  0  0  0  0  0  0  0  0  0  0
   14.2116   -3.3329   45.2244 C   0  0  0  0  0  0  0  0  0  0  0  0
   14.0022   -2.1177   44.7208 C   0  0  0  0  0  0  0  0  0  0  0  0
   15.0837   -1.5164   44.2726 C   0  0  0  0  0  0  0  0  0  0  0  0
   16.2938   -2.0597   44.4005 C   0  0  0  0  0  0  0  0  0  0  0  0
   16.2430   -3.1976   44.9897 C   0  0  0  0  0  0  0  0  0  0  0  0
   15.1692   -3.7619   45.4974 C   0  0  0  0  0  0  0  0  0  0  0  0
  1  2  1  0
  2  3  2  0
  3  4  1  0
  1  5  2  0
  4  5  1  0
  3  6  1  0
  4  7  2  0
  6  8  1  0
  8  9  1  0
  7 10  1  0
  9 11  1  0
  5 12  1  0
  7 13  1  0
  8 13  2  0
 10 14  1  0
 12 15  1  0
 12 16  2  0
 14 17  1  0
 15 18  1  0
 13 19  1  0
 16 20  1  0
 18 20  2  0
 11 21  1  0
 19 21  2  0
 21 22  1  0
 11 23  2  0
 14 24  2  0
 24 25  1  0
 17 26  1  0
 25 26  2  0
 17 27  1  0
 15 28  1  6
 27 28  1  0
 22 29  2  0
 29 30  1  0
 19 31  1  0
 24 31  1  0
 29 32  1  0
 31 32  2  0
 30 33  1  0
 33 34  1  0
 34 35  2  0
 27 36  1  6
 34 37  1  0
 35 38  1  0
 37 39  2  0
 38 40  2  0
 39 40  1  0
 40 41  1  0
 41 42  2  0
 42 43  1  0
 43 44  2  0
 44 45  1  0
 41 46  1  0
 45 46  2  0
M  END
$$$$
O14757_Pocket2Mol_idx-in-all-generaetd-880
     RDKit          3D

 20 22  0  0  0  0  0  0  0  0999 V2000
    5.5575   -0.4055   43.2321 N   0  0  0  0  0  0  0  0  0  0  0  0
    4.3352   -0.4199   42.8749 C   0  0  0  0  0  0  0  0  0  0  0  0
    3.7259    0.6666   42.2808 N   0  0  0  0  0  0  0  0  0  0  0  0
    5.8648   -1.5886   44.0187 C   0  0  0  0  0  0  0  0  0  0  0  0
    3.6427   -1.5633   43.3994 C   0  0  0  0  0  0  0  0  0  0  0  0
    4.7152   -2.3213   44.3369 N   0  0  0  0  0  0  0  0  0  0  0  0
    2.4299   -2.1105   43.0544 C   0  0  0  0  0  0  0  0  0  0  0  0
    4.5711   -3.4625   44.8841 C   0  0  0  0  0  0  0  0  0  0  0  0
    5.2239   -3.5105   46.1487 C   0  0  0  0  0  0  0  0  0  0  0  0
    1.6614   -1.4396   42.1875 N   0  0  0  0  0  0  0  0  0  0  0  0
    1.9934   -3.3725   43.4300 C   0  0  0  0  0  0  0  0  0  0  0  0
    6.5978   -3.4361   46.2051 C   0  0  0  0  0  0  0  0  0  0  0  0
    0.7486   -3.5466   43.0207 C   0  0  0  0  0  0  0  0  0  0  0  0
    7.3881   -2.2928   46.2342 C   0  0  2  0  0  0  0  0  0  0  0  0
    0.5188   -2.3195   42.1704 N   0  0  0  0  0  0  0  0  0  0  0  0
   -0.6123   -1.9494   41.3734 C   0  0  0  0  0  0  0  0  0  0  0  0
    7.1415   -1.6070   44.8345 C   0  0  0  0  0  0  0  0  0  0  0  0
    8.8049   -2.3207   46.3656 C   0  0  0  0  0  0  0  0  0  0  0  0
    9.3880   -3.2508   46.1922 O   0  0  0  0  0  0  0  0  0  0  0  0
    9.2290   -1.0985   46.9538 N   0  0  0  0  0  0  0  0  0  0  0  0
  1  2  1  0
  2  3  1  0
  1  4  2  0
  2  5  2  0
  4  6  1  0
  5  6  1  0
  5  7  1  0
  6  8  1  0
  8  9  1  0
  7 10  2  0
  7 11  1  0
  9 12  1  0
 11 13  2  0
 12 14  1  0
 10 15  1  0
 13 15  1  0
 15 16  1  0
  4 17  1  0
 14 17  1  0
 14 18  1  6
 18 19  2  0
 18 20  1  0
M  END
$$$$
O14757_Pocket2Mol_idx-in-all-generaetd-881
     RDKit          3D

 36 42  0  0  0  0  0  0  0  0999 V2000
    4.8173    0.2791   42.6993 N   0  0  0  0  0  0  0  0  0  0  0  0
    5.3297   -0.7477   43.3688 C   0  0  0  0  0  0  0  0  0  0  0  0
    3.4732   -0.2235   42.4530 C   0  0  0  0  0  0  0  0  0  0  0  0
    4.4984   -1.7876   43.6214 C   0  0  0  0  0  0  0  0  0  0  0  0
    3.3438   -1.5190   42.9379 C   0  0  0  0  0  0  0  0  0  0  0  0
    2.1381   -2.3401   42.8254 C   0  0  0  0  0  0  0  0  0  0  0  0
    2.3894    0.3572   41.9843 N   0  0  0  0  0  0  0  0  0  0  0  0
    4.9180   -3.0430   44.3829 C   0  0  0  0  0  0  0  0  0  0  0  0
    5.9444   -2.9314   45.3934 C   0  0  0  0  0  0  0  0  0  0  0  0
    4.2808   -4.1329   44.3252 C   0  0  0  0  0  0  0  0  0  0  0  0
    3.1588   -4.4221   43.4852 O   0  0  0  0  0  0  0  0  0  0  0  0
    4.5704   -5.2518   45.1995 C   0  0  0  0  0  0  0  0  0  0  0  0
    1.9853   -3.6792   43.3495 C   0  0  0  0  0  0  0  0  0  0  0  0
    0.9181   -4.3294   43.4638 C   0  0  0  0  0  0  0  0  0  0  0  0
    6.7403   -1.6226   45.5272 C   0  0  0  0  0  0  0  0  0  0  0  0
    0.9752   -1.7845   42.3366 C   0  0  0  0  0  0  0  0  0  0  0  0
    6.2516   -3.7287   46.2722 C   0  0  0  0  0  0  0  0  0  0  0  0
    7.2567   -3.6098   47.2134 C   0  0  0  0  0  0  0  0  0  0  0  0
    5.3220   -4.9461   46.1208 C   0  0  0  0  0  0  0  0  0  0  0  0
    7.8604   -1.5907   46.3326 C   0  0  0  0  0  0  0  0  0  0  0  0
    0.9986   -0.4089   41.6951 C   0  0  0  0  0  0  0  0  0  0  0  0
   -0.2195   -2.3895   42.2855 C   0  0  0  0  0  0  0  0  0  0  0  0
   -0.2661   -3.6763   42.8028 C   0  0  0  0  0  0  0  0  0  0  0  0
    8.0637   -2.6796   47.2569 C   0  0  0  0  0  0  0  0  0  0  0  0
    9.1531   -2.5404   48.1681 C   0  0  0  0  0  0  0  0  0  0  0  0
   10.4001   -2.5703   47.7508 N   0  0  0  0  0  0  0  0  0  0  0  0
    9.0393   -2.9432   49.4354 O   0  0  0  0  0  0  0  0  0  0  0  0
   11.6039   -2.5309   48.5453 C   0  0  0  0  0  0  0  0  0  0  0  0
   10.6209   -1.8823   46.4116 C   0  0  0  0  0  0  0  0  0  0  0  0
   11.8864   -2.6532   45.8155 C   0  0  0  0  0  0  0  0  0  0  0  0
   12.7334   -2.5793   48.0140 C   0  0  0  0  0  0  0  0  0  0  0  0
   12.9476   -2.0480   46.6541 N   0  0  0  0  0  0  0  0  0  0  0  0
   13.9932   -1.2862   46.1509 C   0  0  0  0  0  0  0  0  0  0  0  0
   13.8958   -0.9827   44.9266 O   0  0  0  0  0  0  0  0  0  0  0  0
   14.8630   -0.6644   46.9546 O   0  0  0  0  0  0  0  0  0  0  0  0
   16.1667   -0.7516   46.7765 C   0  0  0  0  0  0  0  0  0  0  0  0
  1  2  2  0
  1  3  1  0
  2  4  1  0
  3  5  1  0
  4  5  2  0
  5  6  1  0
  3  7  2  0
  4  8  1  0
  8  9  1  0
  8 10  2  0
 10 11  1  0
 10 12  1  0
  6 13  1  0
 11 13  1  0
 13 14  2  0
  9 15  2  0
  6 16  2  0
  9 17  1  0
 17 18  2  0
 12 19  2  0
 17 19  1  0
 15 20  1  0
  7 21  1  0
 16 21  1  0
 16 22  1  0
 14 23  1  0
 22 23  2  0
 18 24  1  0
 20 24  2  0
 24 25  1  0
 25 26  1  0
 25 27  2  0
 26 28  1  0
 26 29  1  0
 29 30  1  0
 28 31  1  0
 30 32  1  0
 31 32  1  0
 32 33  1  0
 33 34  2  0
 33 35  1  0
 35 36  1  0
M  END
$$$$
O14757_Pocket2Mol_idx-in-all-generaetd-882
     RDKit          3D

 28 32  0  0  0  0  0  0  0  0999 V2000
    5.3420    0.2589   42.8836 N   0  0  0  0  0  0  0  0  0  0  0  0
    5.6740   -0.8311   43.5645 C   0  0  0  0  0  0  0  0  0  0  0  0
    6.8416   -0.9240   44.3627 N   0  0  0  0  0  0  0  0  0  0  0  0
    4.1141    0.2821   42.2689 C   0  0  0  0  0  0  0  0  0  0  0  0
    3.2237   -0.7484   42.3921 N   0  0  0  0  0  0  0  0  0  0  0  0
    6.8097   -1.9585   45.3182 C   0  0  0  0  0  0  0  0  0  0  0  0
    3.5007   -1.8060   43.1511 C   0  0  0  0  0  0  0  0  0  0  0  0
    4.7020   -1.8573   43.8328 C   0  0  0  0  0  0  0  0  0  0  0  0
    5.4887   -2.6670   44.9856 C   0  0  0  0  0  0  0  0  0  0  0  0
    2.5208   -2.8458   43.2671 C   0  0  0  0  0  0  0  0  0  0  0  0
    2.6558   -3.8570   44.2541 C   0  0  0  0  0  0  0  0  0  0  0  0
    7.6468   -2.3589   46.2854 C   0  0  0  0  0  0  0  0  0  0  0  0
    3.8579   -4.1296   44.9532 N   0  0  0  0  0  0  0  0  0  0  0  0
    1.3096   -2.7520   42.6410 C   0  0  0  0  0  0  0  0  0  0  0  0
    4.9776   -3.8402   45.4939 C   0  0  0  0  0  0  0  0  0  0  0  0
    8.7023   -1.6088   46.4743 C   0  0  0  0  0  0  0  0  0  0  0  0
    9.5984   -1.8433   47.5139 C   0  0  0  0  0  0  0  0  0  0  0  0
    7.3782   -3.4221   47.2077 C   0  0  0  0  0  0  0  0  0  0  0  0
    1.5977   -4.7338   44.4801 C   0  0  0  0  0  0  0  0  0  0  0  0
    1.0668   -1.7644   41.4981 C   0  0  0  0  0  0  0  0  0  0  0  0
   10.8175   -0.9959   47.6882 O   0  0  0  0  0  0  0  0  0  0  0  0
   11.6053   -1.2371   48.6095 C   0  0  0  0  0  0  0  0  0  0  0  0
    8.2848   -3.7045   48.2226 C   0  0  0  0  0  0  0  0  0  0  0  0
    9.4327   -2.9009   48.3326 C   0  0  0  0  0  0  0  0  0  0  0  0
    0.3320   -3.7020   42.8733 C   0  0  0  0  0  0  0  0  0  0  0  0
    1.8791   -5.7622   45.5028 O   0  0  0  0  0  0  0  0  0  0  0  0
    0.4591   -4.7317   43.7795 C   0  0  0  0  0  0  0  0  0  0  0  0
    1.3332   -5.5230   46.6636 C   0  0  0  0  0  0  0  0  0  0  0  0
  1  2  2  0
  2  3  1  0
  1  4  1  0
  4  5  2  0
  3  6  1  0
  5  7  1  0
  2  8  1  0
  7  8  2  0
  6  9  2  0
  8  9  1  0
  7 10  1  0
 10 11  2  0
  6 12  1  0
 11 13  1  0
 10 14  1  0
  9 15  1  0
 13 15  1  0
 12 16  2  0
 16 17  1  0
 12 18  1  0
 11 19  1  0
 14 20  1  0
 17 21  1  0
 21 22  1  0
 18 23  2  0
 17 24  2  0
 23 24  1  0
 14 25  2  0
 19 26  1  0
 19 27  2  0
 25 27  1  0
 26 28  1  0
M  END
$$$$
O14757_Pocket2Mol_idx-in-all-generaetd-883
     RDKit          3D

 28 31  0  0  0  0  0  0  0  0999 V2000
    5.5575   -0.4055   43.2321 N   0  0  0  0  0  0  0  0  0  0  0  0
    4.5233    0.0727   42.5988 N   0  0  0  0  0  0  0  0  0  0  0  0
    5.1726   -1.5114   43.9314 C   0  0  0  0  0  0  0  0  0  0  0  0
    5.9080   -2.2268   44.9217 C   0  0  0  0  0  0  0  0  0  0  0  0
    5.3635   -3.3861   45.5121 C   0  0  0  0  0  0  0  0  0  0  0  0
    7.1791   -1.7734   45.4544 C   0  0  0  0  0  0  0  0  0  0  0  0
    3.4069   -0.5377   42.5980 C   0  0  0  0  0  0  0  0  0  0  0  0
    2.1839   -0.4257   41.9942 C   0  0  0  0  0  0  0  0  0  0  0  0
    3.7449   -1.7453   43.5024 C   0  0  0  0  0  0  0  0  0  0  0  0
    7.8525   -0.6503   45.0420 O   0  0  0  0  0  0  0  0  0  0  0  0
    7.8789   -2.5576   46.3941 C   0  0  0  0  0  0  0  0  0  0  0  0
    2.8045   -2.7414   43.6928 C   0  0  0  0  0  0  0  0  0  0  0  0
    9.2115   -2.0969   46.8642 C   0  0  0  0  0  0  0  0  0  0  0  0
    4.0793   -3.8977   45.1232 C   0  0  0  0  0  0  0  0  0  0  0  0
    9.4064   -1.6424   47.9232 O   0  0  0  0  0  0  0  0  0  0  0  0
    3.1160   -3.7348   44.5196 N   0  0  0  0  0  0  0  0  0  0  0  0
   10.2271   -2.0181   45.9902 O   0  0  0  0  0  0  0  0  0  0  0  0
    1.5846   -2.6820   43.0143 C   0  0  0  0  0  0  0  0  0  0  0  0
   11.4761   -2.1798   46.4472 C   0  0  0  0  0  0  0  0  0  0  0  0
    7.2409   -3.6513   46.9381 C   0  0  0  0  0  0  0  0  0  0  0  0
    1.2492   -1.5070   42.1695 C   0  0  0  0  0  0  0  0  0  0  0  0
    0.5019   -3.7675   43.1967 C   0  0  0  0  0  0  0  0  0  0  0  0
    6.0495   -4.1366   46.6035 C   0  0  0  0  0  0  0  0  0  0  0  0
   -0.0338   -4.1944   42.0509 O   0  0  0  0  0  0  0  0  0  0  0  0
    0.1450   -4.1044   44.2749 O   0  0  0  0  0  0  0  0  0  0  0  0
   12.4450   -1.3498   45.8065 C   0  0  0  0  0  0  0  0  0  0  0  0
   13.1540   -0.6078   46.5263 O   0  0  0  0  0  0  0  0  0  0  0  0
   12.8132    0.5576   46.9334 C   0  0  0  0  0  0  0  0  0  0  0  0
  1  2  2  0
  1  3  1  0
  3  4  1  0
  4  5  2  0
  4  6  1  0
  2  7  1  0
  7  8  2  0
  3  9  2  0
  7  9  1  0
  6 10  1  0
  6 11  2  0
  9 12  1  0
 11 13  1  0
  5 14  1  0
 13 15  2  0
 12 16  1  0
 14 16  2  0
 13 17  1  0
 12 18  1  0
 17 19  1  0
 11 20  1  0
  8 21  1  0
 18 21  2  0
 18 22  1  0
  5 23  1  0
 20 23  2  0
 22 24  2  0
 22 25  1  0
 19 26  1  0
 26 27  1  0
 27 28  1  0
M  END
$$$$
O14757_Pocket2Mol_idx-in-all-generaetd-884
     RDKit          3D

 45 52  0  0  0  0  0  0  0  0999 V2000
    5.3420    0.2589   42.8836 O   0  0  0  0  0  0  0  0  0  0  0  0
    5.1627   -0.7554   43.4753 C   0  0  0  0  0  0  0  0  0  0  0  0
    4.0509   -1.4657   43.4177 N   0  0  0  0  0  0  0  0  0  0  0  0
    5.9969   -1.2317   44.6840 C   0  0  0  0  0  0  0  0  0  0  0  0
    2.9618   -1.1021   42.5918 C   0  0  1  0  0  0  0  0  0  0  0  0
    7.3392   -0.8596   44.8412 C   0  0  0  0  0  0  0  0  0  0  0  0
    1.9754   -2.0820   42.2741 C   0  0  0  0  0  0  0  0  0  0  0  0
    5.5910   -2.4282   45.3439 C   0  0  0  0  0  0  0  0  0  0  0  0
    6.5874   -2.9636   46.1581 C   0  0  0  0  0  0  0  0  0  0  0  0
    4.2763   -3.0680   45.0493 N   0  0  0  0  0  0  0  0  0  0  0  0
    3.6188   -2.5886   44.2024 C   0  0  0  0  0  0  0  0  0  0  0  0
    8.1921   -1.4071   45.7505 C   0  0  0  0  0  0  0  0  0  0  0  0
    1.0154   -1.8839   41.2980 C   0  0  0  0  0  0  0  0  0  0  0  0
    2.5720   -3.3564   43.9063 C   0  0  0  0  0  0  0  0  0  0  0  0
    0.2502   -2.8976   41.0751 C   0  0  0  0  0  0  0  0  0  0  0  0
    6.1761   -4.1775   47.0209 C   0  0  0  0  0  0  0  0  0  0  0  0
    1.7266   -3.1047   43.0115 C   0  0  2  0  0  0  0  0  0  0  0  0
    2.3696   -4.5367   44.7536 N   0  0  0  0  0  0  0  0  0  0  0  0
    1.2264   -5.2346   44.4693 C   0  0  0  0  0  0  0  0  0  0  0  0
    0.7187   -3.8955   42.5465 C   0  0  0  0  0  0  0  0  0  0  0  0
    9.4576   -0.8949   46.0327 N   0  0  0  0  0  0  0  0  0  0  0  0
    0.8625   -6.3901   45.2462 C   0  0  0  0  0  0  0  0  0  0  0  0
    7.6467   -2.5139   46.4892 C   0  0  0  0  0  0  0  0  0  0  0  0
   10.4908   -1.5336   45.8242 C   0  0  0  0  0  0  0  0  0  0  0  0
    0.3057   -4.9299   43.2909 C   0  0  0  0  0  0  0  0  0  0  0  0
   11.5916   -1.4291   46.7436 C   0  0  0  0  0  0  0  0  0  0  0  0
   10.5566   -2.3672   44.8649 O   0  0  0  0  0  0  0  0  0  0  0  0
    2.4730    0.2084   42.8389 O   0  0  0  0  0  0  0  0  0  0  0  0
   11.6027   -2.2081   47.7725 N   0  0  0  0  0  0  0  0  0  0  0  0
   12.6189   -0.5862   46.5415 C   0  0  0  0  0  0  0  0  0  0  0  0
   13.6413   -0.4484   47.4129 C   0  0  0  0  0  0  0  0  0  0  0  0
   10.4764   -3.1097   48.1134 C   0  0  0  0  0  0  0  0  0  0  0  0
    9.5762   -2.4717   49.0753 C   0  0  0  0  0  0  0  0  0  0  0  0
    9.7761   -1.2394   49.5167 C   0  0  0  0  0  0  0  0  0  0  0  0
    8.6397   -3.3252   49.7339 C   0  0  0  0  0  0  0  0  0  0  0  0
    8.9861   -0.7034   50.5819 C   0  0  0  0  0  0  0  0  0  0  0  0
   14.7137    0.5128   47.0925 C   0  0  0  0  0  0  0  0  0  0  0  0
    8.1815   -1.5423   51.2387 C   0  0  0  0  0  0  0  0  0  0  0  0
    8.4156   -4.7176   49.2102 O   0  0  0  0  0  0  0  0  0  0  0  0
    7.9436   -2.8856   50.8102 C   0  0  0  0  0  0  0  0  0  0  0  0
   12.6675   -2.1100   48.6466 C   0  0  0  0  0  0  0  0  0  0  0  0
   12.7093   -2.9949   49.7376 O   0  0  0  0  0  0  0  0  0  0  0  0
   13.7449   -1.2829   48.3870 C   0  0  0  0  0  0  0  0  0  0  0  0
    7.2272   -5.2440   49.4091 C   0  0  0  0  0  0  0  0  0  0  0  0
    6.6398   -5.1633   47.9354 C   0  0  0  0  0  0  0  0  0  0  0  0
  1  2  2  0
  2  3  1  0
  2  4  1  0
  3  5  1  0
  4  6  2  0
  5  7  1  0
  4  8  1  0
  8  9  2  0
  8 10  1  0
  3 11  1  0
 10 11  2  0
  6 12  1  0
  7 13  2  0
 11 14  1  0
 13 15  1  0
  9 16  1  0
 17  7  1  6
 14 17  1  0
 14 18  2  0
 18 19  1  0
 15 20  2  0
 17 20  1  0
 12 21  1  0
 19 22  1  0
  9 23  1  0
 12 23  2  0
 21 24  1  0
 19 25  2  0
 20 25  1  0
 24 26  1  0
 24 27  2  0
  5 28  1  1
 26 29  1  0
 26 30  2  0
 30 31  1  0
 29 32  1  0
 32 33  1  0
 33 34  1  0
 33 35  2  0
 34 36  2  0
 31 37  1  0
 36 38  1  0
 35 39  1  0
 35 40  1  0
 38 40  2  0
 29 41  1  0
 41 42  2  0
 31 43  2  0
 41 43  1  0
 39 44  1  0
 16 45  2  3
 44 45  1  0
M  END
$$$$
O14757_Pocket2Mol_idx-in-all-generaetd-885
     RDKit          3D

 48 55  0  0  0  0  0  0  0  0999 V2000
    5.3420    0.2589   42.8836 O   0  0  0  0  0  0  0  0  0  0  0  0
    5.1627   -0.7554   43.4753 C   0  0  0  0  0  0  0  0  0  0  0  0
    4.0509   -1.4657   43.4177 N   0  0  0  0  0  0  0  0  0  0  0  0
    5.9969   -1.2317   44.6840 C   0  0  0  0  0  0  0  0  0  0  0  0
    2.9618   -1.1021   42.5918 C   0  0  1  0  0  0  0  0  0  0  0  0
    7.3392   -0.8596   44.8412 C   0  0  0  0  0  0  0  0  0  0  0  0
    1.9754   -2.0820   42.2741 C   0  0  0  0  0  0  0  0  0  0  0  0
    5.5910   -2.4282   45.3439 C   0  0  0  0  0  0  0  0  0  0  0  0
    6.5874   -2.9636   46.1581 C   0  0  0  0  0  0  0  0  0  0  0  0
    4.2763   -3.0680   45.0493 N   0  0  0  0  0  0  0  0  0  0  0  0
    3.6188   -2.5886   44.2024 C   0  0  0  0  0  0  0  0  0  0  0  0
    8.1921   -1.4071   45.7505 C   0  0  0  0  0  0  0  0  0  0  0  0
    1.0154   -1.8839   41.2980 C   0  0  0  0  0  0  0  0  0  0  0  0
    2.5720   -3.3564   43.9063 C   0  0  0  0  0  0  0  0  0  0  0  0
    0.2502   -2.8976   41.0751 C   0  0  0  0  0  0  0  0  0  0  0  0
    6.1761   -4.1775   47.0209 C   0  0  0  0  0  0  0  0  0  0  0  0
    1.7266   -3.1047   43.0115 C   0  0  2  0  0  0  0  0  0  0  0  0
    2.3696   -4.5367   44.7536 N   0  0  0  0  0  0  0  0  0  0  0  0
    1.2264   -5.2346   44.4693 C   0  0  0  0  0  0  0  0  0  0  0  0
    0.7187   -3.8955   42.5465 C   0  0  0  0  0  0  0  0  0  0  0  0
    9.4576   -0.8949   46.0327 N   0  0  0  0  0  0  0  0  0  0  0  0
    0.8625   -6.3901   45.2462 C   0  0  0  0  0  0  0  0  0  0  0  0
    7.6467   -2.5139   46.4892 C   0  0  0  0  0  0  0  0  0  0  0  0
   10.4908   -1.5336   45.8242 C   0  0  0  0  0  0  0  0  0  0  0  0
    0.3057   -4.9299   43.2909 C   0  0  0  0  0  0  0  0  0  0  0  0
   11.5916   -1.4291   46.7436 C   0  0  0  0  0  0  0  0  0  0  0  0
   10.5566   -2.3672   44.8649 O   0  0  0  0  0  0  0  0  0  0  0  0
    2.4730    0.2084   42.8389 O   0  0  0  0  0  0  0  0  0  0  0  0
   11.6027   -2.2081   47.7725 N   0  0  0  0  0  0  0  0  0  0  0  0
   12.6189   -0.5862   46.5415 C   0  0  0  0  0  0  0  0  0  0  0  0
   13.6413   -0.4484   47.4129 C   0  0  0  0  0  0  0  0  0  0  0  0
   10.4764   -3.1097   48.1134 C   0  0  0  0  0  0  0  0  0  0  0  0
    9.5762   -2.4717   49.0753 C   0  0  0  0  0  0  0  0  0  0  0  0
    9.7761   -1.2394   49.5167 C   0  0  0  0  0  0  0  0  0  0  0  0
    8.6397   -3.3252   49.7339 C   0  0  0  0  0  0  0  0  0  0  0  0
    8.9861   -0.7034   50.5819 C   0  0  0  0  0  0  0  0  0  0  0  0
   14.7137    0.5128   47.0925 C   0  0  0  0  0  0  0  0  0  0  0  0
    8.1815   -1.5423   51.2387 C   0  0  0  0  0  0  0  0  0  0  0  0
    8.4156   -4.7176   49.2102 O   0  0  0  0  0  0  0  0  0  0  0  0
   13.6915   -1.2597   48.4795 C   0  0  0  0  0  0  0  0  0  0  0  0
   14.7842   -1.1839   49.3622 C   0  0  0  0  0  0  0  0  0  0  0  0
   15.7412    0.6156   47.9897 C   0  0  0  0  0  0  0  0  0  0  0  0
    7.9465   -2.8417   50.8178 C   0  0  0  0  0  0  0  0  0  0  0  0
    8.0049   -5.5759   49.9634 C   0  0  0  0  0  0  0  0  0  0  0  0
   12.6594   -2.2249   48.6770 C   0  0  0  0  0  0  0  0  0  0  0  0
   16.8161    1.5404   47.7957 O   0  0  0  0  0  0  0  0  0  0  0  0
   14.8848   -1.9739   50.5276 O   0  0  0  0  0  0  0  0  0  0  0  0
   15.8803   -0.2088   49.1833 C   0  0  0  0  0  0  0  0  0  0  0  0
  1  2  2  0
  2  3  1  0
  2  4  1  0
  3  5  1  0
  4  6  2  0
  5  7  1  0
  4  8  1  0
  8  9  2  0
  8 10  1  0
  3 11  1  0
 10 11  2  0
  6 12  1  0
  7 13  2  0
 11 14  1  0
 13 15  1  0
  9 16  1  0
 17  7  1  6
 14 17  1  0
 14 18  2  0
 18 19  1  0
 15 20  2  0
 17 20  1  0
 12 21  1  0
 19 22  1  0
  9 23  1  0
 12 23  2  0
 21 24  1  0
 19 25  2  0
 20 25  1  0
 24 26  1  0
 24 27  2  0
  5 28  1  1
 26 29  1  0
 26 30  2  0
 30 31  1  0
 29 32  1  0
 32 33  1  0
 33 34  2  0
 33 35  1  0
 34 36  1  0
 31 37  2  0
 36 38  2  0
 35 39  1  0
 31 40  1  0
 40 41  2  0
 37 42  1  0
 35 43  2  0
 38 43  1  0
 39 44  1  0
 29 45  1  0
 40 45  1  0
 42 46  1  0
 41 47  1  0
 41 48  1  0
 42 48  2  0
M  END
$$$$
O14757_Pocket2Mol_idx-in-all-generaetd-886
     RDKit          3D

 42 49  0  0  0  0  0  0  0  0999 V2000
    1.5482   -0.3111   41.9233 C   0  0  0  0  0  0  0  0  0  0  0  0
    2.7284    0.2018   42.1525 N   0  0  0  0  0  0  0  0  0  0  0  0
    3.7893   -0.3016   42.7005 C   0  0  0  0  0  0  0  0  0  0  0  0
    3.3781   -1.7350   43.0000 C   0  0  0  0  0  0  0  0  0  0  0  0
    2.0339   -1.9619   42.6217 C   0  0  0  0  0  0  0  0  0  0  0  0
    4.1166   -2.4997   43.8458 C   0  0  0  0  0  0  0  0  0  0  0  0
    1.1731   -3.0051   42.5773 C   0  0  0  0  0  0  0  0  0  0  0  0
    0.4701   -3.2344   41.4901 C   0  0  0  0  0  0  0  0  0  0  0  0
    5.3799   -1.7814   44.2691 C   0  0  0  0  0  0  0  0  0  0  0  0
    5.0159   -0.0180   43.1201 N   0  0  0  0  0  0  0  0  0  0  0  0
    5.7693   -0.6937   43.8418 C   0  0  0  0  0  0  0  0  0  0  0  0
    0.8078   -3.6166   43.6782 C   0  0  0  0  0  0  0  0  0  0  0  0
    0.0663   -4.7011   43.7415 N   0  0  0  0  0  0  0  0  0  0  0  0
    6.2223   -2.6843   45.1565 C   0  0  0  0  0  0  0  0  0  0  0  0
    6.9599   -0.2351   44.2608 N   0  0  0  0  0  0  0  0  0  0  0  0
    5.9065   -3.9037   45.7499 N   0  0  0  0  0  0  0  0  0  0  0  0
   -0.5459   -5.1185   42.5870 C   0  0  0  0  0  0  0  0  0  0  0  0
    5.7480   -4.0340   46.9810 C   0  0  0  0  0  0  0  0  0  0  0  0
    7.4448   -1.8511   45.4198 C   0  0  0  0  0  0  0  0  0  0  0  0
    7.7572   -0.7827   45.0128 C   0  0  0  0  0  0  0  0  0  0  0  0
    8.4076   -2.7217   46.4541 C   0  0  0  0  0  0  0  0  0  0  0  0
    9.3167   -2.0988   47.1049 N   0  0  0  0  0  0  0  0  0  0  0  0
   -0.4719   -4.3893   41.5406 C   0  0  0  0  0  0  0  0  0  0  0  0
    8.3667   -4.0284   46.5743 N   0  0  0  0  0  0  0  0  0  0  0  0
    9.5309   -4.3147   47.3094 C   0  0  0  0  0  0  0  0  0  0  0  0
    5.3113   -3.3789   47.8005 O   0  0  0  0  0  0  0  0  0  0  0  0
    9.9022   -5.6301   47.7684 C   0  0  0  0  0  0  0  0  0  0  0  0
    5.4470   -5.5868   47.2096 C   0  0  0  0  0  0  0  0  0  0  0  0
   11.2254   -5.8679   48.0402 C   0  0  0  0  0  0  0  0  0  0  0  0
    8.9736   -6.6532   47.8548 C   0  0  0  0  0  0  0  0  0  0  0  0
   10.0616   -3.0670   47.6360 C   0  0  0  0  0  0  0  0  0  0  0  0
    7.5566   -6.3564   47.5477 N   0  0  0  0  0  0  0  0  0  0  0  0
    6.4157   -6.1721   48.0913 C   0  0  0  0  0  0  0  0  0  0  0  0
    9.3646   -7.8782   48.1671 C   0  0  0  0  0  0  0  0  0  0  0  0
   12.3073   -4.8526   47.9155 O   0  0  0  0  0  0  0  0  0  0  0  0
    8.3867   -8.9995   48.3228 O   0  0  0  0  0  0  0  0  0  0  0  0
   10.6917   -8.2049   48.5433 C   0  0  0  0  0  0  0  0  0  0  0  0
   12.7968   -4.6411   46.6392 C   0  0  0  0  0  0  0  0  0  0  0  0
    8.8401  -10.2441   47.9995 C   0  0  0  0  0  0  0  0  0  0  0  0
   11.1416   -9.5354   48.9384 O   0  0  0  0  0  0  0  0  0  0  0  0
   11.8066   -7.1610   48.4693 C   0  0  0  0  0  0  0  0  0  0  0  0
   10.0971  -10.4565   48.9558 C   0  0  0  0  0  0  0  0  0  0  0  0
  1  2  1  0
  2  3  2  0
  3  4  1  0
  1  5  2  0
  4  5  1  0
  4  6  2  0
  5  7  1  0
  7  8  2  0
  6  9  1  0
  3 10  1  0
  9 11  2  0
 10 11  1  0
  7 12  1  0
 12 13  2  0
  9 14  1  0
 11 15  1  0
 14 16  1  0
 13 17  1  0
 16 18  1  0
 14 19  2  0
 15 20  2  0
 19 20  1  0
 19 21  1  0
 21 22  2  0
  8 23  1  0
 17 23  2  0
 21 24  1  0
 24 25  1  0
 18 26  2  0
 25 27  1  0
 18 28  1  0
 27 29  2  0
 27 30  1  0
 22 31  1  0
 25 31  2  0
 30 32  1  0
 28 33  1  0
 32 33  1  0
 30 34  2  0
 29 35  1  0
 34 36  1  0
 34 37  1  0
 35 38  1  0
 36 39  1  0
 37 40  1  0
 29 41  1  0
 37 41  2  0
 39 42  1  0
 40 42  1  0
M  END
$$$$
O14757_Pocket2Mol_idx-in-all-generaetd-887
     RDKit          3D

 41 47  0  0  0  0  0  0  0  0999 V2000
    5.3420    0.2589   42.8836 O   0  0  0  0  0  0  0  0  0  0  0  0
    5.1627   -0.7554   43.4753 C   0  0  0  0  0  0  0  0  0  0  0  0
    4.0509   -1.4657   43.4177 N   0  0  0  0  0  0  0  0  0  0  0  0
    5.9969   -1.2317   44.6840 C   0  0  0  0  0  0  0  0  0  0  0  0
    2.9618   -1.1021   42.5918 C   0  0  1  0  0  0  0  0  0  0  0  0
    7.3392   -0.8596   44.8412 C   0  0  0  0  0  0  0  0  0  0  0  0
    1.9754   -2.0820   42.2741 C   0  0  0  0  0  0  0  0  0  0  0  0
    5.5910   -2.4282   45.3439 C   0  0  0  0  0  0  0  0  0  0  0  0
    6.5874   -2.9636   46.1581 C   0  0  0  0  0  0  0  0  0  0  0  0
    4.2763   -3.0680   45.0493 N   0  0  0  0  0  0  0  0  0  0  0  0
    3.6188   -2.5886   44.2024 C   0  0  0  0  0  0  0  0  0  0  0  0
    8.1921   -1.4071   45.7505 C   0  0  0  0  0  0  0  0  0  0  0  0
    1.0154   -1.8839   41.2980 C   0  0  0  0  0  0  0  0  0  0  0  0
    2.5720   -3.3564   43.9063 C   0  0  0  0  0  0  0  0  0  0  0  0
    0.2502   -2.8976   41.0751 C   0  0  0  0  0  0  0  0  0  0  0  0
    6.1761   -4.1775   47.0209 C   0  0  0  0  0  0  0  0  0  0  0  0
    1.7266   -3.1047   43.0115 C   0  0  2  0  0  0  0  0  0  0  0  0
    2.3696   -4.5367   44.7536 N   0  0  0  0  0  0  0  0  0  0  0  0
    1.2264   -5.2346   44.4693 C   0  0  0  0  0  0  0  0  0  0  0  0
    0.7187   -3.8955   42.5465 C   0  0  0  0  0  0  0  0  0  0  0  0
    9.4576   -0.8949   46.0327 N   0  0  0  0  0  0  0  0  0  0  0  0
    0.8625   -6.3901   45.2462 C   0  0  0  0  0  0  0  0  0  0  0  0
    7.6467   -2.5139   46.4892 C   0  0  0  0  0  0  0  0  0  0  0  0
   10.4908   -1.5336   45.8242 C   0  0  0  0  0  0  0  0  0  0  0  0
    0.3057   -4.9299   43.2909 C   0  0  0  0  0  0  0  0  0  0  0  0
   11.5916   -1.4291   46.7436 C   0  0  0  0  0  0  0  0  0  0  0  0
   10.5566   -2.3672   44.8649 O   0  0  0  0  0  0  0  0  0  0  0  0
    2.4730    0.2084   42.8389 O   0  0  0  0  0  0  0  0  0  0  0  0
   11.6027   -2.2081   47.7725 N   0  0  0  0  0  0  0  0  0  0  0  0
   12.6189   -0.5862   46.5415 C   0  0  0  0  0  0  0  0  0  0  0  0
   13.6413   -0.4484   47.4129 C   0  0  0  0  0  0  0  0  0  0  0  0
   10.4764   -3.1097   48.1134 C   0  0  0  0  0  0  0  0  0  0  0  0
    9.5762   -2.4717   49.0753 C   0  0  0  0  0  0  0  0  0  0  0  0
    9.7761   -1.2394   49.5167 C   0  0  0  0  0  0  0  0  0  0  0  0
    8.6397   -3.3252   49.7339 C   0  0  0  0  0  0  0  0  0  0  0  0
    8.9861   -0.7034   50.5819 C   0  0  0  0  0  0  0  0  0  0  0  0
   12.7628   -2.0677   48.3467 C   0  0  0  0  0  0  0  0  0  0  0  0
    7.9358   -2.7396   50.7350 C   0  0  0  0  0  0  0  0  0  0  0  0
    8.2255   -1.3976   51.1817 C   0  0  0  0  0  0  0  0  0  0  0  0
   13.7253   -1.3131   48.3451 C   0  0  0  0  0  0  0  0  0  0  0  0
   13.0199   -3.2425   49.3372 O   0  0  0  0  0  0  0  0  0  0  0  0
  1  2  2  0
  2  3  1  0
  2  4  1  0
  3  5  1  0
  4  6  2  0
  5  7  1  0
  4  8  1  0
  8  9  2  0
  8 10  1  0
  3 11  1  0
 10 11  2  0
  6 12  1  0
  7 13  2  0
 11 14  1  0
 13 15  1  0
  9 16  1  0
 17  7  1  6
 14 17  1  0
 14 18  2  0
 18 19  1  0
 15 20  2  0
 17 20  1  0
 12 21  1  0
 19 22  1  0
  9 23  1  0
 12 23  2  0
 21 24  1  0
 19 25  2  0
 20 25  1  0
 24 26  1  0
 24 27  2  0
  5 28  1  1
 26 29  1  0
 26 30  2  0
 30 31  1  0
 29 32  1  0
 32 33  1  0
 33 34  2  0
 33 35  1  0
 34 36  1  0
 29 37  1  0
 35 38  2  0
 36 39  2  0
 38 39  1  0
 31 40  2  0
 37 40  1  0
 37 41  2  0
M  END
$$$$
O14757_Pocket2Mol_idx-in-all-generaetd-888
     RDKit          3D

 25 28  0  0  0  0  0  0  0  0999 V2000
    0.3497   -2.5592   41.5321 C   0  0  0  0  0  0  0  0  0  0  0  0
    0.7059   -1.3065   41.4152 C   0  0  0  0  0  0  0  0  0  0  0  0
    2.0121   -0.9206   42.0074 C   0  0  0  0  0  0  0  0  0  0  0  0
    2.8273   -1.8583   42.7096 C   0  0  0  0  0  0  0  0  0  0  0  0
   -0.9158   -2.9896   41.0259 O   0  0  0  0  0  0  0  0  0  0  0  0
    2.1785   -3.2182   42.8202 C   0  0  0  0  0  0  0  0  0  0  0  0
    2.9957   -4.0364   43.6549 N   0  0  0  0  0  0  0  0  0  0  0  0
    1.0381   -3.5102   42.3147 C   0  0  0  0  0  0  0  0  0  0  0  0
    4.0501   -1.4436   43.3296 C   0  0  0  0  0  0  0  0  0  0  0  0
    4.2345   -3.7127   44.1966 C   0  0  0  0  0  0  0  0  0  0  0  0
    4.9099   -4.6363   45.0387 N   0  0  0  0  0  0  0  0  0  0  0  0
    4.7563   -2.4299   44.0678 C   0  0  0  0  0  0  0  0  0  0  0  0
    6.0306   -2.0532   44.6670 C   0  0  0  0  0  0  0  0  0  0  0  0
    4.6111   -0.1656   43.0716 N   0  0  0  0  0  0  0  0  0  0  0  0
    6.7834   -2.7598   45.5925 N   0  0  0  0  0  0  0  0  0  0  0  0
    8.0062   -2.3962   46.0654 C   0  0  0  0  0  0  0  0  0  0  0  0
    8.3845   -1.1262   46.4117 C   0  0  0  0  0  0  0  0  0  0  0  0
    6.3026   -0.6817   44.5619 N   0  0  0  0  0  0  0  0  0  0  0  0
    9.7158   -1.1202   46.5501 C   0  0  0  0  0  0  0  0  0  0  0  0
    8.4022   -3.1552   47.2051 C   0  0  0  0  0  0  0  0  0  0  0  0
   -2.1369   -2.6089   41.5214 C   0  0  0  0  0  0  0  0  0  0  0  0
    5.5171    0.0680   43.6112 N   0  0  0  0  0  0  0  0  0  0  0  0
    9.8951   -3.1296   47.3739 C   0  0  0  0  0  0  0  0  0  0  0  0
   10.1642   -1.8158   47.6740 N   0  0  0  0  0  0  0  0  0  0  0  0
   11.2739   -1.5034   48.5690 C   0  0  0  0  0  0  0  0  0  0  0  0
  1  2  2  0
  2  3  1  0
  3  4  2  0
  1  5  1  0
  4  6  1  0
  6  7  1  0
  1  8  1  0
  6  8  2  0
  4  9  1  0
  7 10  2  0
 10 11  1  0
  9 12  2  0
 10 12  1  0
 12 13  1  0
  9 14  1  0
 13 15  1  0
 15 16  1  0
 16 17  1  0
 13 18  2  0
 17 19  1  0
 16 20  1  0
  5 21  1  0
 14 22  2  0
 18 22  1  0
 20 23  1  0
 19 24  1  0
 23 24  1  0
 24 25  1  0
M  END
$$$$
O14757_Pocket2Mol_idx-in-all-generaetd-889
     RDKit          3D

 32 36  0  0  0  0  0  0  0  0999 V2000
    5.3420    0.2589   42.8836 O   0  0  0  0  0  0  0  0  0  0  0  0
    5.1627   -0.7554   43.4753 C   0  0  0  0  0  0  0  0  0  0  0  0
    4.0509   -1.4657   43.4177 N   0  0  0  0  0  0  0  0  0  0  0  0
    5.9969   -1.2317   44.6840 C   0  0  0  0  0  0  0  0  0  0  0  0
    2.9618   -1.1021   42.5918 C   0  0  0  0  0  0  0  0  0  0  0  0
    7.3392   -0.8596   44.8412 C   0  0  0  0  0  0  0  0  0  0  0  0
    1.9754   -2.0820   42.2741 C   0  0  0  0  0  0  0  0  0  0  0  0
    5.5910   -2.4282   45.3439 C   0  0  0  0  0  0  0  0  0  0  0  0
    6.5874   -2.9636   46.1581 C   0  0  0  0  0  0  0  0  0  0  0  0
    4.2763   -3.0680   45.0493 N   0  0  0  0  0  0  0  0  0  0  0  0
    3.6188   -2.5886   44.2024 C   0  0  0  0  0  0  0  0  0  0  0  0
    8.1921   -1.4071   45.7505 C   0  0  0  0  0  0  0  0  0  0  0  0
    1.0154   -1.8839   41.2980 C   0  0  0  0  0  0  0  0  0  0  0  0
    2.5720   -3.3564   43.9063 C   0  0  0  0  0  0  0  0  0  0  0  0
    0.2502   -2.8976   41.0751 C   0  0  0  0  0  0  0  0  0  0  0  0
    0.2230   -3.9124   42.0516 C   0  0  0  0  0  0  0  0  0  0  0  0
    2.2879   -4.6260   44.7113 N   0  0  0  0  0  0  0  0  0  0  0  0
    6.1659   -4.2025   47.0113 C   0  0  0  0  0  0  0  0  0  0  0  0
    7.7956   -2.4608   46.4615 C   0  0  0  0  0  0  0  0  0  0  0  0
    2.9712    0.0201   42.0096 O   0  0  0  0  0  0  0  0  0  0  0  0
    1.7132   -3.1838   42.9787 C   0  0  2  0  0  0  0  0  0  0  0  0
    8.6828   -3.0330   47.4960 O   0  0  0  0  0  0  0  0  0  0  0  0
    1.1703   -5.2709   44.7618 O   0  0  0  0  0  0  0  0  0  0  0  0
    9.9111   -3.2041   47.1216 C   0  0  0  0  0  0  0  0  0  0  0  0
    0.5515   -5.1401   45.9479 C   0  0  0  0  0  0  0  0  0  0  0  0
   10.2088   -4.3574   46.5630 C   0  0  0  0  0  0  0  0  0  0  0  0
   10.8619   -2.2052   47.3191 C   0  0  0  0  0  0  0  0  0  0  0  0
   11.5450   -4.6712   46.2149 C   0  0  0  0  0  0  0  0  0  0  0  0
   11.8381   -5.9385   45.7054 O   0  0  0  0  0  0  0  0  0  0  0  0
   12.9206   -6.4824   45.9521 C   0  0  0  0  0  0  0  0  0  0  0  0
   12.4174   -3.9245   46.3859 C   0  0  0  0  0  0  0  0  0  0  0  0
   12.2361   -2.5260   46.9326 C   0  0  0  0  0  0  0  0  0  0  0  0
  1  2  2  0
  2  3  1  0
  2  4  1  0
  3  5  1  0
  4  6  2  0
  5  7  1  0
  4  8  1  0
  8  9  2  0
  8 10  1  0
  3 11  1  0
 10 11  2  0
  6 12  1  0
  7 13  2  0
 11 14  1  0
 13 15  1  0
 15 16  2  0
 14 17  2  3
  9 18  1  0
  9 19  1  0
 12 19  2  0
  5 20  2  0
  7 21  1  0
 14 21  1  0
 21 16  1  6
 19 22  1  0
 17 23  1  0
 22 24  1  0
 23 25  1  0
 24 26  2  0
 24 27  1  0
 26 28  1  0
 28 29  1  0
 29 30  1  0
 28 31  2  0
 27 32  2  0
 31 32  1  0
M  END
$$$$
O14757_Pocket2Mol_idx-in-all-generaetd-890
     RDKit          3D

 48 56  0  0  0  0  0  0  0  0999 V2000
    5.3420    0.2589   42.8836 O   0  0  0  0  0  0  0  0  0  0  0  0
    5.1627   -0.7554   43.4753 C   0  0  0  0  0  0  0  0  0  0  0  0
    4.0509   -1.4657   43.4177 N   0  0  0  0  0  0  0  0  0  0  0  0
    5.9969   -1.2317   44.6840 C   0  0  0  0  0  0  0  0  0  0  0  0
    2.9618   -1.1021   42.5918 C   0  0  1  0  0  0  0  0  0  0  0  0
    7.3392   -0.8596   44.8412 C   0  0  0  0  0  0  0  0  0  0  0  0
    1.9754   -2.0820   42.2741 C   0  0  0  0  0  0  0  0  0  0  0  0
    5.5910   -2.4282   45.3439 C   0  0  0  0  0  0  0  0  0  0  0  0
    6.5874   -2.9636   46.1581 C   0  0  0  0  0  0  0  0  0  0  0  0
    4.2763   -3.0680   45.0493 N   0  0  0  0  0  0  0  0  0  0  0  0
    3.6188   -2.5886   44.2024 C   0  0  0  0  0  0  0  0  0  0  0  0
    8.1921   -1.4071   45.7505 C   0  0  0  0  0  0  0  0  0  0  0  0
    1.0154   -1.8839   41.2980 C   0  0  0  0  0  0  0  0  0  0  0  0
    2.5720   -3.3564   43.9063 C   0  0  0  0  0  0  0  0  0  0  0  0
    0.2502   -2.8976   41.0751 C   0  0  0  0  0  0  0  0  0  0  0  0
    6.1761   -4.1775   47.0209 C   0  0  0  0  0  0  0  0  0  0  0  0
    1.7266   -3.1047   43.0115 C   0  0  2  0  0  0  0  0  0  0  0  0
    2.3696   -4.5367   44.7536 N   0  0  0  0  0  0  0  0  0  0  0  0
    1.2264   -5.2346   44.4693 C   0  0  0  0  0  0  0  0  0  0  0  0
    0.7187   -3.8955   42.5465 C   0  0  0  0  0  0  0  0  0  0  0  0
    9.4576   -0.8949   46.0327 N   0  0  0  0  0  0  0  0  0  0  0  0
    0.8625   -6.3901   45.2462 C   0  0  0  0  0  0  0  0  0  0  0  0
    7.6467   -2.5139   46.4892 C   0  0  0  0  0  0  0  0  0  0  0  0
   10.4908   -1.5336   45.8242 C   0  0  0  0  0  0  0  0  0  0  0  0
    0.3057   -4.9299   43.2909 C   0  0  0  0  0  0  0  0  0  0  0  0
   11.5916   -1.4291   46.7436 C   0  0  0  0  0  0  0  0  0  0  0  0
   10.5566   -2.3672   44.8649 O   0  0  0  0  0  0  0  0  0  0  0  0
    2.4730    0.2084   42.8389 O   0  0  0  0  0  0  0  0  0  0  0  0
   11.6027   -2.2081   47.7725 N   0  0  0  0  0  0  0  0  0  0  0  0
   12.6189   -0.5862   46.5415 C   0  0  0  0  0  0  0  0  0  0  0  0
   13.6413   -0.4484   47.4129 C   0  0  0  0  0  0  0  0  0  0  0  0
   10.4764   -3.1097   48.1134 C   0  0  0  0  0  0  0  0  0  0  0  0
    9.5762   -2.4717   49.0753 C   0  0  0  0  0  0  0  0  0  0  0  0
    9.7761   -1.2394   49.5167 C   0  0  0  0  0  0  0  0  0  0  0  0
    8.6397   -3.3252   49.7339 C   0  0  0  0  0  0  0  0  0  0  0  0
    8.9861   -0.7034   50.5819 C   0  0  0  0  0  0  0  0  0  0  0  0
   14.7137    0.5128   47.0925 C   0  0  0  0  0  0  0  0  0  0  0  0
    8.3536   -4.6815   49.2042 C   0  0  0  0  0  0  0  0  0  0  0  0
    7.9034   -2.7594   50.6763 C   0  0  0  0  0  0  0  0  0  0  0  0
    6.9327   -5.0150   49.0248 N   0  0  0  0  0  0  0  0  0  0  0  0
    8.1305   -1.4992   51.1482 C   0  0  0  0  0  0  0  0  0  0  0  0
    6.3852   -3.9495   48.3951 C   0  0  0  0  0  0  0  0  0  0  0  0
   13.6768   -1.2836   48.4696 C   0  0  0  0  0  0  0  0  0  0  0  0
   14.7714   -1.2324   49.3357 C   0  0  0  0  0  0  0  0  0  0  0  0
   15.5380   -0.3754   49.1453 C   0  0  0  0  0  0  0  0  0  0  0  0
   12.5848   -2.2706   48.6191 C   0  0  0  0  0  0  0  0  0  0  0  0
   16.8009   -0.1567   50.0813 O   0  0  0  0  0  0  0  0  0  0  0  0
   15.6651    0.5740   48.0665 C   0  0  0  0  0  0  0  0  0  0  0  0
  1  2  2  0
  2  3  1  0
  2  4  1  0
  3  5  1  0
  4  6  2  0
  5  7  1  0
  4  8  1  0
  8  9  2  0
  8 10  1  0
  3 11  1  0
 10 11  2  0
  6 12  1  0
  7 13  2  0
 11 14  1  0
 13 15  1  0
  9 16  1  0
 17  7  1  6
 14 17  1  0
 14 18  2  0
 18 19  1  0
 15 20  2  0
 17 20  1  0
 12 21  1  0
 19 22  1  0
  9 23  1  0
 12 23  2  0
 21 24  1  0
 19 25  2  0
 20 25  1  0
 24 26  1  0
 24 27  2  0
  5 28  1  1
 26 29  1  0
 26 30  2  0
 30 31  1  0
 29 32  1  0
 32 33  1  0
 33 34  1  0
 33 35  2  0
 34 36  2  0
 31 37  2  0
 35 38  1  0
 35 39  1  0
 38 40  1  0
 36 41  1  0
 39 41  2  0
 16 42  1  0
 40 42  1  0
 31 43  1  0
 43 44  2  0
 44 45  1  0
 29 46  1  0
 43 46  1  0
 45 47  1  0
 37 48  1  0
 45 48  2  0
M  END
$$$$
O14757_Pocket2Mol_idx-in-all-generaetd-891
     RDKit          3D

 33 37  0  0  0  0  0  0  0  0999 V2000
    4.5142    0.3543   42.7132 N   0  0  0  0  0  0  0  0  0  0  0  0
    3.5107   -0.4860   42.6298 C   0  0  0  0  0  0  0  0  0  0  0  0
    3.5891   -1.7637   43.2512 N   0  0  0  0  0  0  0  0  0  0  0  0
    5.5470   -0.0112   43.3539 C   0  0  0  0  0  0  0  0  0  0  0  0
    2.1469   -0.1899   41.9512 C   0  0  0  0  0  0  0  0  0  0  0  0
    4.6725   -2.0734   43.8606 C   0  0  0  0  0  0  0  0  0  0  0  0
    5.7749   -1.1829   43.9325 C   0  0  0  0  0  0  0  0  0  0  0  0
    4.7150   -3.3068   44.6440 C   0  0  0  0  0  0  0  0  0  0  0  0
    6.9086   -1.5797   44.6919 C   0  0  0  0  0  0  0  0  0  0  0  0
    3.5691   -4.2517   44.6407 C   0  0  0  0  0  0  0  0  0  0  0  0
    2.3573   -4.0060   44.5430 C   0  0  0  0  0  0  0  0  0  0  0  0
    6.9170   -2.8018   45.4663 C   0  0  0  0  0  0  0  0  0  0  0  0
    5.8006   -3.6152   45.4297 C   0  0  0  0  0  0  0  0  0  0  0  0
    8.0903   -3.1108   46.2193 C   0  0  0  0  0  0  0  0  0  0  0  0
    4.0064   -5.4798   44.1304 O   0  0  0  0  0  0  0  0  0  0  0  0
    1.3499   -4.4927   43.7488 C   0  0  0  0  0  0  0  0  0  0  0  0
    8.9407   -2.1153   46.7855 N   0  0  0  0  0  0  0  0  0  0  0  0
    9.9131   -2.4307   47.6296 C   0  0  0  0  0  0  0  0  0  0  0  0
    9.9401   -2.1931   48.7722 O   0  0  0  0  0  0  0  0  0  0  0  0
    1.6925   -3.8787   45.7737 C   0  0  0  0  0  0  0  0  0  0  0  0
    0.0956   -4.4506   43.8726 C   0  0  0  0  0  0  0  0  0  0  0  0
   -0.4743   -4.1254   44.9651 C   0  0  0  0  0  0  0  0  0  0  0  0
   11.1474   -2.9718   46.9683 C   0  0  0  0  0  0  0  0  0  0  0  0
    0.1760   -3.8909   45.9333 C   0  0  0  0  0  0  0  0  0  0  0  0
   11.1208   -4.2039   46.7415 C   0  0  0  0  0  0  0  0  0  0  0  0
   10.0412   -5.1887   46.8168 O   0  0  0  0  0  0  0  0  0  0  0  0
   10.4183   -6.3723   46.3087 C   0  0  0  0  0  0  0  0  0  0  0  0
   12.3853   -4.9158   46.3459 C   0  0  0  0  0  0  0  0  0  0  0  0
   12.2368   -2.1585   46.6785 C   0  0  0  0  0  0  0  0  0  0  0  0
   12.4271   -6.3323   46.2380 O   0  0  0  0  0  0  0  0  0  0  0  0
   11.4652   -6.9767   46.5386 C   0  0  0  0  0  0  0  0  0  0  0  0
   13.5266   -4.2577   46.1756 C   0  0  0  0  0  0  0  0  0  0  0  0
   13.4551   -2.7602   46.3261 C   0  0  0  0  0  0  0  0  0  0  0  0
  1  2  2  0
  2  3  1  0
  1  4  1  0
  2  5  1  0
  3  6  2  0
  4  7  2  0
  6  7  1  0
  6  8  1  0
  7  9  1  0
  8 10  1  0
 10 11  1  0
  9 12  2  0
  8 13  2  0
 12 13  1  0
 12 14  1  0
 10 15  2  0
 11 16  2  0
 14 17  1  0
 17 18  1  0
 18 19  2  0
 11 20  1  0
 16 21  1  0
 21 22  2  0
 18 23  1  0
 20 24  2  0
 22 24  1  0
 23 25  1  0
 25 26  1  0
 26 27  1  0
 25 28  2  0
 23 29  2  0
 28 30  1  0
 27 31  1  0
 30 31  1  0
 28 32  1  0
 29 33  1  0
 32 33  2  0
M  END
$$$$
O14757_Pocket2Mol_idx-in-all-generaetd-892
     RDKit          3D

 45 53  0  0  0  0  0  0  0  0999 V2000
    1.5482   -0.3111   41.9233 C   0  0  0  0  0  0  0  0  0  0  0  0
    2.7284    0.2018   42.1525 N   0  0  0  0  0  0  0  0  0  0  0  0
    3.7893   -0.3016   42.7005 C   0  0  0  0  0  0  0  0  0  0  0  0
    3.3781   -1.7350   43.0000 C   0  0  0  0  0  0  0  0  0  0  0  0
    2.0339   -1.9619   42.6217 C   0  0  0  0  0  0  0  0  0  0  0  0
    5.0090    0.1219   42.9340 N   0  0  0  0  0  0  0  0  0  0  0  0
    4.2895   -2.4979   43.6707 C   0  0  0  0  0  0  0  0  0  0  0  0
    5.8391   -0.6675   43.6343 C   0  0  0  0  0  0  0  0  0  0  0  0
    6.9849   -0.2377   44.0028 N   0  0  0  0  0  0  0  0  0  0  0  0
    4.0426   -3.8794   44.0832 C   0  0  0  0  0  0  0  0  0  0  0  0
    7.6796   -0.8734   44.9326 C   0  0  0  0  0  0  0  0  0  0  0  0
    1.1064   -2.9576   42.4211 C   0  0  0  0  0  0  0  0  0  0  0  0
    5.5298   -1.9496   44.0315 C   0  0  0  0  0  0  0  0  0  0  0  0
    3.8954   -4.1817   45.4718 C   0  0  0  0  0  0  0  0  0  0  0  0
    0.6765   -3.5480   43.4006 C   0  0  1  0  0  0  0  0  0  0  0  0
    0.5804   -3.2191   41.1635 C   0  0  0  0  0  0  0  0  0  0  0  0
    2.8083   -4.8227   45.9203 N   0  0  0  0  0  0  0  0  0  0  0  0
   -0.1574   -4.5754   42.9329 N   0  0  0  0  0  0  0  0  0  0  0  0
    6.5271   -2.5531   44.9677 C   0  0  0  0  0  0  0  0  0  0  0  0
   -0.2272   -4.3703   41.5137 C   0  0  0  0  0  0  0  0  0  0  0  0
    7.5095   -2.0029   45.3993 C   0  0  0  0  0  0  0  0  0  0  0  0
    8.2550   -2.6982   46.3988 C   0  0  0  0  0  0  0  0  0  0  0  0
    8.8975   -0.3029   45.3267 O   0  0  0  0  0  0  0  0  0  0  0  0
    4.8299   -4.4637   46.4212 C   0  0  0  0  0  0  0  0  0  0  0  0
    4.2707   -4.9248   47.6295 N   0  0  0  0  0  0  0  0  0  0  0  0
    3.2045   -5.2092   47.1521 C   0  0  0  0  0  0  0  0  0  0  0  0
    1.4482   -4.6186   45.4134 C   0  0  1  0  0  0  0  0  0  0  0  0
    1.2398   -3.5043   44.6236 O   0  0  0  0  0  0  0  0  0  0  0  0
    6.3317   -3.9297   46.0870 C   0  0  2  0  0  0  0  0  0  0  0  0
    9.5296   -2.5449   46.9776 C   0  0  0  0  0  0  0  0  0  0  0  0
    9.7921   -1.7530   47.9018 O   0  0  0  0  0  0  0  0  0  0  0  0
    7.3972   -3.8130   46.7939 C   0  0  0  0  0  0  0  0  0  0  0  0
    1.2392   -5.7793   44.5610 C   0  0  0  0  0  0  0  0  0  0  0  0
   10.4982   -3.2564   46.4837 N   0  0  0  0  0  0  0  0  0  0  0  0
   10.3664   -4.3024   45.6489 C   0  0  0  0  0  0  0  0  0  0  0  0
   11.8563   -2.7253   46.7001 C   0  0  0  0  0  0  0  0  0  0  0  0
   12.5920   -2.4093   45.4967 C   0  0  0  0  0  0  0  0  0  0  0  0
   10.3017   -5.6302   46.4426 C   0  0  0  0  0  0  0  0  0  0  0  0
   13.9027   -1.9790   45.6656 C   0  0  0  0  0  0  0  0  0  0  0  0
   14.7333   -1.6417   44.4234 C   0  0  0  0  0  0  0  0  0  0  0  0
   14.3053   -1.7239   46.9264 C   0  0  0  0  0  0  0  0  0  0  0  0
   13.6559   -1.9770   48.0282 C   0  0  0  0  0  0  0  0  0  0  0  0
   12.3138   -2.4946   47.8260 C   0  0  0  0  0  0  0  0  0  0  0  0
   15.9137   -2.0319   44.3559 O   0  0  0  0  0  0  0  0  0  0  0  0
   14.1977   -1.0775   43.4912 O   0  0  0  0  0  0  0  0  0  0  0  0
  1  2  1  0
  2  3  2  0
  3  4  1  0
  1  5  2  0
  4  5  1  0
  3  6  1  0
  4  7  2  0
  6  8  1  0
  8  9  1  0
  7 10  1  0
  9 11  1  0
  5 12  1  0
  7 13  1  0
  8 13  2  0
 10 14  1  0
 12 15  1  0
 12 16  2  0
 14 17  1  0
 15 18  1  0
 13 19  1  0
 16 20  1  0
 18 20  2  0
 11 21  1  0
 19 21  2  0
 21 22  1  0
 11 23  2  0
 14 24  2  0
 24 25  1  0
 17 26  1  0
 25 26  2  0
 17 27  1  0
 15 28  1  6
 27 28  1  0
 19 29  1  0
 24 29  1  0
 22 30  1  0
 30 31  2  0
 22 32  2  0
 29 32  1  1
 27 33  1  6
 30 34  1  0
 34 35  1  0
 34 36  1  0
 36 37  2  0
 35 38  1  0
 37 39  1  0
 39 40  1  0
 39 41  2  0
 41 42  1  0
 36 43  1  0
 42 43  2  0
 40 44  1  0
 40 45  2  0
M  END
$$$$
O14757_Pocket2Mol_idx-in-all-generaetd-893
     RDKit          3D

 42 48  0  0  0  0  0  0  0  0999 V2000
    1.5482   -0.3111   41.9233 C   0  0  0  0  0  0  0  0  0  0  0  0
    2.7284    0.2018   42.1525 N   0  0  0  0  0  0  0  0  0  0  0  0
    3.7893   -0.3016   42.7005 C   0  0  0  0  0  0  0  0  0  0  0  0
    3.3781   -1.7350   43.0000 C   0  0  0  0  0  0  0  0  0  0  0  0
    2.0339   -1.9619   42.6217 C   0  0  0  0  0  0  0  0  0  0  0  0
    4.1166   -2.4997   43.8458 C   0  0  0  0  0  0  0  0  0  0  0  0
    1.1731   -3.0051   42.5773 C   0  0  0  0  0  0  0  0  0  0  0  0
    0.4701   -3.2344   41.4901 C   0  0  0  0  0  0  0  0  0  0  0  0
    5.3799   -1.7814   44.2691 C   0  0  0  0  0  0  0  0  0  0  0  0
    5.0159   -0.0180   43.1201 N   0  0  0  0  0  0  0  0  0  0  0  0
    5.7693   -0.6937   43.8418 C   0  0  0  0  0  0  0  0  0  0  0  0
    0.8078   -3.6166   43.6782 C   0  0  0  0  0  0  0  0  0  0  0  0
    0.0663   -4.7011   43.7415 N   0  0  0  0  0  0  0  0  0  0  0  0
    6.2223   -2.6843   45.1565 C   0  0  0  0  0  0  0  0  0  0  0  0
    1.4459   -3.3095   45.0236 O   0  0  0  0  0  0  0  0  0  0  0  0
   -0.5278   -5.1074   42.5506 C   0  0  0  0  0  0  0  0  0  0  0  0
   -1.3099   -6.2193   42.5332 N   0  0  0  0  0  0  0  0  0  0  0  0
   -0.3906   -4.3573   41.3904 C   0  0  0  0  0  0  0  0  0  0  0  0
    7.0535   -0.4845   44.4478 N   0  0  0  0  0  0  0  0  0  0  0  0
    0.6210   -3.8397   46.1835 C   0  0  0  0  0  0  0  0  0  0  0  0
    6.2906   -3.7888   45.8815 C   0  0  0  0  0  0  0  0  0  0  0  0
    7.3965   -1.5466   45.3147 C   0  0  0  0  0  0  0  0  0  0  0  0
    5.1449   -4.4973   46.0473 O   0  0  0  0  0  0  0  0  0  0  0  0
    7.4148   -4.1081   46.6372 C   0  0  0  0  0  0  0  0  0  0  0  0
    8.5011   -3.1747   46.6693 C   0  0  0  0  0  0  0  0  0  0  0  0
    8.4580   -1.9168   46.0438 C   0  0  0  0  0  0  0  0  0  0  0  0
    9.8193   -3.4927   47.5654 C   0  0  1  0  0  0  0  0  0  0  0  0
    4.3482   -4.5667   47.1383 C   0  0  0  0  0  0  0  0  0  0  0  0
   10.8925   -3.4519   46.9633 C   0  0  0  0  0  0  0  0  0  0  0  0
   11.7691   -2.4393   47.2298 N   0  0  0  0  0  0  0  0  0  0  0  0
   11.5679   -1.6048   48.2682 C   0  0  0  0  0  0  0  0  0  0  0  0
   13.2337   -2.7224   46.9899 C   0  0  0  0  0  0  0  0  0  0  0  0
   11.1468   -4.1806   45.9346 O   0  0  0  0  0  0  0  0  0  0  0  0
   14.0674   -3.2434   47.7193 C   0  0  0  0  0  0  0  0  0  0  0  0
   13.7337   -3.8357   48.9955 C   0  0  0  0  0  0  0  0  0  0  0  0
   10.6978   -1.8484   49.2819 O   0  0  0  0  0  0  0  0  0  0  0  0
   15.4145   -3.0897   47.4674 C   0  0  0  0  0  0  0  0  0  0  0  0
   13.6176   -2.2320   45.6683 C   0  0  0  0  0  0  0  0  0  0  0  0
   14.9549   -2.1910   45.2911 C   0  0  0  0  0  0  0  0  0  0  0  0
   15.8706   -2.7001   46.2157 C   0  0  0  0  0  0  0  0  0  0  0  0
   12.0769   -0.4222   48.1160 O   0  0  0  0  0  0  0  0  0  0  0  0
    9.4680   -2.4021   48.7036 C   0  0  0  0  0  0  0  0  0  0  0  0
  1  2  1  0
  2  3  2  0
  3  4  1  0
  1  5  2  0
  4  5  1  0
  4  6  2  0
  5  7  1  0
  7  8  2  0
  6  9  1  0
  3 10  1  0
  9 11  1  0
 10 11  1  0
  7 12  1  0
 12 13  2  0
  9 14  2  0
 12 15  1  0
 13 16  1  0
 16 17  1  0
  8 18  1  0
 16 18  2  0
 11 19  2  0
 15 20  1  0
 14 21  1  0
 14 22  1  0
 19 22  1  0
 21 23  1  0
 21 24  2  0
 24 25  1  0
 22 26  2  0
 25 26  2  0
 27 25  1  6
 23 28  1  0
 27 29  1  0
 29 30  1  0
 30 31  1  0
 30 32  1  0
 29 33  2  0
 32 34  2  0
 34 35  1  0
 31 36  1  0
 34 37  1  0
 32 38  1  0
 38 39  2  0
 37 40  2  0
 39 40  1  0
 31 41  2  0
 27 42  1  0
 36 42  1  0
M  END
$$$$
O14757_Pocket2Mol_idx-in-all-generaetd-894
     RDKit          3D

 28 32  0  0  0  0  0  0  0  0999 V2000
    4.5156    0.0550   42.9895 N   0  0  0  0  0  0  0  0  0  0  0  0
    5.0618   -0.8645   43.5295 C   0  0  0  0  0  0  0  0  0  0  0  0
    4.4350   -2.0604   43.7783 C   0  0  0  0  0  0  0  0  0  0  0  0
    4.9987   -3.0994   44.5839 C   0  0  0  0  0  0  0  0  0  0  0  0
    3.2714   -1.8664   43.0632 C   0  0  0  0  0  0  0  0  0  0  0  0
    6.4064   -0.5942   44.3204 N   0  0  0  0  0  0  0  0  0  0  0  0
    4.3422   -4.3256   44.7203 C   0  0  0  0  0  0  0  0  0  0  0  0
    2.1845   -2.6668   42.8270 N   0  0  0  0  0  0  0  0  0  0  0  0
    3.3305   -0.5395   42.5465 N   0  0  0  0  0  0  0  0  0  0  0  0
    1.9502   -3.8972   43.4076 C   0  0  0  0  0  0  0  0  0  0  0  0
    2.7156   -4.1184   44.6954 N   0  0  0  0  0  0  0  0  0  0  0  0
    6.8581   -1.5862   45.1101 C   0  0  0  0  0  0  0  0  0  0  0  0
    6.1801   -2.8430   45.2383 C   0  0  0  0  0  0  0  0  0  0  0  0
    2.1454   -5.1901   45.5771 C   0  0  0  0  0  0  0  0  0  0  0  0
    8.0137   -1.3946   45.8526 C   0  0  0  0  0  0  0  0  0  0  0  0
    0.9733   -4.5725   43.2066 O   0  0  0  0  0  0  0  0  0  0  0  0
    2.2437    0.0035   41.8733 C   0  0  0  0  0  0  0  0  0  0  0  0
    1.3210   -2.2077   41.7009 C   0  0  1  0  0  0  0  0  0  0  0  0
    0.1057   -2.9896   41.5398 C   0  0  0  0  0  0  0  0  0  0  0  0
    1.2652   -0.8043   41.4406 C   0  0  0  0  0  0  0  0  0  0  0  0
    1.0250   -4.5025   46.2917 C   0  0  0  0  0  0  0  0  0  0  0  0
    8.6288   -2.3025   46.6512 C   0  0  0  0  0  0  0  0  0  0  0  0
    6.7721   -3.8197   46.1487 C   0  0  0  0  0  0  0  0  0  0  0  0
    7.9635   -3.5515   46.8448 C   0  0  0  0  0  0  0  0  0  0  0  0
    9.9559   -2.0229   47.4459 C   0  0  0  0  0  0  0  0  0  0  0  0
   10.9980   -1.8746   46.6735 C   0  0  0  0  0  0  0  0  0  0  0  0
   11.0791   -1.5537   45.4279 O   0  0  0  0  0  0  0  0  0  0  0  0
   12.1467   -1.6274   47.2658 O   0  0  0  0  0  0  0  0  0  0  0  0
  1  2  2  0
  2  3  1  0
  3  4  1  0
  3  5  2  0
  2  6  1  0
  4  7  1  0
  5  8  1  0
  1  9  1  0
  5  9  1  0
  8 10  1  0
  7 11  1  0
 10 11  1  0
  6 12  2  0
  4 13  2  0
 12 13  1  0
 11 14  1  0
 12 15  1  0
 10 16  2  0
  9 17  1  0
  8 18  1  0
 18 19  1  1
 17 20  2  0
 18 20  1  0
 14 21  1  0
 15 22  2  0
 13 23  1  0
 22 24  1  0
 23 24  2  0
 22 25  1  0
 25 26  1  0
 26 27  2  0
 26 28  1  0
M  END
$$$$
O14757_Pocket2Mol_idx-in-all-generaetd-895
     RDKit          3D

 49 58  0  0  0  0  0  0  0  0999 V2000
    1.5482   -0.3111   41.9233 C   0  0  0  0  0  0  0  0  0  0  0  0
    2.7284    0.2018   42.1525 N   0  0  0  0  0  0  0  0  0  0  0  0
    3.7893   -0.3016   42.7005 C   0  0  0  0  0  0  0  0  0  0  0  0
    3.3781   -1.7350   43.0000 C   0  0  0  0  0  0  0  0  0  0  0  0
    2.0339   -1.9619   42.6217 C   0  0  0  0  0  0  0  0  0  0  0  0
    5.0090    0.1219   42.9340 N   0  0  0  0  0  0  0  0  0  0  0  0
    4.2895   -2.4979   43.6707 C   0  0  0  0  0  0  0  0  0  0  0  0
    5.8391   -0.6675   43.6343 C   0  0  0  0  0  0  0  0  0  0  0  0
    6.9849   -0.2377   44.0028 N   0  0  0  0  0  0  0  0  0  0  0  0
    4.0426   -3.8794   44.0832 C   0  0  0  0  0  0  0  0  0  0  0  0
    7.6796   -0.8734   44.9326 C   0  0  0  0  0  0  0  0  0  0  0  0
    1.1064   -2.9576   42.4211 C   0  0  0  0  0  0  0  0  0  0  0  0
    5.5298   -1.9496   44.0315 C   0  0  0  0  0  0  0  0  0  0  0  0
    3.8954   -4.1817   45.4718 C   0  0  0  0  0  0  0  0  0  0  0  0
    0.6765   -3.5480   43.4006 C   0  0  1  0  0  0  0  0  0  0  0  0
    0.5804   -3.2191   41.1635 C   0  0  0  0  0  0  0  0  0  0  0  0
    2.8083   -4.8227   45.9203 N   0  0  0  0  0  0  0  0  0  0  0  0
   -0.1574   -4.5754   42.9329 N   0  0  0  0  0  0  0  0  0  0  0  0
    6.5271   -2.5531   44.9677 C   0  0  0  0  0  0  0  0  0  0  0  0
   -0.2272   -4.3703   41.5137 C   0  0  0  0  0  0  0  0  0  0  0  0
    7.5095   -2.0029   45.3993 C   0  0  0  0  0  0  0  0  0  0  0  0
    8.2550   -2.6982   46.3988 C   0  0  1  0  0  0  0  0  0  0  0  0
    8.8975   -0.3029   45.3267 O   0  0  0  0  0  0  0  0  0  0  0  0
    4.8299   -4.4637   46.4212 C   0  0  0  0  0  0  0  0  0  0  0  0
    4.2707   -4.9248   47.6295 N   0  0  0  0  0  0  0  0  0  0  0  0
    3.2045   -5.2092   47.1521 C   0  0  0  0  0  0  0  0  0  0  0  0
    1.4482   -4.6186   45.4134 C   0  0  0  0  0  0  0  0  0  0  0  0
    1.3256   -3.7660   44.6394 N   0  0  0  0  0  0  0  0  0  0  0  0
    9.2816   -2.1418   47.1273 N   0  0  0  0  0  0  0  0  0  0  0  0
   10.0629   -3.1324   47.8508 C   0  0  0  0  0  0  0  0  0  0  0  0
    6.3491   -3.8960   46.0844 C   0  0  2  0  0  0  0  0  0  0  0  0
    7.4349   -3.5889   46.9054 C   0  0  0  0  0  0  0  0  0  0  0  0
   10.3145   -2.7271   49.0818 O   0  0  0  0  0  0  0  0  0  0  0  0
    0.6213   -5.4445   45.7455 O   0  0  0  0  0  0  0  0  0  0  0  0
   11.0262   -3.8136   47.1050 C   0  0  0  0  0  0  0  0  0  0  0  0
   12.1704   -3.3854   46.7547 C   0  0  0  0  0  0  0  0  0  0  0  0
   13.1080   -4.1111   46.0053 C   0  0  0  0  0  0  0  0  0  0  0  0
   14.3489   -3.5966   45.7888 C   0  0  0  0  0  0  0  0  0  0  0  0
   12.7430   -5.2725   45.5056 C   0  0  0  0  0  0  0  0  0  0  0  0
   14.6935   -2.2816   45.3353 C   0  0  0  0  0  0  0  0  0  0  0  0
   15.8828   -1.9964   44.9887 C   0  0  0  0  0  0  0  0  0  0  0  0
   15.4347   -4.4529   45.9716 C   0  0  0  0  0  0  0  0  0  0  0  0
   16.1869   -0.5957   44.4528 O   0  0  0  0  0  0  0  0  0  0  0  0
   10.8168   -5.3072   46.8157 C   0  0  0  0  0  0  0  0  0  0  0  0
   16.9691   -2.7691   45.1797 C   0  0  0  0  0  0  0  0  0  0  0  0
   18.2618   -2.3821   44.8230 O   0  0  0  0  0  0  0  0  0  0  0  0
   11.6057   -5.8895   46.0467 C   0  0  0  0  0  0  0  0  0  0  0  0
   16.7511   -4.0523   45.6581 C   0  0  0  0  0  0  0  0  0  0  0  0
   15.0406    0.0930   44.1039 C   0  0  0  0  0  0  0  0  0  0  0  0
  1  2  1  0
  2  3  2  0
  3  4  1  0
  1  5  2  0
  4  5  1  0
  3  6  1  0
  4  7  2  0
  6  8  1  0
  8  9  1  0
  7 10  1  0
  9 11  1  0
  5 12  1  0
  7 13  1  0
  8 13  2  0
 10 14  1  0
 12 15  1  0
 12 16  2  0
 14 17  1  0
 15 18  1  0
 13 19  1  0
 16 20  1  0
 18 20  2  0
 11 21  1  0
 19 21  2  0
 21 22  1  0
 11 23  2  0
 14 24  2  0
 24 25  1  0
 17 26  1  0
 25 26  2  0
 17 27  1  0
 15 28  1  6
 27 28  1  0
 22 29  1  1
 29 30  1  0
 19 31  1  0
 24 31  1  0
 22 32  1  0
 31 32  1  1
 30 33  2  0
 27 34  2  0
 30 35  1  0
 35 36  2  0
 36 37  1  0
 37 38  1  0
 37 39  2  0
 38 40  2  0
 40 41  1  0
 38 42  1  0
 41 43  1  0
 35 44  1  0
 41 45  2  0
 45 46  1  0
 39 47  1  0
 44 47  2  0
 42 48  2  0
 45 48  1  0
 43 49  1  0
M  END
$$$$
O14757_Pocket2Mol_idx-in-all-generaetd-896
     RDKit          3D

 43 50  0  0  0  0  0  0  0  0999 V2000
    1.5482   -0.3111   41.9233 C   0  0  0  0  0  0  0  0  0  0  0  0
    2.7284    0.2018   42.1525 N   0  0  0  0  0  0  0  0  0  0  0  0
    3.7893   -0.3016   42.7005 C   0  0  0  0  0  0  0  0  0  0  0  0
    3.3781   -1.7350   43.0000 C   0  0  0  0  0  0  0  0  0  0  0  0
    2.0339   -1.9619   42.6217 C   0  0  0  0  0  0  0  0  0  0  0  0
    4.1166   -2.4997   43.8458 C   0  0  0  0  0  0  0  0  0  0  0  0
    1.1731   -3.0051   42.5773 C   0  0  0  0  0  0  0  0  0  0  0  0
    0.4701   -3.2344   41.4901 C   0  0  0  0  0  0  0  0  0  0  0  0
    5.3799   -1.7814   44.2691 C   0  0  0  0  0  0  0  0  0  0  0  0
    5.0159   -0.0180   43.1201 N   0  0  0  0  0  0  0  0  0  0  0  0
    5.7693   -0.6937   43.8418 C   0  0  0  0  0  0  0  0  0  0  0  0
    0.8078   -3.6166   43.6782 C   0  0  0  0  0  0  0  0  0  0  0  0
    0.0663   -4.7011   43.7415 N   0  0  0  0  0  0  0  0  0  0  0  0
    6.2223   -2.6843   45.1565 C   0  0  0  0  0  0  0  0  0  0  0  0
    6.9599   -0.2351   44.2608 N   0  0  0  0  0  0  0  0  0  0  0  0
    5.9065   -3.9037   45.7499 N   0  0  0  0  0  0  0  0  0  0  0  0
   -0.5459   -5.1185   42.5870 C   0  0  0  0  0  0  0  0  0  0  0  0
    5.7480   -4.0340   46.9810 C   0  0  0  0  0  0  0  0  0  0  0  0
    7.4448   -1.8511   45.4198 C   0  0  0  0  0  0  0  0  0  0  0  0
    7.7572   -0.7827   45.0128 C   0  0  0  0  0  0  0  0  0  0  0  0
    8.4076   -2.7217   46.4541 C   0  0  0  0  0  0  0  0  0  0  0  0
    9.3167   -2.0988   47.1049 N   0  0  0  0  0  0  0  0  0  0  0  0
   -0.4719   -4.3893   41.5406 C   0  0  0  0  0  0  0  0  0  0  0  0
    8.3667   -4.0284   46.5743 N   0  0  0  0  0  0  0  0  0  0  0  0
    9.5309   -4.3147   47.3094 C   0  0  0  0  0  0  0  0  0  0  0  0
    5.3113   -3.3789   47.8005 O   0  0  0  0  0  0  0  0  0  0  0  0
    9.9022   -5.6301   47.7684 C   0  0  0  0  0  0  0  0  0  0  0  0
    5.4470   -5.5868   47.2096 C   0  0  0  0  0  0  0  0  0  0  0  0
   11.2254   -5.8679   48.0402 C   0  0  0  0  0  0  0  0  0  0  0  0
    8.9736   -6.6532   47.8548 C   0  0  0  0  0  0  0  0  0  0  0  0
   10.0616   -3.0670   47.6360 C   0  0  0  0  0  0  0  0  0  0  0  0
    7.5566   -6.3564   47.5477 N   0  0  0  0  0  0  0  0  0  0  0  0
    6.4157   -6.1721   48.0913 C   0  0  0  0  0  0  0  0  0  0  0  0
   12.3275   -4.8510   47.9324 C   0  0  0  0  0  0  0  0  0  0  0  0
    9.4585   -7.9662   48.0726 C   0  0  0  0  0  0  0  0  0  0  0  0
   11.5288   -2.7910   48.1740 C   0  0  0  0  0  0  0  0  0  0  0  0
   13.6010   -5.5179   48.0202 O   0  0  0  0  0  0  0  0  0  0  0  0
   11.6306   -7.1387   48.1870 C   0  0  0  0  0  0  0  0  0  0  0  0
   11.5862   -1.4060   48.3147 O   0  0  0  0  0  0  0  0  0  0  0  0
    8.4814   -9.0551   48.1734 O   0  0  0  0  0  0  0  0  0  0  0  0
   12.3378   -3.6636   48.5185 N   0  0  0  0  0  0  0  0  0  0  0  0
    8.8101  -10.1827   47.6156 C   0  0  0  0  0  0  0  0  0  0  0  0
   10.7626   -8.1949   48.3361 C   0  0  0  0  0  0  0  0  0  0  0  0
  1  2  1  0
  2  3  2  0
  3  4  1  0
  1  5  2  0
  4  5  1  0
  4  6  2  0
  5  7  1  0
  7  8  2  0
  6  9  1  0
  3 10  1  0
  9 11  2  0
 10 11  1  0
  7 12  1  0
 12 13  2  0
  9 14  1  0
 11 15  1  0
 14 16  1  0
 13 17  1  0
 16 18  1  0
 14 19  2  0
 15 20  2  0
 19 20  1  0
 19 21  1  0
 21 22  2  0
  8 23  1  0
 17 23  2  0
 21 24  1  0
 24 25  1  0
 18 26  2  0
 25 27  1  0
 18 28  1  0
 27 29  2  0
 27 30  1  0
 22 31  1  0
 25 31  2  0
 30 32  1  0
 28 33  1  0
 32 33  1  0
 29 34  1  0
 30 35  2  0
 31 36  1  0
 34 37  1  0
 29 38  1  0
 36 39  2  0
 35 40  1  0
 34 41  2  0
 36 41  1  0
 40 42  1  0
 35 43  1  0
 38 43  2  0
M  END
$$$$
O14757_Pocket2Mol_idx-in-all-generaetd-897
     RDKit          3D

 33 38  0  0  0  0  0  0  0  0999 V2000
    4.5156    0.0550   42.9895 N   0  0  0  0  0  0  0  0  0  0  0  0
    5.0618   -0.8645   43.5295 C   0  0  0  0  0  0  0  0  0  0  0  0
    4.4350   -2.0604   43.7783 C   0  0  0  0  0  0  0  0  0  0  0  0
    4.9987   -3.0994   44.5839 C   0  0  0  0  0  0  0  0  0  0  0  0
    3.2714   -1.8664   43.0632 C   0  0  0  0  0  0  0  0  0  0  0  0
    6.4064   -0.5942   44.3204 N   0  0  0  0  0  0  0  0  0  0  0  0
    4.3422   -4.3256   44.7203 C   0  0  0  0  0  0  0  0  0  0  0  0
    2.1845   -2.6668   42.8270 N   0  0  0  0  0  0  0  0  0  0  0  0
    3.3305   -0.5395   42.5465 N   0  0  0  0  0  0  0  0  0  0  0  0
    1.9502   -3.8972   43.4076 C   0  0  0  0  0  0  0  0  0  0  0  0
    2.7156   -4.1184   44.6954 N   0  0  0  0  0  0  0  0  0  0  0  0
    6.8581   -1.5862   45.1101 C   0  0  0  0  0  0  0  0  0  0  0  0
    6.1801   -2.8430   45.2383 C   0  0  0  0  0  0  0  0  0  0  0  0
    2.1454   -5.1901   45.5771 C   0  0  0  0  0  0  0  0  0  0  0  0
    8.0137   -1.3946   45.8526 C   0  0  0  0  0  0  0  0  0  0  0  0
    0.9733   -4.5725   43.2066 O   0  0  0  0  0  0  0  0  0  0  0  0
    2.2437    0.0035   41.8733 C   0  0  0  0  0  0  0  0  0  0  0  0
    1.3210   -2.2077   41.7009 C   0  0  0  0  0  0  0  0  0  0  0  0
    8.6047   -2.2876   46.6923 C   0  0  0  0  0  0  0  0  0  0  0  0
    7.9141   -3.5157   46.8869 C   0  0  0  0  0  0  0  0  0  0  0  0
    1.0501   -0.8658   41.6612 C   0  0  0  0  0  0  0  0  0  0  0  0
    6.7278   -3.7718   46.2525 C   0  0  0  0  0  0  0  0  0  0  0  0
    9.8280   -2.0492   47.3361 C   0  0  0  0  0  0  0  0  0  0  0  0
    9.8262   -1.5735   48.5432 C   0  0  0  0  0  0  0  0  0  0  0  0
   11.0745   -2.0905   46.6735 C   0  0  0  0  0  0  0  0  0  0  0  0
   11.1189   -2.5101   45.2315 C   0  0  0  0  0  0  0  0  0  0  0  0
    8.6548   -1.3952   49.4178 O   0  0  0  0  0  0  0  0  0  0  0  0
   12.2483   -1.7792   47.2003 C   0  0  0  0  0  0  0  0  0  0  0  0
   11.0576   -1.2774   49.2428 C   0  0  0  0  0  0  0  0  0  0  0  0
   11.5052   -1.6078   44.3227 O   0  0  0  0  0  0  0  0  0  0  0  0
   10.9493   -3.6982   44.9005 O   0  0  0  0  0  0  0  0  0  0  0  0
   11.0231   -0.9189   50.6508 O   0  0  0  0  0  0  0  0  0  0  0  0
   12.2584   -1.4132   48.5974 C   0  0  0  0  0  0  0  0  0  0  0  0
  1  2  2  0
  2  3  1  0
  3  4  1  0
  3  5  2  0
  2  6  1  0
  4  7  1  0
  5  8  1  0
  1  9  1  0
  5  9  1  0
  8 10  1  0
  7 11  1  0
 10 11  1  0
  6 12  2  0
  4 13  2  0
 12 13  1  0
 11 14  1  0
 12 15  1  0
 10 16  2  0
  9 17  1  0
  8 18  1  0
 15 19  2  0
 19 20  1  0
 17 21  1  0
 18 21  1  0
 13 22  1  0
 20 22  2  0
 19 23  1  0
 23 24  2  0
 23 25  1  0
 25 26  1  0
 24 27  1  0
 25 28  2  0
 24 29  1  0
 26 30  2  0
 26 31  1  0
 29 32  1  0
 28 33  1  0
 29 33  2  0
M  END
$$$$
O14757_Pocket2Mol_idx-in-all-generaetd-898
     RDKit          3D

 40 45  0  0  0  0  0  0  0  0999 V2000
    1.5482   -0.3111   41.9233 C   0  0  0  0  0  0  0  0  0  0  0  0
    2.7284    0.2018   42.1525 N   0  0  0  0  0  0  0  0  0  0  0  0
    3.7893   -0.3016   42.7005 C   0  0  0  0  0  0  0  0  0  0  0  0
    3.3781   -1.7350   43.0000 C   0  0  0  0  0  0  0  0  0  0  0  0
    2.0339   -1.9619   42.6217 C   0  0  0  0  0  0  0  0  0  0  0  0
    4.1166   -2.4997   43.8458 C   0  0  0  0  0  0  0  0  0  0  0  0
    1.1731   -3.0051   42.5773 C   0  0  0  0  0  0  0  0  0  0  0  0
    0.4701   -3.2344   41.4901 C   0  0  0  0  0  0  0  0  0  0  0  0
    5.3799   -1.7814   44.2691 C   0  0  0  0  0  0  0  0  0  0  0  0
    5.0159   -0.0180   43.1201 N   0  0  0  0  0  0  0  0  0  0  0  0
    5.7693   -0.6937   43.8418 C   0  0  0  0  0  0  0  0  0  0  0  0
    0.8078   -3.6166   43.6782 C   0  0  0  0  0  0  0  0  0  0  0  0
    0.0663   -4.7011   43.7415 N   0  0  0  0  0  0  0  0  0  0  0  0
    6.2223   -2.6843   45.1565 C   0  0  0  0  0  0  0  0  0  0  0  0
    6.9599   -0.2351   44.2608 N   0  0  0  0  0  0  0  0  0  0  0  0
    5.9065   -3.9037   45.7499 N   0  0  0  0  0  0  0  0  0  0  0  0
   -0.5459   -5.1185   42.5870 C   0  0  0  0  0  0  0  0  0  0  0  0
    5.7480   -4.0340   46.9810 C   0  0  0  0  0  0  0  0  0  0  0  0
    7.4448   -1.8511   45.4198 C   0  0  0  0  0  0  0  0  0  0  0  0
    7.7572   -0.7827   45.0128 C   0  0  0  0  0  0  0  0  0  0  0  0
    8.4076   -2.7217   46.4541 C   0  0  0  0  0  0  0  0  0  0  0  0
    9.3167   -2.0988   47.1049 N   0  0  0  0  0  0  0  0  0  0  0  0
   -0.4719   -4.3893   41.5406 C   0  0  0  0  0  0  0  0  0  0  0  0
    8.3667   -4.0284   46.5743 N   0  0  0  0  0  0  0  0  0  0  0  0
   10.1532   -2.5726   47.9567 C   0  0  0  0  0  0  0  0  0  0  0  0
   11.0726   -1.7892   48.6998 C   0  0  0  0  0  0  0  0  0  0  0  0
   10.4886   -0.9372   49.4584 C   0  0  0  0  0  0  0  0  0  0  0  0
   10.2139   -3.8947   48.0407 C   0  0  0  0  0  0  0  0  0  0  0  0
    6.6188   -4.9855   47.3969 N   0  0  0  0  0  0  0  0  0  0  0  0
    5.1401   -3.1961   47.7242 O   0  0  0  0  0  0  0  0  0  0  0  0
    9.2230   -4.6492   47.2923 C   0  0  0  0  0  0  0  0  0  0  0  0
   12.4306   -1.6942   48.6002 C   0  0  0  0  0  0  0  0  0  0  0  0
   13.1277   -2.5738   47.4657 C   0  0  0  0  0  0  0  0  0  0  0  0
   13.0390   -2.0905   46.2012 C   0  0  0  0  0  0  0  0  0  0  0  0
   12.0480   -1.9723   45.6449 O   0  0  0  0  0  0  0  0  0  0  0  0
   14.1045   -1.8603   45.5011 O   0  0  0  0  0  0  0  0  0  0  0  0
   13.1631   -1.1095   49.4791 C   0  0  0  0  0  0  0  0  0  0  0  0
   12.6036   -0.2624   50.4087 C   0  0  0  0  0  0  0  0  0  0  0  0
   13.2732    0.4573   51.3852 O   0  0  0  0  0  0  0  0  0  0  0  0
   11.1525   -0.2038   50.4412 C   0  0  0  0  0  0  0  0  0  0  0  0
  1  2  1  0
  2  3  2  0
  3  4  1  0
  1  5  2  0
  4  5  1  0
  4  6  2  0
  5  7  1  0
  7  8  2  0
  6  9  1  0
  3 10  1  0
  9 11  2  0
 10 11  1  0
  7 12  1  0
 12 13  2  0
  9 14  1  0
 11 15  1  0
 14 16  1  0
 13 17  1  0
 16 18  1  0
 14 19  2  0
 15 20  2  0
 19 20  1  0
 19 21  1  0
 21 22  2  0
  8 23  1  0
 17 23  2  0
 21 24  1  0
 22 25  1  0
 25 26  1  0
 26 27  2  0
 25 28  2  0
 18 29  1  0
 18 30  2  0
 24 31  2  0
 28 31  1  0
 26 32  1  0
 32 33  1  0
 33 34  1  0
 34 35  1  0
 34 36  2  0
 32 37  2  0
 37 38  1  0
 38 39  1  0
 27 40  1  0
 38 40  2  0
M  END
$$$$
O14757_Pocket2Mol_idx-in-all-generaetd-899
     RDKit          3D

 32 37  0  0  0  0  0  0  0  0999 V2000
    4.5156    0.0550   42.9895 N   0  0  0  0  0  0  0  0  0  0  0  0
    5.0618   -0.8645   43.5295 C   0  0  0  0  0  0  0  0  0  0  0  0
    4.4350   -2.0604   43.7783 C   0  0  0  0  0  0  0  0  0  0  0  0
    4.9987   -3.0994   44.5839 C   0  0  0  0  0  0  0  0  0  0  0  0
    3.2714   -1.8664   43.0632 C   0  0  0  0  0  0  0  0  0  0  0  0
    6.4064   -0.5942   44.3204 N   0  0  0  0  0  0  0  0  0  0  0  0
    4.3422   -4.3256   44.7203 C   0  0  0  0  0  0  0  0  0  0  0  0
    2.1845   -2.6668   42.8270 N   0  0  0  0  0  0  0  0  0  0  0  0
    3.3305   -0.5395   42.5465 N   0  0  0  0  0  0  0  0  0  0  0  0
    1.9502   -3.8972   43.4076 C   0  0  0  0  0  0  0  0  0  0  0  0
    2.7156   -4.1184   44.6954 N   0  0  0  0  0  0  0  0  0  0  0  0
    6.8581   -1.5862   45.1101 C   0  0  0  0  0  0  0  0  0  0  0  0
    6.1801   -2.8430   45.2383 C   0  0  0  0  0  0  0  0  0  0  0  0
    2.1454   -5.1901   45.5771 C   0  0  0  0  0  0  0  0  0  0  0  0
    8.0137   -1.3946   45.8526 C   0  0  0  0  0  0  0  0  0  0  0  0
    0.9733   -4.5725   43.2066 O   0  0  0  0  0  0  0  0  0  0  0  0
    2.2437    0.0035   41.8733 C   0  0  0  0  0  0  0  0  0  0  0  0
    1.3210   -2.2077   41.7009 C   0  0  0  0  0  0  0  0  0  0  0  0
    8.6047   -2.2876   46.6923 C   0  0  0  0  0  0  0  0  0  0  0  0
    7.9141   -3.5157   46.8869 C   0  0  0  0  0  0  0  0  0  0  0  0
    1.0501   -0.8658   41.6612 C   0  0  0  0  0  0  0  0  0  0  0  0
    6.7278   -3.7718   46.2525 C   0  0  0  0  0  0  0  0  0  0  0  0
    9.8280   -2.0492   47.3361 C   0  0  0  0  0  0  0  0  0  0  0  0
    9.8262   -1.5735   48.5432 C   0  0  0  0  0  0  0  0  0  0  0  0
   11.0745   -2.0905   46.6735 C   0  0  0  0  0  0  0  0  0  0  0  0
    8.5798   -1.4294   49.3788 F   0  0  0  0  0  0  0  0  0  0  0  0
   10.9754   -1.2454   49.3173 C   0  0  0  0  0  0  0  0  0  0  0  0
   11.1419   -2.5055   45.2136 C   0  0  0  0  0  0  0  0  0  0  0  0
   12.2456   -1.4009   48.7304 C   0  0  0  0  0  0  0  0  0  0  0  0
   12.2444   -1.7831   47.3889 C   0  0  0  0  0  0  0  0  0  0  0  0
   11.1607   -3.6193   44.9616 O   0  0  0  0  0  0  0  0  0  0  0  0
   11.4594   -1.5620   44.3374 N   0  0  0  0  0  0  0  0  0  0  0  0
  1  2  2  0
  2  3  1  0
  3  4  1  0
  3  5  2  0
  2  6  1  0
  4  7  1  0
  5  8  1  0
  1  9  1  0
  5  9  1  0
  8 10  1  0
  7 11  1  0
 10 11  1  0
  6 12  2  0
  4 13  2  0
 12 13  1  0
 11 14  1  0
 12 15  1  0
 10 16  2  0
  9 17  1  0
  8 18  1  0
 15 19  2  0
 19 20  1  0
 17 21  1  0
 18 21  1  0
 13 22  1  0
 20 22  2  0
 19 23  1  0
 23 24  2  0
 23 25  1  0
 24 26  1  0
 24 27  1  0
 25 28  1  0
 27 29  2  0
 25 30  2  0
 29 30  1  0
 28 31  2  0
 28 32  1  0
M  END
$$$$
O14757_Pocket2Mol_idx-in-all-generaetd-900
     RDKit          3D

 42 50  0  0  0  0  0  0  0  0999 V2000
    1.5482   -0.3111   41.9233 C   0  0  0  0  0  0  0  0  0  0  0  0
    2.7284    0.2018   42.1525 N   0  0  0  0  0  0  0  0  0  0  0  0
    3.7893   -0.3016   42.7005 C   0  0  0  0  0  0  0  0  0  0  0  0
    3.3781   -1.7350   43.0000 C   0  0  0  0  0  0  0  0  0  0  0  0
    2.0339   -1.9619   42.6217 C   0  0  0  0  0  0  0  0  0  0  0  0
    5.0090    0.1219   42.9340 N   0  0  0  0  0  0  0  0  0  0  0  0
    4.2895   -2.4979   43.6707 C   0  0  0  0  0  0  0  0  0  0  0  0
    5.8391   -0.6675   43.6343 C   0  0  0  0  0  0  0  0  0  0  0  0
    6.9849   -0.2377   44.0028 N   0  0  0  0  0  0  0  0  0  0  0  0
    4.0426   -3.8794   44.0832 C   0  0  0  0  0  0  0  0  0  0  0  0
    7.6796   -0.8734   44.9326 C   0  0  0  0  0  0  0  0  0  0  0  0
    1.1064   -2.9576   42.4211 C   0  0  0  0  0  0  0  0  0  0  0  0
    5.5298   -1.9496   44.0315 C   0  0  0  0  0  0  0  0  0  0  0  0
    3.8954   -4.1817   45.4718 C   0  0  0  0  0  0  0  0  0  0  0  0
    0.6765   -3.5480   43.4006 C   0  0  1  0  0  0  0  0  0  0  0  0
    0.5804   -3.2191   41.1635 C   0  0  0  0  0  0  0  0  0  0  0  0
    2.8083   -4.8227   45.9203 N   0  0  0  0  0  0  0  0  0  0  0  0
   -0.1574   -4.5754   42.9329 N   0  0  0  0  0  0  0  0  0  0  0  0
    6.5271   -2.5531   44.9677 C   0  0  0  0  0  0  0  0  0  0  0  0
   -0.2272   -4.3703   41.5137 C   0  0  0  0  0  0  0  0  0  0  0  0
    7.5095   -2.0029   45.3993 C   0  0  0  0  0  0  0  0  0  0  0  0
    8.2550   -2.6982   46.3988 C   0  0  1  0  0  0  0  0  0  0  0  0
    8.8975   -0.3029   45.3267 O   0  0  0  0  0  0  0  0  0  0  0  0
    4.8299   -4.4637   46.4212 C   0  0  0  0  0  0  0  0  0  0  0  0
    4.2707   -4.9248   47.6295 N   0  0  0  0  0  0  0  0  0  0  0  0
    3.2045   -5.2092   47.1521 C   0  0  0  0  0  0  0  0  0  0  0  0
    1.4482   -4.6186   45.4134 C   0  0  0  0  0  0  0  0  0  0  0  0
    1.3256   -3.7660   44.6394 N   0  0  0  0  0  0  0  0  0  0  0  0
    9.2816   -2.1418   47.1273 N   0  0  0  0  0  0  0  0  0  0  0  0
   10.0629   -3.1324   47.8508 C   0  0  0  0  0  0  0  0  0  0  0  0
    6.3491   -3.8960   46.0844 C   0  0  2  0  0  0  0  0  0  0  0  0
    7.4349   -3.5889   46.9054 C   0  0  0  0  0  0  0  0  0  0  0  0
   10.3145   -2.7271   49.0818 O   0  0  0  0  0  0  0  0  0  0  0  0
   11.0221   -3.8171   47.1052 C   0  0  0  0  0  0  0  0  0  0  0  0
    0.8710   -5.7412   45.2074 O   0  0  0  0  0  0  0  0  0  0  0  0
   12.1654   -3.3890   46.7468 C   0  0  0  0  0  0  0  0  0  0  0  0
   10.8862   -5.2442   47.2797 C   0  0  0  0  0  0  0  0  0  0  0  0
   13.1372   -4.0568   46.0830 C   0  0  0  0  0  0  0  0  0  0  0  0
   14.3198   -3.4046   45.6016 O   0  0  0  0  0  0  0  0  0  0  0  0
   11.8820   -6.0380   46.6145 C   0  0  0  0  0  0  0  0  0  0  0  0
   12.9978   -5.3956   46.1021 C   0  0  0  0  0  0  0  0  0  0  0  0
   15.5254   -3.7184   46.0819 C   0  0  0  0  0  0  0  0  0  0  0  0
  1  2  1  0
  2  3  2  0
  3  4  1  0
  1  5  2  0
  4  5  1  0
  3  6  1  0
  4  7  2  0
  6  8  1  0
  8  9  1  0
  7 10  1  0
  9 11  1  0
  5 12  1  0
  7 13  1  0
  8 13  2  0
 10 14  1  0
 12 15  1  0
 12 16  2  0
 14 17  1  0
 15 18  1  0
 13 19  1  0
 16 20  1  0
 18 20  2  0
 11 21  1  0
 19 21  2  0
 21 22  1  0
 11 23  2  0
 14 24  2  0
 24 25  1  0
 17 26  1  0
 25 26  2  0
 17 27  1  0
 15 28  1  6
 27 28  1  0
 22 29  1  1
 29 30  1  0
 19 31  1  0
 24 31  1  0
 22 32  1  0
 31 32  1  1
 30 33  2  0
 30 34  1  0
 27 35  2  0
 34 36  2  0
 34 37  1  0
 36 38  1  0
 38 39  1  0
 37 40  2  0
 38 41  2  0
 40 41  1  0
 39 42  1  0
M  END
$$$$
O14757_Pocket2Mol_idx-in-all-generaetd-901
     RDKit          3D

 48 57  0  0  0  0  0  0  0  0999 V2000
    1.5482   -0.3111   41.9233 C   0  0  0  0  0  0  0  0  0  0  0  0
    2.7284    0.2018   42.1525 N   0  0  0  0  0  0  0  0  0  0  0  0
    3.7893   -0.3016   42.7005 C   0  0  0  0  0  0  0  0  0  0  0  0
    3.3781   -1.7350   43.0000 C   0  0  0  0  0  0  0  0  0  0  0  0
    2.0339   -1.9619   42.6217 C   0  0  0  0  0  0  0  0  0  0  0  0
    5.0090    0.1219   42.9340 N   0  0  0  0  0  0  0  0  0  0  0  0
    4.2895   -2.4979   43.6707 C   0  0  0  0  0  0  0  0  0  0  0  0
    5.8391   -0.6675   43.6343 C   0  0  0  0  0  0  0  0  0  0  0  0
    6.9849   -0.2377   44.0028 N   0  0  0  0  0  0  0  0  0  0  0  0
    4.0426   -3.8794   44.0832 C   0  0  0  0  0  0  0  0  0  0  0  0
    7.6796   -0.8734   44.9326 C   0  0  0  0  0  0  0  0  0  0  0  0
    1.1064   -2.9576   42.4211 C   0  0  0  0  0  0  0  0  0  0  0  0
    5.5298   -1.9496   44.0315 C   0  0  0  0  0  0  0  0  0  0  0  0
    3.8954   -4.1817   45.4718 C   0  0  0  0  0  0  0  0  0  0  0  0
    0.6765   -3.5480   43.4006 C   0  0  1  0  0  0  0  0  0  0  0  0
    0.5804   -3.2191   41.1635 C   0  0  0  0  0  0  0  0  0  0  0  0
    2.8083   -4.8227   45.9203 N   0  0  0  0  0  0  0  0  0  0  0  0
   -0.1574   -4.5754   42.9329 N   0  0  0  0  0  0  0  0  0  0  0  0
    6.5271   -2.5531   44.9677 C   0  0  0  0  0  0  0  0  0  0  0  0
   -0.2272   -4.3703   41.5137 C   0  0  0  0  0  0  0  0  0  0  0  0
    7.5095   -2.0029   45.3993 C   0  0  0  0  0  0  0  0  0  0  0  0
    8.2550   -2.6982   46.3988 C   0  0  2  0  0  0  0  0  0  0  0  0
    8.8975   -0.3029   45.3267 O   0  0  0  0  0  0  0  0  0  0  0  0
    4.8299   -4.4637   46.4212 C   0  0  0  0  0  0  0  0  0  0  0  0
    4.2707   -4.9248   47.6295 N   0  0  0  0  0  0  0  0  0  0  0  0
    3.2045   -5.2092   47.1521 C   0  0  0  0  0  0  0  0  0  0  0  0
    1.4482   -4.6186   45.4134 C   0  0  2  0  0  0  0  0  0  0  0  0
    1.2398   -3.5043   44.6236 O   0  0  0  0  0  0  0  0  0  0  0  0
    6.3317   -3.9297   46.0870 C   0  0  2  0  0  0  0  0  0  0  0  0
    9.5296   -2.5449   46.9776 C   0  0  0  0  0  0  0  0  0  0  0  0
    9.7921   -1.7530   47.9018 O   0  0  0  0  0  0  0  0  0  0  0  0
    7.4454   -3.8344   46.8035 C   0  0  0  0  0  0  0  0  0  0  0  0
   10.5010   -3.0847   46.3190 O   0  0  0  0  0  0  0  0  0  0  0  0
    0.5569   -4.7693   46.5649 C   0  0  0  0  0  0  0  0  0  0  0  0
   11.7452   -2.8462   46.6234 C   0  0  0  0  0  0  0  0  0  0  0  0
   12.4344   -1.8951   45.7393 C   0  0  0  0  0  0  0  0  0  0  0  0
   12.4612   -3.5429   47.5581 C   0  0  0  0  0  0  0  0  0  0  0  0
   11.7737   -4.5216   48.4115 C   0  0  0  0  0  0  0  0  0  0  0  0
   13.7761   -1.6251   45.9829 C   0  0  0  0  0  0  0  0  0  0  0  0
   13.7909   -3.1787   47.7950 C   0  0  0  0  0  0  0  0  0  0  0  0
   14.4374   -0.6496   45.1506 C   0  0  0  0  0  0  0  0  0  0  0  0
   14.5863   -3.8413   48.8675 O   0  0  0  0  0  0  0  0  0  0  0  0
   14.4586   -2.2541   47.0105 C   0  0  0  0  0  0  0  0  0  0  0  0
   14.2838   -0.7700   43.8201 C   0  0  0  0  0  0  0  0  0  0  0  0
   14.9711    0.0529   42.9796 C   0  0  0  0  0  0  0  0  0  0  0  0
   15.5797    1.1587   43.6271 C   0  0  0  0  0  0  0  0  0  0  0  0
   15.7034    1.3013   44.9606 C   0  0  0  0  0  0  0  0  0  0  0  0
   15.0391    0.3867   45.7710 C   0  0  0  0  0  0  0  0  0  0  0  0
  1  2  1  0
  2  3  2  0
  3  4  1  0
  1  5  2  0
  4  5  1  0
  3  6  1  0
  4  7  2  0
  6  8  1  0
  8  9  1  0
  7 10  1  0
  9 11  1  0
  5 12  1  0
  7 13  1  0
  8 13  2  0
 10 14  1  0
 12 15  1  0
 12 16  2  0
 14 17  1  0
 15 18  1  0
 13 19  1  0
 16 20  1  0
 18 20  2  0
 11 21  1  0
 19 21  2  0
 21 22  1  0
 11 23  2  0
 14 24  2  0
 24 25  1  0
 17 26  1  0
 25 26  2  0
 17 27  1  0
 15 28  1  6
 27 28  1  0
 19 29  1  0
 24 29  1  0
 22 30  1  6
 30 31  2  0
 22 32  1  0
 29 32  1  1
 30 33  1  0
 27 34  1  1
 33 35  1  0
 35 36  2  0
 35 37  1  0
 37 38  1  0
 36 39  1  0
 37 40  2  0
 39 41  1  0
 40 42  1  0
 39 43  2  0
 40 43  1  0
 41 44  2  0
 44 45  1  0
 45 46  2  0
 46 47  1  0
 41 48  1  0
 47 48  2  0
M  END
$$$$
O14757_Pocket2Mol_idx-in-all-generaetd-902
     RDKit          3D

 44 52  0  0  0  0  0  0  0  0999 V2000
    1.5482   -0.3111   41.9233 C   0  0  0  0  0  0  0  0  0  0  0  0
    2.7284    0.2018   42.1525 N   0  0  0  0  0  0  0  0  0  0  0  0
    3.7893   -0.3016   42.7005 C   0  0  0  0  0  0  0  0  0  0  0  0
    3.3781   -1.7350   43.0000 C   0  0  0  0  0  0  0  0  0  0  0  0
    2.0339   -1.9619   42.6217 C   0  0  0  0  0  0  0  0  0  0  0  0
    5.0090    0.1219   42.9340 N   0  0  0  0  0  0  0  0  0  0  0  0
    4.2895   -2.4979   43.6707 C   0  0  0  0  0  0  0  0  0  0  0  0
    5.8391   -0.6675   43.6343 C   0  0  0  0  0  0  0  0  0  0  0  0
    6.9849   -0.2377   44.0028 N   0  0  0  0  0  0  0  0  0  0  0  0
    4.0426   -3.8794   44.0832 C   0  0  0  0  0  0  0  0  0  0  0  0
    7.6796   -0.8734   44.9326 C   0  0  0  0  0  0  0  0  0  0  0  0
    1.1064   -2.9576   42.4211 C   0  0  0  0  0  0  0  0  0  0  0  0
    5.5298   -1.9496   44.0315 C   0  0  0  0  0  0  0  0  0  0  0  0
    3.8954   -4.1817   45.4718 C   0  0  0  0  0  0  0  0  0  0  0  0
    0.6765   -3.5480   43.4006 C   0  0  1  0  0  0  0  0  0  0  0  0
    0.5804   -3.2191   41.1635 C   0  0  0  0  0  0  0  0  0  0  0  0
    2.8083   -4.8227   45.9203 N   0  0  0  0  0  0  0  0  0  0  0  0
   -0.1574   -4.5754   42.9329 N   0  0  0  0  0  0  0  0  0  0  0  0
    6.5271   -2.5531   44.9677 C   0  0  0  0  0  0  0  0  0  0  0  0
   -0.2272   -4.3703   41.5137 C   0  0  0  0  0  0  0  0  0  0  0  0
    7.5095   -2.0029   45.3993 C   0  0  0  0  0  0  0  0  0  0  0  0
    8.2550   -2.6982   46.3988 C   0  0  1  0  0  0  0  0  0  0  0  0
    8.8975   -0.3029   45.3267 O   0  0  0  0  0  0  0  0  0  0  0  0
    4.8299   -4.4637   46.4212 C   0  0  0  0  0  0  0  0  0  0  0  0
    4.2707   -4.9248   47.6295 N   0  0  0  0  0  0  0  0  0  0  0  0
    3.2045   -5.2092   47.1521 C   0  0  0  0  0  0  0  0  0  0  0  0
    1.4482   -4.6186   45.4134 C   0  0  0  0  0  0  0  0  0  0  0  0
    1.3256   -3.7660   44.6394 N   0  0  0  0  0  0  0  0  0  0  0  0
    9.2816   -2.1418   47.1273 N   0  0  0  0  0  0  0  0  0  0  0  0
   10.0629   -3.1324   47.8508 C   0  0  0  0  0  0  0  0  0  0  0  0
    6.3491   -3.8960   46.0844 C   0  0  2  0  0  0  0  0  0  0  0  0
    7.4349   -3.5889   46.9054 C   0  0  0  0  0  0  0  0  0  0  0  0
   10.3145   -2.7271   49.0818 O   0  0  0  0  0  0  0  0  0  0  0  0
   11.0221   -3.8171   47.1052 C   0  0  0  0  0  0  0  0  0  0  0  0
    0.8710   -5.7412   45.2074 O   0  0  0  0  0  0  0  0  0  0  0  0
   12.1654   -3.3890   46.7468 C   0  0  0  0  0  0  0  0  0  0  0  0
   13.1016   -4.1184   46.0003 C   0  0  0  0  0  0  0  0  0  0  0  0
   14.3410   -3.6031   45.7839 C   0  0  0  0  0  0  0  0  0  0  0  0
   12.7386   -5.2783   45.5019 C   0  0  0  0  0  0  0  0  0  0  0  0
   10.5019   -5.1787   46.6888 C   0  0  0  0  0  0  0  0  0  0  0  0
   11.4219   -5.8282   45.8667 C   0  0  0  0  0  0  0  0  0  0  0  0
   14.5762   -2.3044   45.3325 C   0  0  0  0  0  0  0  0  0  0  0  0
   13.5697   -1.4473   45.0534 C   0  0  0  0  0  0  0  0  0  0  0  0
   12.9224   -1.5199   43.9147 C   0  0  0  0  0  0  0  0  0  0  0  0
  1  2  1  0
  2  3  2  0
  3  4  1  0
  1  5  2  0
  4  5  1  0
  3  6  1  0
  4  7  2  0
  6  8  1  0
  8  9  1  0
  7 10  1  0
  9 11  1  0
  5 12  1  0
  7 13  1  0
  8 13  2  0
 10 14  1  0
 12 15  1  0
 12 16  2  0
 14 17  1  0
 15 18  1  0
 13 19  1  0
 16 20  1  0
 18 20  2  0
 11 21  1  0
 19 21  2  0
 21 22  1  0
 11 23  2  0
 14 24  2  0
 24 25  1  0
 17 26  1  0
 25 26  2  0
 17 27  1  0
 15 28  1  6
 27 28  1  0
 22 29  1  1
 29 30  1  0
 19 31  1  0
 24 31  1  0
 22 32  1  0
 31 32  1  1
 30 33  2  0
 30 34  1  0
 27 35  2  0
 34 36  2  0
 36 37  1  0
 37 38  1  0
 37 39  2  0
 34 40  1  0
 39 41  1  0
 40 41  2  0
 38 42  2  3
 42 43  1  0
 43 44  1  0
M  END
$$$$
O14757_Pocket2Mol_idx-in-all-generaetd-903
     RDKit          3D

 45 53  0  0  0  0  0  0  0  0999 V2000
    1.5482   -0.3111   41.9233 C   0  0  0  0  0  0  0  0  0  0  0  0
    2.7284    0.2018   42.1525 N   0  0  0  0  0  0  0  0  0  0  0  0
    3.7893   -0.3016   42.7005 C   0  0  0  0  0  0  0  0  0  0  0  0
    3.3781   -1.7350   43.0000 C   0  0  0  0  0  0  0  0  0  0  0  0
    2.0339   -1.9619   42.6217 C   0  0  0  0  0  0  0  0  0  0  0  0
    5.0090    0.1219   42.9340 N   0  0  0  0  0  0  0  0  0  0  0  0
    4.2895   -2.4979   43.6707 C   0  0  0  0  0  0  0  0  0  0  0  0
    5.8391   -0.6675   43.6343 C   0  0  0  0  0  0  0  0  0  0  0  0
    6.9849   -0.2377   44.0028 N   0  0  0  0  0  0  0  0  0  0  0  0
    4.0426   -3.8794   44.0832 C   0  0  0  0  0  0  0  0  0  0  0  0
    7.6796   -0.8734   44.9326 C   0  0  0  0  0  0  0  0  0  0  0  0
    1.1064   -2.9576   42.4211 C   0  0  0  0  0  0  0  0  0  0  0  0
    5.5298   -1.9496   44.0315 C   0  0  0  0  0  0  0  0  0  0  0  0
    3.8954   -4.1817   45.4718 C   0  0  0  0  0  0  0  0  0  0  0  0
    0.6765   -3.5480   43.4006 C   0  0  1  0  0  0  0  0  0  0  0  0
    0.5804   -3.2191   41.1635 C   0  0  0  0  0  0  0  0  0  0  0  0
    2.8083   -4.8227   45.9203 N   0  0  0  0  0  0  0  0  0  0  0  0
   -0.1574   -4.5754   42.9329 N   0  0  0  0  0  0  0  0  0  0  0  0
    6.5271   -2.5531   44.9677 C   0  0  0  0  0  0  0  0  0  0  0  0
   -0.2272   -4.3703   41.5137 C   0  0  0  0  0  0  0  0  0  0  0  0
    7.5095   -2.0029   45.3993 C   0  0  0  0  0  0  0  0  0  0  0  0
    8.2550   -2.6982   46.3988 C   0  0  0  0  0  0  0  0  0  0  0  0
    8.8975   -0.3029   45.3267 O   0  0  0  0  0  0  0  0  0  0  0  0
    4.8299   -4.4637   46.4212 C   0  0  0  0  0  0  0  0  0  0  0  0
    4.2707   -4.9248   47.6295 N   0  0  0  0  0  0  0  0  0  0  0  0
    3.2045   -5.2092   47.1521 C   0  0  0  0  0  0  0  0  0  0  0  0
    1.4482   -4.6186   45.4134 C   0  0  1  0  0  0  0  0  0  0  0  0
    1.2398   -3.5043   44.6236 O   0  0  0  0  0  0  0  0  0  0  0  0
    6.3317   -3.9297   46.0870 C   0  0  2  0  0  0  0  0  0  0  0  0
    9.5296   -2.5449   46.9776 C   0  0  0  0  0  0  0  0  0  0  0  0
    9.7921   -1.7530   47.9018 O   0  0  0  0  0  0  0  0  0  0  0  0
    7.3972   -3.8130   46.7939 C   0  0  0  0  0  0  0  0  0  0  0  0
    1.2392   -5.7793   44.5610 C   0  0  0  0  0  0  0  0  0  0  0  0
   10.4982   -3.2564   46.4837 N   0  0  0  0  0  0  0  0  0  0  0  0
   11.8686   -3.0564   46.9374 C   0  0  0  0  0  0  0  0  0  0  0  0
   10.3143   -4.3335   45.5931 C   0  0  0  0  0  0  0  0  0  0  0  0
   10.5171   -5.6681   46.1791 C   0  0  0  0  0  0  0  0  0  0  0  0
   12.8315   -2.7175   45.9073 C   0  0  0  0  0  0  0  0  0  0  0  0
   14.1197   -2.6036   46.2175 C   0  0  0  0  0  0  0  0  0  0  0  0
   12.2567   -3.0142   48.2372 C   0  0  0  0  0  0  0  0  0  0  0  0
   15.1302   -2.3251   45.1521 O   0  0  0  0  0  0  0  0  0  0  0  0
   14.9313   -1.2527   44.3337 C   0  0  0  0  0  0  0  0  0  0  0  0
   14.4968   -2.6772   47.5479 C   0  0  0  0  0  0  0  0  0  0  0  0
   11.3296   -3.2745   49.3290 O   0  0  0  0  0  0  0  0  0  0  0  0
   13.6559   -2.8795   48.6274 C   0  0  0  0  0  0  0  0  0  0  0  0
  1  2  1  0
  2  3  2  0
  3  4  1  0
  1  5  2  0
  4  5  1  0
  3  6  1  0
  4  7  2  0
  6  8  1  0
  8  9  1  0
  7 10  1  0
  9 11  1  0
  5 12  1  0
  7 13  1  0
  8 13  2  0
 10 14  1  0
 12 15  1  0
 12 16  2  0
 14 17  1  0
 15 18  1  0
 13 19  1  0
 16 20  1  0
 18 20  2  0
 11 21  1  0
 19 21  2  0
 21 22  1  0
 11 23  2  0
 14 24  2  0
 24 25  1  0
 17 26  1  0
 25 26  2  0
 17 27  1  0
 15 28  1  6
 27 28  1  0
 19 29  1  0
 24 29  1  0
 22 30  1  0
 30 31  2  0
 22 32  2  0
 29 32  1  1
 27 33  1  6
 30 34  1  0
 34 35  1  0
 34 36  1  0
 36 37  1  0
 35 38  2  0
 38 39  1  0
 35 40  1  0
 39 41  1  0
 41 42  1  0
 39 43  2  0
 40 44  1  0
 40 45  2  0
 43 45  1  0
M  END
$$$$
O14757_Pocket2Mol_idx-in-all-generaetd-904
     RDKit          3D

 35 40  0  0  0  0  0  0  0  0999 V2000
    1.5482   -0.3111   41.9233 C   0  0  0  0  0  0  0  0  0  0  0  0
    2.7284    0.2018   42.1525 N   0  0  0  0  0  0  0  0  0  0  0  0
    3.7893   -0.3016   42.7005 C   0  0  0  0  0  0  0  0  0  0  0  0
    3.3781   -1.7350   43.0000 C   0  0  0  0  0  0  0  0  0  0  0  0
    2.0339   -1.9619   42.6217 C   0  0  0  0  0  0  0  0  0  0  0  0
    4.1166   -2.4997   43.8458 C   0  0  0  0  0  0  0  0  0  0  0  0
    1.1731   -3.0051   42.5773 C   0  0  0  0  0  0  0  0  0  0  0  0
    0.4701   -3.2344   41.4901 C   0  0  0  0  0  0  0  0  0  0  0  0
    5.3799   -1.7814   44.2691 C   0  0  0  0  0  0  0  0  0  0  0  0
    5.0159   -0.0180   43.1201 N   0  0  0  0  0  0  0  0  0  0  0  0
    5.7693   -0.6937   43.8418 C   0  0  0  0  0  0  0  0  0  0  0  0
    0.8078   -3.6166   43.6782 C   0  0  0  0  0  0  0  0  0  0  0  0
    0.0663   -4.7011   43.7415 N   0  0  0  0  0  0  0  0  0  0  0  0
    6.2223   -2.6843   45.1565 C   0  0  0  0  0  0  0  0  0  0  0  0
    6.9599   -0.2351   44.2608 N   0  0  0  0  0  0  0  0  0  0  0  0
    5.9065   -3.9037   45.7499 N   0  0  0  0  0  0  0  0  0  0  0  0
   -0.5459   -5.1185   42.5870 C   0  0  0  0  0  0  0  0  0  0  0  0
    5.7480   -4.0340   46.9810 C   0  0  0  0  0  0  0  0  0  0  0  0
    7.4448   -1.8511   45.4198 C   0  0  0  0  0  0  0  0  0  0  0  0
    7.7572   -0.7827   45.0128 C   0  0  0  0  0  0  0  0  0  0  0  0
    8.4076   -2.7217   46.4541 C   0  0  0  0  0  0  0  0  0  0  0  0
    9.3167   -2.0988   47.1049 N   0  0  0  0  0  0  0  0  0  0  0  0
   -0.4719   -4.3893   41.5406 C   0  0  0  0  0  0  0  0  0  0  0  0
    8.3667   -4.0284   46.5743 N   0  0  0  0  0  0  0  0  0  0  0  0
   10.1532   -2.5726   47.9567 C   0  0  0  0  0  0  0  0  0  0  0  0
    7.1666   -4.7114   47.2915 C   0  0  0  0  0  0  0  0  0  0  0  0
   11.4560   -2.5376   47.5873 C   0  0  0  0  0  0  0  0  0  0  0  0
    9.7828   -2.8884   49.1392 O   0  0  0  0  0  0  0  0  0  0  0  0
   12.0816   -3.7528   47.5780 C   0  0  0  0  0  0  0  0  0  0  0  0
   12.1676   -1.4194   47.1600 C   0  0  0  0  0  0  0  0  0  0  0  0
   13.4963   -1.4892   46.7358 C   0  0  0  0  0  0  0  0  0  0  0  0
   14.1777   -0.2963   46.2222 O   0  0  0  0  0  0  0  0  0  0  0  0
   13.4776   -3.8527   47.2600 C   0  0  0  0  0  0  0  0  0  0  0  0
   13.6082    0.3528   45.2333 C   0  0  0  0  0  0  0  0  0  0  0  0
   14.1511   -2.7322   46.7877 C   0  0  0  0  0  0  0  0  0  0  0  0
  1  2  1  0
  2  3  2  0
  3  4  1  0
  1  5  2  0
  4  5  1  0
  4  6  2  0
  5  7  1  0
  7  8  2  0
  6  9  1  0
  3 10  1  0
  9 11  2  0
 10 11  1  0
  7 12  1  0
 12 13  2  0
  9 14  1  0
 11 15  1  0
 14 16  1  0
 13 17  1  0
 16 18  1  0
 14 19  2  0
 15 20  2  0
 19 20  1  0
 19 21  1  0
 21 22  2  3
  8 23  1  0
 17 23  2  0
 21 24  1  0
 22 25  1  0
 18 26  1  0
 24 26  1  0
 25 27  1  0
 25 28  2  0
 27 29  2  0
 27 30  1  0
 30 31  2  0
 31 32  1  0
 29 33  1  0
 32 34  1  0
 31 35  1  0
 33 35  2  0
M  END
$$$$
O14757_Pocket2Mol_idx-in-all-generaetd-905
     RDKit          3D

 14 15  0  0  0  0  0  0  0  0999 V2000
    4.4466    0.2806   42.7825 N   0  0  0  0  0  0  0  0  0  0  0  0
    5.1291   -0.6298   43.3669 C   0  0  0  0  0  0  0  0  0  0  0  0
    3.1740   -0.0194   42.3785 C   0  0  0  0  0  0  0  0  0  0  0  0
    4.3673   -1.8341   43.6217 C   0  0  0  0  0  0  0  0  0  0  0  0
    3.0793   -1.6405   42.9322 C   0  0  0  0  0  0  0  0  0  0  0  0
    4.7584   -2.9613   44.3349 C   0  0  0  0  0  0  0  0  0  0  0  0
    3.9795   -4.1262   44.4657 C   0  0  0  0  0  0  0  0  0  0  0  0
    5.9259   -2.9969   45.0553 C   0  0  0  0  0  0  0  0  0  0  0  0
    4.3064   -5.2227   45.2116 C   0  0  0  0  0  0  0  0  0  0  0  0
    6.2975   -4.0016   45.9026 C   0  0  0  0  0  0  0  0  0  0  0  0
    3.5412   -6.3927   45.2204 O   0  0  0  0  0  0  0  0  0  0  0  0
    2.2472   -6.1917   44.5797 C   0  0  0  0  0  0  0  0  0  0  0  0
    5.4874   -5.1167   45.9965 C   0  0  0  0  0  0  0  0  0  0  0  0
    1.9846    0.3757   41.8684 N   0  0  0  0  0  0  0  0  0  0  0  0
  1  2  2  0
  1  3  1  0
  2  4  1  0
  3  5  2  0
  4  5  2  0
  4  6  1  0
  6  7  2  0
  6  8  1  0
  7  9  1  0
  8 10  2  0
  9 11  1  0
 11 12  1  0
  9 13  2  0
 10 13  1  0
  3 14  1  0
M  END
$$$$
O14757_Pocket2Mol_idx-in-all-generaetd-906
     RDKit          3D

 45 52  0  0  0  0  0  0  0  0999 V2000
    5.3420    0.2589   42.8836 O   0  0  0  0  0  0  0  0  0  0  0  0
    5.1627   -0.7554   43.4753 C   0  0  0  0  0  0  0  0  0  0  0  0
    4.0509   -1.4657   43.4177 N   0  0  0  0  0  0  0  0  0  0  0  0
    5.9969   -1.2317   44.6840 C   0  0  0  0  0  0  0  0  0  0  0  0
    2.9618   -1.1021   42.5918 C   0  0  1  0  0  0  0  0  0  0  0  0
    7.3392   -0.8596   44.8412 C   0  0  0  0  0  0  0  0  0  0  0  0
    1.9754   -2.0820   42.2741 C   0  0  0  0  0  0  0  0  0  0  0  0
    5.5910   -2.4282   45.3439 C   0  0  0  0  0  0  0  0  0  0  0  0
    6.5874   -2.9636   46.1581 C   0  0  0  0  0  0  0  0  0  0  0  0
    4.2763   -3.0680   45.0493 N   0  0  0  0  0  0  0  0  0  0  0  0
    3.6188   -2.5886   44.2024 C   0  0  0  0  0  0  0  0  0  0  0  0
    8.1921   -1.4071   45.7505 C   0  0  0  0  0  0  0  0  0  0  0  0
    1.0154   -1.8839   41.2980 C   0  0  0  0  0  0  0  0  0  0  0  0
    2.5720   -3.3564   43.9063 C   0  0  0  0  0  0  0  0  0  0  0  0
    0.2502   -2.8976   41.0751 C   0  0  0  0  0  0  0  0  0  0  0  0
    6.1761   -4.1775   47.0209 C   0  0  0  0  0  0  0  0  0  0  0  0
    1.7266   -3.1047   43.0115 C   0  0  2  0  0  0  0  0  0  0  0  0
    2.3696   -4.5367   44.7536 N   0  0  0  0  0  0  0  0  0  0  0  0
    1.2264   -5.2346   44.4693 C   0  0  0  0  0  0  0  0  0  0  0  0
    0.7187   -3.8955   42.5465 C   0  0  0  0  0  0  0  0  0  0  0  0
    9.4576   -0.8949   46.0327 N   0  0  0  0  0  0  0  0  0  0  0  0
    0.8625   -6.3901   45.2462 C   0  0  0  0  0  0  0  0  0  0  0  0
    7.6467   -2.5139   46.4892 C   0  0  0  0  0  0  0  0  0  0  0  0
   10.4908   -1.5336   45.8242 C   0  0  0  0  0  0  0  0  0  0  0  0
    0.3057   -4.9299   43.2909 C   0  0  0  0  0  0  0  0  0  0  0  0
   11.5916   -1.4291   46.7436 C   0  0  0  0  0  0  0  0  0  0  0  0
   10.5566   -2.3672   44.8649 O   0  0  0  0  0  0  0  0  0  0  0  0
    2.4730    0.2084   42.8389 O   0  0  0  0  0  0  0  0  0  0  0  0
   11.6027   -2.2081   47.7725 N   0  0  0  0  0  0  0  0  0  0  0  0
   12.6189   -0.5862   46.5415 C   0  0  0  0  0  0  0  0  0  0  0  0
   13.6413   -0.4484   47.4129 C   0  0  0  0  0  0  0  0  0  0  0  0
   10.4764   -3.1097   48.1134 C   0  0  0  0  0  0  0  0  0  0  0  0
    9.5762   -2.4717   49.0753 C   0  0  0  0  0  0  0  0  0  0  0  0
    9.7761   -1.2394   49.5167 C   0  0  0  0  0  0  0  0  0  0  0  0
    8.6397   -3.3252   49.7339 C   0  0  0  0  0  0  0  0  0  0  0  0
    8.9861   -0.7034   50.5819 C   0  0  0  0  0  0  0  0  0  0  0  0
   14.7137    0.5128   47.0925 C   0  0  0  0  0  0  0  0  0  0  0  0
    8.1815   -1.5423   51.2387 C   0  0  0  0  0  0  0  0  0  0  0  0
    8.4156   -4.7176   49.2102 O   0  0  0  0  0  0  0  0  0  0  0  0
    7.9436   -2.8856   50.8102 C   0  0  0  0  0  0  0  0  0  0  0  0
   12.6675   -2.1100   48.6466 C   0  0  0  0  0  0  0  0  0  0  0  0
   12.7093   -2.9949   49.7376 O   0  0  0  0  0  0  0  0  0  0  0  0
   13.7449   -1.2829   48.3870 C   0  0  0  0  0  0  0  0  0  0  0  0
    7.2272   -5.2440   49.4091 C   0  0  0  0  0  0  0  0  0  0  0  0
    7.0324   -5.0287   47.6310 C   0  0  0  0  0  0  0  0  0  0  0  0
  1  2  2  0
  2  3  1  0
  2  4  1  0
  3  5  1  0
  4  6  2  0
  5  7  1  0
  4  8  1  0
  8  9  2  0
  8 10  1  0
  3 11  1  0
 10 11  2  0
  6 12  1  0
  7 13  2  0
 11 14  1  0
 13 15  1  0
  9 16  1  0
 17  7  1  6
 14 17  1  0
 14 18  2  0
 18 19  1  0
 15 20  2  0
 17 20  1  0
 12 21  1  0
 19 22  1  0
  9 23  1  0
 12 23  2  0
 21 24  1  0
 19 25  2  0
 20 25  1  0
 24 26  1  0
 24 27  2  0
  5 28  1  1
 26 29  1  0
 26 30  2  0
 30 31  1  0
 29 32  1  0
 32 33  1  0
 33 34  1  0
 33 35  2  0
 34 36  2  0
 31 37  1  0
 36 38  1  0
 35 39  1  0
 35 40  1  0
 38 40  2  0
 29 41  1  0
 41 42  2  0
 31 43  2  0
 41 43  1  0
 39 44  1  0
 16 45  1  0
 44 45  1  0
M  END
$$$$
O14757_Pocket2Mol_idx-in-all-generaetd-907
     RDKit          3D

 34 39  0  0  0  0  0  0  0  0999 V2000
    5.3420    0.2589   42.8836 O   0  0  0  0  0  0  0  0  0  0  0  0
    5.1627   -0.7554   43.4753 C   0  0  0  0  0  0  0  0  0  0  0  0
    4.0509   -1.4657   43.4177 N   0  0  0  0  0  0  0  0  0  0  0  0
    5.9969   -1.2317   44.6840 C   0  0  0  0  0  0  0  0  0  0  0  0
    2.9618   -1.1021   42.5918 C   0  0  0  0  0  0  0  0  0  0  0  0
    7.3392   -0.8596   44.8412 C   0  0  0  0  0  0  0  0  0  0  0  0
    1.9754   -2.0820   42.2741 C   0  0  0  0  0  0  0  0  0  0  0  0
    5.5910   -2.4282   45.3439 C   0  0  0  0  0  0  0  0  0  0  0  0
    6.5874   -2.9636   46.1581 C   0  0  0  0  0  0  0  0  0  0  0  0
    4.2763   -3.0680   45.0493 N   0  0  0  0  0  0  0  0  0  0  0  0
    3.6188   -2.5886   44.2024 C   0  0  0  0  0  0  0  0  0  0  0  0
    8.1921   -1.4071   45.7505 C   0  0  0  0  0  0  0  0  0  0  0  0
    1.0154   -1.8839   41.2980 C   0  0  0  0  0  0  0  0  0  0  0  0
    2.5720   -3.3564   43.9063 C   0  0  0  0  0  0  0  0  0  0  0  0
    0.2502   -2.8976   41.0751 C   0  0  0  0  0  0  0  0  0  0  0  0
    6.1761   -4.1775   47.0209 C   0  0  0  0  0  0  0  0  0  0  0  0
    1.7266   -3.1047   43.0115 C   0  0  2  0  0  0  0  0  0  0  0  0
    2.3696   -4.5367   44.7536 N   0  0  0  0  0  0  0  0  0  0  0  0
    1.2264   -5.2346   44.4693 C   0  0  0  0  0  0  0  0  0  0  0  0
    0.7187   -3.8955   42.5465 C   0  0  0  0  0  0  0  0  0  0  0  0
    9.4576   -0.8949   46.0327 N   0  0  0  0  0  0  0  0  0  0  0  0
    0.8625   -6.3901   45.2462 C   0  0  0  0  0  0  0  0  0  0  0  0
    7.6467   -2.5139   46.4892 C   0  0  0  0  0  0  0  0  0  0  0  0
   10.4908   -1.5336   45.8242 C   0  0  0  0  0  0  0  0  0  0  0  0
    0.3057   -4.9299   43.2909 C   0  0  0  0  0  0  0  0  0  0  0  0
   11.5916   -1.4291   46.7436 C   0  0  0  0  0  0  0  0  0  0  0  0
   10.5566   -2.3672   44.8649 O   0  0  0  0  0  0  0  0  0  0  0  0
   12.8421   -1.9355   46.2823 C   0  0  0  0  0  0  0  0  0  0  0  0
   13.4833   -2.8582   46.9841 C   0  0  0  0  0  0  0  0  0  0  0  0
   11.4002   -1.1447   48.0540 C   0  0  0  0  0  0  0  0  0  0  0  0
   10.2867   -0.4569   48.4999 O   0  0  0  0  0  0  0  0  0  0  0  0
   12.3327   -1.4798   48.9564 C   0  0  0  0  0  0  0  0  0  0  0  0
   13.4481   -2.3350   48.4962 C   0  0  0  0  0  0  0  0  0  0  0  0
    3.0212    0.0746   42.0644 O   0  0  0  0  0  0  0  0  0  0  0  0
  1  2  2  0
  2  3  1  0
  2  4  1  0
  3  5  1  0
  4  6  2  0
  5  7  1  0
  4  8  1  0
  8  9  2  0
  8 10  1  0
  3 11  1  0
 10 11  2  0
  6 12  1  0
  7 13  2  0
 11 14  1  0
 13 15  1  0
  9 16  1  0
 17  7  1  6
 14 17  1  0
 14 18  2  0
 18 19  1  0
 15 20  2  0
 17 20  1  0
 12 21  1  0
 19 22  1  0
  9 23  1  0
 12 23  2  0
 21 24  1  0
 19 25  2  0
 20 25  1  0
 24 26  1  0
 24 27  2  0
 26 28  2  0
 28 29  1  0
 26 30  1  0
 30 31  1  0
 30 32  2  0
 29 33  2  0
 32 33  1  0
  5 34  2  0
M  END
$$$$
O14757_Pocket2Mol_idx-in-all-generaetd-908
     RDKit          3D

 39 44  0  0  0  0  0  0  0  0999 V2000
    1.5482   -0.3111   41.9233 C   0  0  0  0  0  0  0  0  0  0  0  0
    2.7284    0.2018   42.1525 N   0  0  0  0  0  0  0  0  0  0  0  0
    3.7893   -0.3016   42.7005 C   0  0  0  0  0  0  0  0  0  0  0  0
    3.3781   -1.7350   43.0000 C   0  0  0  0  0  0  0  0  0  0  0  0
    2.0339   -1.9619   42.6217 C   0  0  0  0  0  0  0  0  0  0  0  0
    4.1166   -2.4997   43.8458 C   0  0  0  0  0  0  0  0  0  0  0  0
    1.1731   -3.0051   42.5773 C   0  0  0  0  0  0  0  0  0  0  0  0
    0.4701   -3.2344   41.4901 C   0  0  0  0  0  0  0  0  0  0  0  0
    5.3799   -1.7814   44.2691 C   0  0  0  0  0  0  0  0  0  0  0  0
    5.0159   -0.0180   43.1201 N   0  0  0  0  0  0  0  0  0  0  0  0
    5.7693   -0.6937   43.8418 C   0  0  0  0  0  0  0  0  0  0  0  0
    0.8078   -3.6166   43.6782 C   0  0  0  0  0  0  0  0  0  0  0  0
    0.0663   -4.7011   43.7415 N   0  0  0  0  0  0  0  0  0  0  0  0
    6.2223   -2.6843   45.1565 C   0  0  0  0  0  0  0  0  0  0  0  0
    6.9599   -0.2351   44.2608 N   0  0  0  0  0  0  0  0  0  0  0  0
    5.9065   -3.9037   45.7499 N   0  0  0  0  0  0  0  0  0  0  0  0
   -0.5459   -5.1185   42.5870 C   0  0  0  0  0  0  0  0  0  0  0  0
    5.7480   -4.0340   46.9810 C   0  0  0  0  0  0  0  0  0  0  0  0
    7.4448   -1.8511   45.4198 C   0  0  0  0  0  0  0  0  0  0  0  0
    7.7572   -0.7827   45.0128 C   0  0  0  0  0  0  0  0  0  0  0  0
    8.4076   -2.7217   46.4541 C   0  0  0  0  0  0  0  0  0  0  0  0
    9.3167   -2.0988   47.1049 N   0  0  0  0  0  0  0  0  0  0  0  0
   -0.4719   -4.3893   41.5406 C   0  0  0  0  0  0  0  0  0  0  0  0
    8.3667   -4.0284   46.5743 N   0  0  0  0  0  0  0  0  0  0  0  0
   10.1532   -2.5726   47.9567 C   0  0  0  0  0  0  0  0  0  0  0  0
   11.0726   -1.7892   48.6998 C   0  0  0  0  0  0  0  0  0  0  0  0
   10.4886   -0.9372   49.4584 C   0  0  0  0  0  0  0  0  0  0  0  0
   10.2139   -3.8947   48.0407 C   0  0  0  0  0  0  0  0  0  0  0  0
    6.6188   -4.9855   47.3969 N   0  0  0  0  0  0  0  0  0  0  0  0
    5.1401   -3.1961   47.7242 O   0  0  0  0  0  0  0  0  0  0  0  0
    9.2230   -4.6492   47.2923 C   0  0  0  0  0  0  0  0  0  0  0  0
   12.4306   -1.6942   48.6002 C   0  0  0  0  0  0  0  0  0  0  0  0
   13.1277   -2.5738   47.4657 C   0  0  0  0  0  0  0  0  0  0  0  0
   12.9867   -0.9385   49.4619 C   0  0  0  0  0  0  0  0  0  0  0  0
   11.2810   -0.4278   50.4234 C   0  0  0  0  0  0  0  0  0  0  0  0
   13.6839   -3.5940   47.7637 O   0  0  0  0  0  0  0  0  0  0  0  0
   12.8318   -2.3909   46.2267 O   0  0  0  0  0  0  0  0  0  0  0  0
   14.6016   -0.9372   49.2971 O   0  0  0  0  0  0  0  0  0  0  0  0
   12.6524   -0.3216   50.3569 C   0  0  0  0  0  0  0  0  0  0  0  0
  1  2  1  0
  2  3  2  0
  3  4  1  0
  1  5  2  0
  4  5  1  0
  4  6  2  0
  5  7  1  0
  7  8  2  0
  6  9  1  0
  3 10  1  0
  9 11  2  0
 10 11  1  0
  7 12  1  0
 12 13  2  0
  9 14  1  0
 11 15  1  0
 14 16  1  0
 13 17  1  0
 16 18  1  0
 14 19  2  0
 15 20  2  0
 19 20  1  0
 19 21  1  0
 21 22  2  0
  8 23  1  0
 17 23  2  0
 21 24  1  0
 22 25  1  0
 25 26  1  0
 26 27  2  0
 25 28  2  0
 18 29  1  0
 18 30  2  0
 24 31  2  0
 28 31  1  0
 26 32  1  0
 32 33  1  0
 32 34  2  0
 27 35  1  0
 33 36  1  0
 33 37  2  0
 34 38  1  0
 34 39  1  0
 35 39  2  0
M  END
$$$$
O14757_Pocket2Mol_idx-in-all-generaetd-909
     RDKit          3D

 35 42  0  0  0  0  0  0  0  0999 V2000
    4.8173    0.2791   42.6993 N   0  0  0  0  0  0  0  0  0  0  0  0
    5.3297   -0.7477   43.3688 C   0  0  0  0  0  0  0  0  0  0  0  0
    3.4732   -0.2235   42.4530 C   0  0  0  0  0  0  0  0  0  0  0  0
    4.4984   -1.7876   43.6214 C   0  0  0  0  0  0  0  0  0  0  0  0
    3.3438   -1.5190   42.9379 C   0  0  0  0  0  0  0  0  0  0  0  0
    2.1381   -2.3401   42.8254 C   0  0  0  0  0  0  0  0  0  0  0  0
    2.3894    0.3572   41.9843 N   0  0  0  0  0  0  0  0  0  0  0  0
    4.9180   -3.0430   44.3829 C   0  0  0  0  0  0  0  0  0  0  0  0
    5.9444   -2.9314   45.3934 C   0  0  0  0  0  0  0  0  0  0  0  0
    4.2808   -4.1329   44.3252 C   0  0  0  0  0  0  0  0  0  0  0  0
    3.1588   -4.4221   43.4852 O   0  0  0  0  0  0  0  0  0  0  0  0
    4.5704   -5.2518   45.1995 C   0  0  0  0  0  0  0  0  0  0  0  0
    1.9853   -3.6792   43.3495 C   0  0  0  0  0  0  0  0  0  0  0  0
    0.9181   -4.3294   43.4638 C   0  0  0  0  0  0  0  0  0  0  0  0
    6.7403   -1.6226   45.5272 C   0  0  2  0  0  0  0  0  0  0  0  0
    0.9752   -1.7845   42.3366 C   0  0  0  0  0  0  0  0  0  0  0  0
    6.2516   -3.7287   46.2722 C   0  0  0  0  0  0  0  0  0  0  0  0
   -0.2404   -2.4179   42.2529 C   0  0  0  0  0  0  0  0  0  0  0  0
   -1.3835   -1.8904   41.6559 N   0  0  0  0  0  0  0  0  0  0  0  0
    3.8706   -6.4216   45.1394 O   0  0  0  0  0  0  0  0  0  0  0  0
    0.9456   -0.2789   41.7649 C   0  0  0  0  0  0  0  0  0  0  0  0
   -0.2678   -3.6969   42.7575 C   0  0  0  0  0  0  0  0  0  0  0  0
    6.3913   -0.7000   44.3807 N   0  0  0  0  0  0  0  0  0  0  0  0
    7.9391   -1.5867   46.0069 C   0  0  0  0  0  0  0  0  0  0  0  0
    8.7787   -0.4879   45.9761 O   0  0  0  0  0  0  0  0  0  0  0  0
    5.3853   -5.1216   46.3780 C   0  0  0  0  0  0  0  0  0  0  0  0
    8.4504   -2.7517   46.6262 N   0  0  0  0  0  0  0  0  0  0  0  0
    7.4807   -3.7374   47.0380 C   0  0  0  0  0  0  0  0  0  0  0  0
    9.7261   -2.6138   47.3732 C   0  0  1  0  0  0  0  0  0  0  0  0
    9.9606   -3.7577   48.0581 C   0  0  0  0  0  0  0  0  0  0  0  0
   10.7578   -2.0043   46.5264 C   0  0  0  0  0  0  0  0  0  0  0  0
   11.9850   -3.0056   46.5896 C   0  0  2  0  0  0  0  0  0  0  0  0
   11.5515   -3.8927   47.7117 C   0  0  0  0  0  0  0  0  0  0  0  0
   13.1838   -2.3109   46.9517 C   0  0  0  0  0  0  0  0  0  0  0  0
   12.0835   -3.8382   45.3649 O   0  0  0  0  0  0  0  0  0  0  0  0
  1  2  2  0
  1  3  1  0
  2  4  1  0
  3  5  1  0
  4  5  2  0
  5  6  1  0
  3  7  2  0
  4  8  1  0
  8  9  1  0
  8 10  2  0
 10 11  1  0
 10 12  1  0
  6 13  1  0
 11 13  1  0
 13 14  2  0
  9 15  1  0
  6 16  2  0
  9 17  2  0
 16 18  1  0
 18 19  1  0
 12 20  1  0
  7 21  1  0
 16 21  1  0
 14 22  1  0
 18 22  2  0
  2 23  1  0
 15 23  1  6
 15 24  1  0
 24 25  2  0
 12 26  2  0
 17 26  1  0
 24 27  1  0
 17 28  1  0
 27 28  1  0
 29 27  1  6
 29 30  1  0
 29 31  1  0
 31 32  1  0
 30 33  1  0
 32 33  1  0
 32 34  1  1
 32 35  1  0
M  END
$$$$
O14757_Pocket2Mol_idx-in-all-generaetd-910
     RDKit          3D

 47 55  0  0  0  0  0  0  0  0999 V2000
    1.5482   -0.3111   41.9233 C   0  0  0  0  0  0  0  0  0  0  0  0
    2.7284    0.2018   42.1525 N   0  0  0  0  0  0  0  0  0  0  0  0
    3.7893   -0.3016   42.7005 C   0  0  0  0  0  0  0  0  0  0  0  0
    3.3781   -1.7350   43.0000 C   0  0  0  0  0  0  0  0  0  0  0  0
    2.0339   -1.9619   42.6217 C   0  0  0  0  0  0  0  0  0  0  0  0
    5.0090    0.1219   42.9340 N   0  0  0  0  0  0  0  0  0  0  0  0
    4.2895   -2.4979   43.6707 C   0  0  0  0  0  0  0  0  0  0  0  0
    5.8391   -0.6675   43.6343 C   0  0  0  0  0  0  0  0  0  0  0  0
    6.9849   -0.2377   44.0028 N   0  0  0  0  0  0  0  0  0  0  0  0
    4.0426   -3.8794   44.0832 C   0  0  0  0  0  0  0  0  0  0  0  0
    7.6796   -0.8734   44.9326 C   0  0  0  0  0  0  0  0  0  0  0  0
    1.1064   -2.9576   42.4211 C   0  0  0  0  0  0  0  0  0  0  0  0
    5.5298   -1.9496   44.0315 C   0  0  0  0  0  0  0  0  0  0  0  0
    3.8954   -4.1817   45.4718 C   0  0  0  0  0  0  0  0  0  0  0  0
    0.6765   -3.5480   43.4006 C   0  0  1  0  0  0  0  0  0  0  0  0
    0.5804   -3.2191   41.1635 C   0  0  0  0  0  0  0  0  0  0  0  0
    2.8083   -4.8227   45.9203 N   0  0  0  0  0  0  0  0  0  0  0  0
   -0.1574   -4.5754   42.9329 N   0  0  0  0  0  0  0  0  0  0  0  0
    6.5271   -2.5531   44.9677 C   0  0  0  0  0  0  0  0  0  0  0  0
   -0.2272   -4.3703   41.5137 C   0  0  0  0  0  0  0  0  0  0  0  0
    7.5095   -2.0029   45.3993 C   0  0  0  0  0  0  0  0  0  0  0  0
    8.2550   -2.6982   46.3988 C   0  0  0  0  0  0  0  0  0  0  0  0
    8.8975   -0.3029   45.3267 O   0  0  0  0  0  0  0  0  0  0  0  0
    4.8299   -4.4637   46.4212 C   0  0  0  0  0  0  0  0  0  0  0  0
    4.2707   -4.9248   47.6295 N   0  0  0  0  0  0  0  0  0  0  0  0
    3.2045   -5.2092   47.1521 C   0  0  0  0  0  0  0  0  0  0  0  0
    1.4482   -4.6186   45.4134 C   0  0  1  0  0  0  0  0  0  0  0  0
    1.2398   -3.5043   44.6236 O   0  0  0  0  0  0  0  0  0  0  0  0
    7.8521   -3.9584   46.8773 C   0  0  0  0  0  0  0  0  0  0  0  0
    8.4079   -4.7553   47.7407 C   0  0  0  0  0  0  0  0  0  0  0  0
    5.9516   -3.8110   45.9146 C   0  0  0  0  0  0  0  0  0  0  0  0
    6.6436   -4.3892   46.6649 C   0  0  0  0  0  0  0  0  0  0  0  0
    9.5111   -5.5246   47.2994 O   0  0  0  0  0  0  0  0  0  0  0  0
   10.6238   -5.0197   46.8534 C   0  0  0  0  0  0  0  0  0  0  0  0
   11.5866   -4.7361   47.6189 C   0  0  0  0  0  0  0  0  0  0  0  0
    1.2153   -5.7944   44.5753 C   0  0  0  0  0  0  0  0  0  0  0  0
   10.7023   -4.6532   45.4361 C   0  0  0  0  0  0  0  0  0  0  0  0
   11.7209   -4.2457   45.0565 C   0  0  0  0  0  0  0  0  0  0  0  0
   11.5467   -4.9832   49.1186 O   0  0  0  0  0  0  0  0  0  0  0  0
   12.3505   -5.8268   49.5929 C   0  0  0  0  0  0  0  0  0  0  0  0
   12.8150   -3.9071   45.8420 C   0  0  0  0  0  0  0  0  0  0  0  0
   12.7609   -4.0921   47.1778 C   0  0  0  0  0  0  0  0  0  0  0  0
   14.1653   -3.1593   45.3623 C   0  0  0  0  0  0  0  0  0  0  0  0
   15.3006   -3.6132   45.6495 O   0  0  0  0  0  0  0  0  0  0  0  0
   14.0008   -2.1501   44.5212 N   0  0  0  0  0  0  0  0  0  0  0  0
   12.7674   -1.5454   44.2581 C   0  0  0  0  0  0  0  0  0  0  0  0
   15.1718   -1.7603   43.8158 C   0  0  0  0  0  0  0  0  0  0  0  0
  1  2  1  0
  2  3  2  0
  3  4  1  0
  1  5  2  0
  4  5  1  0
  3  6  1  0
  4  7  2  0
  6  8  1  0
  8  9  1  0
  7 10  1  0
  9 11  1  0
  5 12  1  0
  7 13  1  0
  8 13  2  0
 10 14  1  0
 12 15  1  0
 12 16  2  0
 14 17  1  0
 15 18  1  0
 13 19  1  0
 16 20  1  0
 18 20  2  0
 11 21  1  0
 19 21  2  0
 21 22  1  0
 11 23  2  0
 14 24  2  0
 24 25  1  0
 17 26  1  0
 25 26  2  0
 17 27  1  0
 15 28  1  6
 27 28  1  0
 22 29  2  0
 29 30  1  0
 19 31  1  0
 24 31  1  0
 29 32  1  0
 31 32  2  0
 30 33  1  0
 33 34  1  0
 34 35  2  0
 27 36  1  6
 34 37  1  0
 37 38  2  0
 35 39  1  0
 39 40  1  0
 38 41  1  0
 35 42  1  0
 41 42  2  0
 41 43  1  0
 43 44  2  0
 43 45  1  0
 45 46  1  0
 45 47  1  0
M  END
$$$$
O14757_Pocket2Mol_idx-in-all-generaetd-911
     RDKit          3D

 32 37  0  0  0  0  0  0  0  0999 V2000
    5.3420    0.2589   42.8836 N   0  0  0  0  0  0  0  0  0  0  0  0
    5.6740   -0.8311   43.5645 C   0  0  0  0  0  0  0  0  0  0  0  0
    6.8416   -0.9240   44.3627 N   0  0  0  0  0  0  0  0  0  0  0  0
    4.1141    0.2821   42.2689 C   0  0  0  0  0  0  0  0  0  0  0  0
    3.2237   -0.7484   42.3921 N   0  0  0  0  0  0  0  0  0  0  0  0
    6.8097   -1.9585   45.3182 C   0  0  0  0  0  0  0  0  0  0  0  0
    3.5007   -1.8060   43.1511 C   0  0  0  0  0  0  0  0  0  0  0  0
    4.7020   -1.8573   43.8328 C   0  0  0  0  0  0  0  0  0  0  0  0
    5.4887   -2.6670   44.9856 C   0  0  0  0  0  0  0  0  0  0  0  0
    2.5208   -2.8458   43.2671 C   0  0  0  0  0  0  0  0  0  0  0  0
    2.6558   -3.8570   44.2541 C   0  0  0  0  0  0  0  0  0  0  0  0
    7.6468   -2.3589   46.2854 C   0  0  0  0  0  0  0  0  0  0  0  0
    3.8579   -4.1296   44.9532 N   0  0  0  0  0  0  0  0  0  0  0  0
    1.3096   -2.7520   42.6410 C   0  0  0  0  0  0  0  0  0  0  0  0
    4.9776   -3.8402   45.4939 C   0  0  0  0  0  0  0  0  0  0  0  0
    8.7023   -1.6088   46.4743 C   0  0  0  0  0  0  0  0  0  0  0  0
    9.5984   -1.8433   47.5139 C   0  0  0  0  0  0  0  0  0  0  0  0
    7.3782   -3.4221   47.2077 C   0  0  0  0  0  0  0  0  0  0  0  0
    1.5977   -4.7338   44.4801 C   0  0  0  0  0  0  0  0  0  0  0  0
    1.0668   -1.7644   41.4981 C   0  0  0  0  0  0  0  0  0  0  0  0
   10.8175   -0.9959   47.6882 O   0  0  0  0  0  0  0  0  0  0  0  0
   11.6053   -1.2371   48.6095 C   0  0  0  0  0  0  0  0  0  0  0  0
    0.3244   -3.6976   42.8655 C   0  0  0  0  0  0  0  0  0  0  0  0
   -0.8593   -3.6685   42.0130 N   0  0  0  0  0  0  0  0  0  0  0  0
    1.8517   -5.8131   45.4828 O   0  0  0  0  0  0  0  0  0  0  0  0
    0.4775   -4.6810   43.7729 C   0  0  0  0  0  0  0  0  0  0  0  0
    0.8739   -6.6382   45.6662 C   0  0  0  0  0  0  0  0  0  0  0  0
    8.2852   -3.7091   48.2304 C   0  0  0  0  0  0  0  0  0  0  0  0
    9.4354   -2.9083   48.3670 C   0  0  0  0  0  0  0  0  0  0  0  0
   -1.0943   -2.6013   41.2543 C   0  0  0  0  0  0  0  0  0  0  0  0
    0.0102   -1.5816   41.1147 C   0  0  0  0  0  0  0  0  0  0  0  0
   -2.2177   -2.4920   40.7223 O   0  0  0  0  0  0  0  0  0  0  0  0
  1  2  2  0
  2  3  1  0
  1  4  1  0
  4  5  2  0
  3  6  1  0
  5  7  1  0
  2  8  1  0
  7  8  2  0
  6  9  2  0
  8  9  1  0
  7 10  1  0
 10 11  2  0
  6 12  1  0
 11 13  1  0
 10 14  1  0
  9 15  1  0
 13 15  1  0
 12 16  2  0
 16 17  1  0
 12 18  1  0
 11 19  1  0
 14 20  1  0
 17 21  1  0
 21 22  1  0
 14 23  2  0
 23 24  1  0
 19 25  1  0
 19 26  2  0
 23 26  1  0
 25 27  1  0
 18 28  2  0
 17 29  2  0
 28 29  1  0
 24 30  1  0
 20 31  1  0
 30 31  1  0
 30 32  2  0
M  END
$$$$
O14757_Pocket2Mol_idx-in-all-generaetd-912
     RDKit          3D

 35 41  0  0  0  0  0  0  0  0999 V2000
    4.8037   -0.1366   42.7100 N   0  0  0  0  0  0  0  0  0  0  0  0
    3.6577   -0.7759   42.7186 C   0  0  0  0  0  0  0  0  0  0  0  0
    3.6660   -1.8665   43.4760 C   0  0  0  0  0  0  0  0  0  0  0  0
    2.7271   -2.8718   43.6599 C   0  0  0  0  0  0  0  0  0  0  0  0
    2.4846   -0.2994   42.1254 N   0  0  0  0  0  0  0  0  0  0  0  0
    5.0524   -1.7697   43.9367 C   0  0  0  0  0  0  0  0  0  0  0  0
    1.4917   -2.9000   43.0914 C   0  0  0  0  0  0  0  0  0  0  0  0
    3.1274   -3.9503   44.5163 C   0  0  0  0  0  0  0  0  0  0  0  0
    1.0744   -1.9066   42.1491 C   0  0  2  0  0  0  0  0  0  0  0  0
    5.6624   -0.7003   43.4895 C   0  0  0  0  0  0  0  0  0  0  0  0
    5.5753   -2.5784   45.0324 C   0  0  0  0  0  0  0  0  0  0  0  0
    0.4030   -3.6297   43.4883 N   0  0  0  0  0  0  0  0  0  0  0  0
    1.5052   -0.8077   41.7519 C   0  0  0  0  0  0  0  0  0  0  0  0
   -0.5645   -3.4039   42.5585 N   0  0  0  0  0  0  0  0  0  0  0  0
    2.5059   -5.1012   44.7935 C   0  0  0  0  0  0  0  0  0  0  0  0
    4.4581   -3.8218   45.2947 C   0  0  0  0  0  0  0  0  0  0  0  0
   -0.3089   -2.3979   41.8128 C   0  0  0  0  0  0  0  0  0  0  0  0
    6.6435   -2.6577   45.6991 C   0  0  0  0  0  0  0  0  0  0  0  0
    7.0869   -3.7008   46.4717 C   0  0  0  0  0  0  0  0  0  0  0  0
    7.5912   -1.5296   45.5455 C   0  0  0  0  0  0  0  0  0  0  0  0
    8.7765   -1.4352   46.2248 C   0  0  0  0  0  0  0  0  0  0  0  0
    6.3069   -4.7944   46.6836 O   0  0  0  0  0  0  0  0  0  0  0  0
    4.8984   -4.5252   46.1302 C   0  0  0  0  0  0  0  0  0  0  0  0
    4.2122   -5.9932   46.2216 C   0  0  0  0  0  0  0  0  0  0  0  0
    3.0046   -6.0549   45.6421 C   0  0  0  0  0  0  0  0  0  0  0  0
    9.1783   -2.6075   47.0889 C   0  0  0  0  0  0  0  0  0  0  0  0
    8.3687   -3.7625   47.2781 C   0  0  0  0  0  0  0  0  0  0  0  0
   10.6110   -2.5273   47.8646 C   0  0  1  0  0  0  0  0  0  0  0  0
   11.6197   -2.4013   47.0402 N   0  0  0  0  0  0  0  0  0  0  0  0
   10.4964   -1.4258   48.7800 C   0  0  0  0  0  0  0  0  0  0  0  0
   11.6372   -1.6171   49.7492 O   0  0  0  0  0  0  0  0  0  0  0  0
   11.9631   -3.3989   46.1282 C   0  0  0  0  0  0  0  0  0  0  0  0
   13.0771   -2.9831   45.3093 N   0  0  0  0  0  0  0  0  0  0  0  0
   11.2960   -4.3423   45.8643 O   0  0  0  0  0  0  0  0  0  0  0  0
   13.2761   -1.7274   44.9581 C   0  0  0  0  0  0  0  0  0  0  0  0
  1  2  2  0
  2  3  1  0
  3  4  2  0
  2  5  1  0
  3  6  1  0
  4  7  1  0
  4  8  1  0
  7  9  1  0
  1 10  1  0
  6 10  1  0
  6 11  2  0
  7 12  2  0
  5 13  2  0
  9 13  1  1
 12 14  1  0
  8 15  2  0
  8 16  1  0
 11 16  1  0
  9 17  1  0
 14 17  2  0
 11 18  1  0
 18 19  2  0
 18 20  1  0
 20 21  2  0
 19 22  1  0
 16 23  2  0
 22 23  1  0
 23 24  1  0
 15 25  1  0
 24 25  2  0
 21 26  1  0
 19 27  1  0
 26 27  2  0
 26 28  1  0
 28 29  1  0
 28 30  1  1
 30 31  1  0
 29 32  1  0
 32 33  1  0
 32 34  2  0
 33 35  1  0
M  END
$$$$
O14757_Pocket2Mol_idx-in-all-generaetd-913
     RDKit          3D

 39 45  0  0  0  0  0  0  0  0999 V2000
    1.5482   -0.3111   41.9233 C   0  0  0  0  0  0  0  0  0  0  0  0
    2.7284    0.2018   42.1525 N   0  0  0  0  0  0  0  0  0  0  0  0
    3.7893   -0.3016   42.7005 C   0  0  0  0  0  0  0  0  0  0  0  0
    3.3781   -1.7350   43.0000 C   0  0  0  0  0  0  0  0  0  0  0  0
    2.0339   -1.9619   42.6217 C   0  0  0  0  0  0  0  0  0  0  0  0
    4.1166   -2.4997   43.8458 C   0  0  0  0  0  0  0  0  0  0  0  0
    1.1731   -3.0051   42.5773 C   0  0  0  0  0  0  0  0  0  0  0  0
    0.4701   -3.2344   41.4901 C   0  0  0  0  0  0  0  0  0  0  0  0
    5.3799   -1.7814   44.2691 C   0  0  0  0  0  0  0  0  0  0  0  0
    5.0159   -0.0180   43.1201 N   0  0  0  0  0  0  0  0  0  0  0  0
    5.7693   -0.6937   43.8418 C   0  0  0  0  0  0  0  0  0  0  0  0
    0.8078   -3.6166   43.6782 C   0  0  0  0  0  0  0  0  0  0  0  0
    0.0663   -4.7011   43.7415 N   0  0  0  0  0  0  0  0  0  0  0  0
    6.2223   -2.6843   45.1565 C   0  0  0  0  0  0  0  0  0  0  0  0
    6.9599   -0.2351   44.2608 N   0  0  0  0  0  0  0  0  0  0  0  0
    5.9065   -3.9037   45.7499 N   0  0  0  0  0  0  0  0  0  0  0  0
   -0.5459   -5.1185   42.5870 C   0  0  0  0  0  0  0  0  0  0  0  0
    5.7480   -4.0340   46.9810 C   0  0  0  0  0  0  0  0  0  0  0  0
    7.4448   -1.8511   45.4198 C   0  0  0  0  0  0  0  0  0  0  0  0
    7.7572   -0.7827   45.0128 C   0  0  0  0  0  0  0  0  0  0  0  0
    8.4076   -2.7217   46.4541 C   0  0  0  0  0  0  0  0  0  0  0  0
    9.3167   -2.0988   47.1049 N   0  0  0  0  0  0  0  0  0  0  0  0
   -0.4719   -4.3893   41.5406 C   0  0  0  0  0  0  0  0  0  0  0  0
    8.3667   -4.0284   46.5743 N   0  0  0  0  0  0  0  0  0  0  0  0
    9.5309   -4.3147   47.3094 C   0  0  0  0  0  0  0  0  0  0  0  0
    5.3113   -3.3789   47.8005 O   0  0  0  0  0  0  0  0  0  0  0  0
    9.9022   -5.6301   47.7684 C   0  0  0  0  0  0  0  0  0  0  0  0
    5.4470   -5.5868   47.2096 C   0  0  0  0  0  0  0  0  0  0  0  0
   11.2254   -5.8679   48.0402 C   0  0  0  0  0  0  0  0  0  0  0  0
    8.9736   -6.6532   47.8548 C   0  0  0  0  0  0  0  0  0  0  0  0
   10.0616   -3.0670   47.6360 C   0  0  0  0  0  0  0  0  0  0  0  0
    9.2755   -7.8884   48.2076 C   0  0  0  0  0  0  0  0  0  0  0  0
   12.3151   -4.8393   47.9221 O   0  0  0  0  0  0  0  0  0  0  0  0
    8.2519   -8.9331   48.3446 C   0  0  0  0  0  0  0  0  0  0  0  0
   10.5780   -8.0935   48.4113 C   0  0  0  0  0  0  0  0  0  0  0  0
   11.7297   -7.1780   48.3936 C   0  0  0  0  0  0  0  0  0  0  0  0
    7.1530   -8.7018   47.6605 N   0  0  0  0  0  0  0  0  0  0  0  0
    6.0996   -8.0884   48.4337 C   0  0  0  0  0  0  0  0  0  0  0  0
    5.9998   -6.2369   48.3737 C   0  0  0  0  0  0  0  0  0  0  0  0
  1  2  1  0
  2  3  2  0
  3  4  1  0
  1  5  2  0
  4  5  1  0
  4  6  2  0
  5  7  1  0
  7  8  2  0
  6  9  1  0
  3 10  1  0
  9 11  2  0
 10 11  1  0
  7 12  1  0
 12 13  2  0
  9 14  1  0
 11 15  1  0
 14 16  1  0
 13 17  1  0
 16 18  1  0
 14 19  2  0
 15 20  2  0
 19 20  1  0
 19 21  1  0
 21 22  2  0
  8 23  1  0
 17 23  2  0
 21 24  1  0
 24 25  1  0
 18 26  2  0
 25 27  1  0
 18 28  1  0
 27 29  2  0
 27 30  1  0
 22 31  1  0
 25 31  2  0
 30 32  2  0
 29 33  1  0
 32 34  1  0
 32 35  1  0
 29 36  1  0
 35 36  2  0
 34 37  1  0
 37 38  1  0
 28 39  2  3
 38 39  1  0
M  END
$$$$
O14757_Pocket2Mol_idx-in-all-generaetd-914
     RDKit          3D

 39 44  0  0  0  0  0  0  0  0999 V2000
    1.5482   -0.3111   41.9233 C   0  0  0  0  0  0  0  0  0  0  0  0
    2.7284    0.2018   42.1525 N   0  0  0  0  0  0  0  0  0  0  0  0
    3.7893   -0.3016   42.7005 C   0  0  0  0  0  0  0  0  0  0  0  0
    3.3781   -1.7350   43.0000 C   0  0  0  0  0  0  0  0  0  0  0  0
    2.0339   -1.9619   42.6217 C   0  0  0  0  0  0  0  0  0  0  0  0
    4.1166   -2.4997   43.8458 C   0  0  0  0  0  0  0  0  0  0  0  0
    1.1731   -3.0051   42.5773 C   0  0  0  0  0  0  0  0  0  0  0  0
    0.4701   -3.2344   41.4901 C   0  0  0  0  0  0  0  0  0  0  0  0
    5.3799   -1.7814   44.2691 C   0  0  0  0  0  0  0  0  0  0  0  0
    5.0159   -0.0180   43.1201 N   0  0  0  0  0  0  0  0  0  0  0  0
    5.7693   -0.6937   43.8418 C   0  0  0  0  0  0  0  0  0  0  0  0
    0.8078   -3.6166   43.6782 C   0  0  0  0  0  0  0  0  0  0  0  0
    0.0663   -4.7011   43.7415 N   0  0  0  0  0  0  0  0  0  0  0  0
    6.2223   -2.6843   45.1565 C   0  0  0  0  0  0  0  0  0  0  0  0
    6.9599   -0.2351   44.2608 N   0  0  0  0  0  0  0  0  0  0  0  0
    5.9065   -3.9037   45.7499 N   0  0  0  0  0  0  0  0  0  0  0  0
   -0.5459   -5.1185   42.5870 C   0  0  0  0  0  0  0  0  0  0  0  0
    5.7480   -4.0340   46.9810 C   0  0  0  0  0  0  0  0  0  0  0  0
    7.4448   -1.8511   45.4198 C   0  0  0  0  0  0  0  0  0  0  0  0
    7.7572   -0.7827   45.0128 C   0  0  0  0  0  0  0  0  0  0  0  0
    8.4076   -2.7217   46.4541 C   0  0  0  0  0  0  0  0  0  0  0  0
    9.3167   -2.0988   47.1049 N   0  0  0  0  0  0  0  0  0  0  0  0
   -0.4719   -4.3893   41.5406 C   0  0  0  0  0  0  0  0  0  0  0  0
    8.3667   -4.0284   46.5743 N   0  0  0  0  0  0  0  0  0  0  0  0
    9.5309   -4.3147   47.3094 C   0  0  0  0  0  0  0  0  0  0  0  0
    5.3113   -3.3789   47.8005 O   0  0  0  0  0  0  0  0  0  0  0  0
    9.9022   -5.6301   47.7684 C   0  0  0  0  0  0  0  0  0  0  0  0
    5.4470   -5.5868   47.2096 C   0  0  0  0  0  0  0  0  0  0  0  0
   11.2254   -5.8679   48.0402 C   0  0  0  0  0  0  0  0  0  0  0  0
    8.9736   -6.6532   47.8548 C   0  0  0  0  0  0  0  0  0  0  0  0
   10.0616   -3.0670   47.6360 C   0  0  0  0  0  0  0  0  0  0  0  0
    9.2755   -7.8884   48.2076 C   0  0  0  0  0  0  0  0  0  0  0  0
   12.3151   -4.8393   47.9221 O   0  0  0  0  0  0  0  0  0  0  0  0
    8.2519   -8.9331   48.3446 C   0  0  0  0  0  0  0  0  0  0  0  0
    7.7918   -9.2569   47.1381 O   0  0  0  0  0  0  0  0  0  0  0  0
   13.1704   -5.0912   47.0420 C   0  0  0  0  0  0  0  0  0  0  0  0
   10.6143   -8.1262   48.5925 C   0  0  0  0  0  0  0  0  0  0  0  0
   11.0366   -9.4382   49.0572 O   0  0  0  0  0  0  0  0  0  0  0  0
   11.6940   -7.1282   48.5233 C   0  0  0  0  0  0  0  0  0  0  0  0
  1  2  1  0
  2  3  2  0
  3  4  1  0
  1  5  2  0
  4  5  1  0
  4  6  2  0
  5  7  1  0
  7  8  2  0
  6  9  1  0
  3 10  1  0
  9 11  2  0
 10 11  1  0
  7 12  1  0
 12 13  2  0
  9 14  1  0
 11 15  1  0
 14 16  1  0
 13 17  1  0
 16 18  1  0
 14 19  2  0
 15 20  2  0
 19 20  1  0
 19 21  1  0
 21 22  2  0
  8 23  1  0
 17 23  2  0
 21 24  1  0
 24 25  1  0
 18 26  2  0
 25 27  1  0
 18 28  1  0
 27 29  2  0
 27 30  1  0
 22 31  1  0
 25 31  2  0
 30 32  2  0
 29 33  1  0
 32 34  1  0
 34 35  1  0
 33 36  1  0
 32 37  1  0
 37 38  1  0
 29 39  1  0
 37 39  2  0
M  END
$$$$
O14757_Pocket2Mol_idx-in-all-generaetd-915
     RDKit          3D

 37 44  0  0  0  0  0  0  0  0999 V2000
    4.8173    0.2791   42.6993 N   0  0  0  0  0  0  0  0  0  0  0  0
    5.3297   -0.7477   43.3688 C   0  0  0  0  0  0  0  0  0  0  0  0
    3.4732   -0.2235   42.4530 C   0  0  0  0  0  0  0  0  0  0  0  0
    4.4984   -1.7876   43.6214 C   0  0  0  0  0  0  0  0  0  0  0  0
    3.3438   -1.5190   42.9379 C   0  0  0  0  0  0  0  0  0  0  0  0
    2.1381   -2.3401   42.8254 C   0  0  0  0  0  0  0  0  0  0  0  0
    2.3894    0.3572   41.9843 N   0  0  0  0  0  0  0  0  0  0  0  0
    4.9180   -3.0430   44.3829 C   0  0  0  0  0  0  0  0  0  0  0  0
    5.9444   -2.9314   45.3934 C   0  0  0  0  0  0  0  0  0  0  0  0
    4.2808   -4.1329   44.3252 C   0  0  0  0  0  0  0  0  0  0  0  0
    3.1588   -4.4221   43.4852 O   0  0  0  0  0  0  0  0  0  0  0  0
    4.5704   -5.2518   45.1995 C   0  0  0  0  0  0  0  0  0  0  0  0
    1.9853   -3.6792   43.3495 C   0  0  0  0  0  0  0  0  0  0  0  0
    0.9181   -4.3294   43.4638 C   0  0  0  0  0  0  0  0  0  0  0  0
    6.7403   -1.6226   45.5272 C   0  0  0  0  0  0  0  0  0  0  0  0
    0.9752   -1.7845   42.3366 C   0  0  0  0  0  0  0  0  0  0  0  0
    5.5543   -5.1294   46.1078 C   0  0  0  0  0  0  0  0  0  0  0  0
    7.9772   -1.5901   46.1526 C   0  0  0  0  0  0  0  0  0  0  0  0
    8.6171   -2.7180   46.2255 N   0  0  0  0  0  0  0  0  0  0  0  0
    6.5160   -0.7262   44.3482 C   0  0  0  0  0  0  0  0  0  0  0  0
    5.8670   -6.1665   47.0241 O   0  0  0  0  0  0  0  0  0  0  0  0
   -0.2437   -2.4672   42.2827 C   0  0  0  0  0  0  0  0  0  0  0  0
   -0.2692   -3.7414   42.8178 C   0  0  0  0  0  0  0  0  0  0  0  0
    6.3047   -3.9815   46.2287 C   0  0  0  0  0  0  0  0  0  0  0  0
    8.0291   -3.5777   47.1715 C   0  0  0  0  0  0  0  0  0  0  0  0
    7.2074   -4.2766   47.0234 C   0  0  0  0  0  0  0  0  0  0  0  0
    1.1879   -0.4281   41.8692 C   0  0  0  0  0  0  0  0  0  0  0  0
   10.1009   -2.3306   46.5895 C   0  0  0  0  0  0  0  0  0  0  0  0
   10.5049   -1.2887   46.4663 O   0  0  0  0  0  0  0  0  0  0  0  0
   10.9104   -3.4150   47.1173 C   0  0  0  0  0  0  0  0  0  0  0  0
   11.1982   -4.4016   46.2515 C   0  0  0  0  0  0  0  0  0  0  0  0
   11.7101   -3.1924   48.2324 C   0  0  0  0  0  0  0  0  0  0  0  0
   12.5589   -4.2029   48.6532 C   0  0  0  0  0  0  0  0  0  0  0  0
   13.3013   -4.0735   49.9283 O   0  0  0  0  0  0  0  0  0  0  0  0
   12.1096   -5.3809   46.6342 C   0  0  0  0  0  0  0  0  0  0  0  0
   12.3252   -6.5249   45.8017 C   0  0  0  0  0  0  0  0  0  0  0  0
   12.8555   -5.3211   47.9166 C   0  0  0  0  0  0  0  0  0  0  0  0
  1  2  2  0
  1  3  1  0
  2  4  1  0
  3  5  1  0
  4  5  2  0
  5  6  1  0
  3  7  2  0
  4  8  1  0
  8  9  2  0
  8 10  1  0
 10 11  1  0
 10 12  2  0
  6 13  2  0
 11 13  1  0
 13 14  1  0
  9 15  1  0
  6 16  1  0
 12 17  1  0
 15 18  1  0
 18 19  1  0
  2 20  1  0
 15 20  2  0
 17 21  1  0
 16 22  2  0
 14 23  2  0
 22 23  1  0
  9 24  1  0
 17 24  2  0
 19 25  1  0
 24 26  1  0
 25 26  2  0
  7 27  1  0
 16 27  1  0
 19 28  1  0
 28 29  2  0
 28 30  1  0
 30 31  2  0
 30 32  1  0
 32 33  2  0
 33 34  1  0
 31 35  1  0
 35 36  1  0
 33 37  1  0
 35 37  2  0
M  END
$$$$
O14757_Pocket2Mol_idx-in-all-generaetd-916
     RDKit          3D

 41 47  0  0  0  0  0  0  0  0999 V2000
    1.5482   -0.3111   41.9233 C   0  0  0  0  0  0  0  0  0  0  0  0
    2.7284    0.2018   42.1525 N   0  0  0  0  0  0  0  0  0  0  0  0
    3.7893   -0.3016   42.7005 C   0  0  0  0  0  0  0  0  0  0  0  0
    3.3781   -1.7350   43.0000 C   0  0  0  0  0  0  0  0  0  0  0  0
    2.0339   -1.9619   42.6217 C   0  0  0  0  0  0  0  0  0  0  0  0
    4.1166   -2.4997   43.8458 C   0  0  0  0  0  0  0  0  0  0  0  0
    1.1731   -3.0051   42.5773 C   0  0  0  0  0  0  0  0  0  0  0  0
    0.4701   -3.2344   41.4901 C   0  0  0  0  0  0  0  0  0  0  0  0
    5.3799   -1.7814   44.2691 C   0  0  0  0  0  0  0  0  0  0  0  0
    5.0159   -0.0180   43.1201 N   0  0  0  0  0  0  0  0  0  0  0  0
    5.7693   -0.6937   43.8418 C   0  0  0  0  0  0  0  0  0  0  0  0
    0.8078   -3.6166   43.6782 C   0  0  0  0  0  0  0  0  0  0  0  0
    0.0663   -4.7011   43.7415 N   0  0  0  0  0  0  0  0  0  0  0  0
    6.2223   -2.6843   45.1565 C   0  0  0  0  0  0  0  0  0  0  0  0
    1.4459   -3.3095   45.0236 O   0  0  0  0  0  0  0  0  0  0  0  0
   -0.5278   -5.1074   42.5506 C   0  0  0  0  0  0  0  0  0  0  0  0
   -1.3099   -6.2193   42.5332 N   0  0  0  0  0  0  0  0  0  0  0  0
   -0.3906   -4.3573   41.3904 C   0  0  0  0  0  0  0  0  0  0  0  0
    7.0535   -0.4845   44.4478 N   0  0  0  0  0  0  0  0  0  0  0  0
    0.6210   -3.8397   46.1835 C   0  0  0  0  0  0  0  0  0  0  0  0
    6.2906   -3.7888   45.8815 C   0  0  0  0  0  0  0  0  0  0  0  0
    7.3965   -1.5466   45.3147 C   0  0  0  0  0  0  0  0  0  0  0  0
    5.1449   -4.4973   46.0473 O   0  0  0  0  0  0  0  0  0  0  0  0
    7.4148   -4.1081   46.6372 C   0  0  0  0  0  0  0  0  0  0  0  0
    8.5011   -3.1747   46.6693 C   0  0  0  0  0  0  0  0  0  0  0  0
    8.4580   -1.9168   46.0438 C   0  0  0  0  0  0  0  0  0  0  0  0
    9.8193   -3.4927   47.5654 C   0  0  1  0  0  0  0  0  0  0  0  0
    4.3482   -4.5667   47.1383 C   0  0  0  0  0  0  0  0  0  0  0  0
   10.8925   -3.4519   46.9633 C   0  0  0  0  0  0  0  0  0  0  0  0
   11.7691   -2.4393   47.2298 N   0  0  0  0  0  0  0  0  0  0  0  0
   11.5679   -1.6048   48.2682 C   0  0  0  0  0  0  0  0  0  0  0  0
   13.2337   -2.7224   46.9899 C   0  0  0  0  0  0  0  0  0  0  0  0
   11.1468   -4.1806   45.9346 O   0  0  0  0  0  0  0  0  0  0  0  0
   14.0674   -3.2434   47.7193 C   0  0  0  0  0  0  0  0  0  0  0  0
   13.7337   -3.8357   48.9955 C   0  0  0  0  0  0  0  0  0  0  0  0
   10.6978   -1.8484   49.2819 O   0  0  0  0  0  0  0  0  0  0  0  0
   15.4145   -3.0897   47.4674 C   0  0  0  0  0  0  0  0  0  0  0  0
    9.6185   -2.3722   48.7838 C   0  0  0  0  0  0  0  0  0  0  0  0
   13.6236   -2.2426   45.6742 C   0  0  0  0  0  0  0  0  0  0  0  0
   15.7314   -2.7029   46.4178 C   0  0  0  0  0  0  0  0  0  0  0  0
   14.9402   -2.2031   45.3657 C   0  0  0  0  0  0  0  0  0  0  0  0
  1  2  1  0
  2  3  2  0
  3  4  1  0
  1  5  2  0
  4  5  1  0
  4  6  2  0
  5  7  1  0
  7  8  2  0
  6  9  1  0
  3 10  1  0
  9 11  1  0
 10 11  1  0
  7 12  1  0
 12 13  2  0
  9 14  2  0
 12 15  1  0
 13 16  1  0
 16 17  1  0
  8 18  1  0
 16 18  2  0
 11 19  2  0
 15 20  1  0
 14 21  1  0
 14 22  1  0
 19 22  1  0
 21 23  1  0
 21 24  2  0
 24 25  1  0
 22 26  2  0
 25 26  2  0
 27 25  1  6
 23 28  1  0
 27 29  1  0
 29 30  1  0
 30 31  1  0
 30 32  1  0
 29 33  2  0
 32 34  2  0
 34 35  1  0
 31 36  1  0
 34 37  1  0
 27 38  1  0
 36 38  1  0
 32 39  1  0
 37 40  2  0
 39 41  2  0
 40 41  1  0
M  END
$$$$
O14757_Pocket2Mol_idx-in-all-generaetd-917
     RDKit          3D

 46 54  0  0  0  0  0  0  0  0999 V2000
    1.5482   -0.3111   41.9233 C   0  0  0  0  0  0  0  0  0  0  0  0
    2.7284    0.2018   42.1525 N   0  0  0  0  0  0  0  0  0  0  0  0
    3.7893   -0.3016   42.7005 C   0  0  0  0  0  0  0  0  0  0  0  0
    3.3781   -1.7350   43.0000 C   0  0  0  0  0  0  0  0  0  0  0  0
    2.0339   -1.9619   42.6217 C   0  0  0  0  0  0  0  0  0  0  0  0
    5.0090    0.1219   42.9340 N   0  0  0  0  0  0  0  0  0  0  0  0
    4.2895   -2.4979   43.6707 C   0  0  0  0  0  0  0  0  0  0  0  0
    5.8391   -0.6675   43.6343 C   0  0  0  0  0  0  0  0  0  0  0  0
    6.9849   -0.2377   44.0028 N   0  0  0  0  0  0  0  0  0  0  0  0
    4.0426   -3.8794   44.0832 C   0  0  0  0  0  0  0  0  0  0  0  0
    7.6796   -0.8734   44.9326 C   0  0  0  0  0  0  0  0  0  0  0  0
    1.1064   -2.9576   42.4211 C   0  0  0  0  0  0  0  0  0  0  0  0
    5.5298   -1.9496   44.0315 C   0  0  0  0  0  0  0  0  0  0  0  0
    3.8954   -4.1817   45.4718 C   0  0  0  0  0  0  0  0  0  0  0  0
    0.6765   -3.5480   43.4006 C   0  0  1  0  0  0  0  0  0  0  0  0
    0.5804   -3.2191   41.1635 C   0  0  0  0  0  0  0  0  0  0  0  0
    2.8083   -4.8227   45.9203 N   0  0  0  0  0  0  0  0  0  0  0  0
   -0.1574   -4.5754   42.9329 N   0  0  0  0  0  0  0  0  0  0  0  0
    6.5271   -2.5531   44.9677 C   0  0  0  0  0  0  0  0  0  0  0  0
   -0.2272   -4.3703   41.5137 C   0  0  0  0  0  0  0  0  0  0  0  0
    7.5095   -2.0029   45.3993 C   0  0  0  0  0  0  0  0  0  0  0  0
    8.2550   -2.6982   46.3988 C   0  0  1  0  0  0  0  0  0  0  0  0
    8.8975   -0.3029   45.3267 O   0  0  0  0  0  0  0  0  0  0  0  0
    4.8299   -4.4637   46.4212 C   0  0  0  0  0  0  0  0  0  0  0  0
    4.2707   -4.9248   47.6295 N   0  0  0  0  0  0  0  0  0  0  0  0
    3.2045   -5.2092   47.1521 C   0  0  0  0  0  0  0  0  0  0  0  0
    1.4482   -4.6186   45.4134 C   0  0  0  0  0  0  0  0  0  0  0  0
    1.3256   -3.7660   44.6394 N   0  0  0  0  0  0  0  0  0  0  0  0
    9.2816   -2.1418   47.1273 N   0  0  0  0  0  0  0  0  0  0  0  0
   10.0629   -3.1324   47.8508 C   0  0  0  0  0  0  0  0  0  0  0  0
    6.3491   -3.8960   46.0844 C   0  0  2  0  0  0  0  0  0  0  0  0
    7.4349   -3.5889   46.9054 C   0  0  0  0  0  0  0  0  0  0  0  0
   10.3145   -2.7271   49.0818 O   0  0  0  0  0  0  0  0  0  0  0  0
    0.6213   -5.4445   45.7455 O   0  0  0  0  0  0  0  0  0  0  0  0
   11.0262   -3.8136   47.1050 C   0  0  0  0  0  0  0  0  0  0  0  0
   12.1704   -3.3854   46.7547 C   0  0  0  0  0  0  0  0  0  0  0  0
   13.1080   -4.1111   46.0053 C   0  0  0  0  0  0  0  0  0  0  0  0
   14.3489   -3.5966   45.7888 C   0  0  0  0  0  0  0  0  0  0  0  0
   12.7430   -5.2725   45.5056 C   0  0  0  0  0  0  0  0  0  0  0  0
   14.6935   -2.2816   45.3353 C   0  0  0  0  0  0  0  0  0  0  0  0
   10.7905   -5.3371   46.8117 C   0  0  0  0  0  0  0  0  0  0  0  0
   15.8085   -1.9565   45.0154 O   0  0  0  0  0  0  0  0  0  0  0  0
   13.6262   -1.4997   45.2550 O   0  0  0  0  0  0  0  0  0  0  0  0
   13.6598   -5.9683   44.7490 F   0  0  0  0  0  0  0  0  0  0  0  0
   11.6289   -5.9181   45.9662 C   0  0  0  0  0  0  0  0  0  0  0  0
   13.9200   -0.2181   45.7351 C   0  0  0  0  0  0  0  0  0  0  0  0
  1  2  1  0
  2  3  2  0
  3  4  1  0
  1  5  2  0
  4  5  1  0
  3  6  1  0
  4  7  2  0
  6  8  1  0
  8  9  1  0
  7 10  1  0
  9 11  1  0
  5 12  1  0
  7 13  1  0
  8 13  2  0
 10 14  1  0
 12 15  1  0
 12 16  2  0
 14 17  1  0
 15 18  1  0
 13 19  1  0
 16 20  1  0
 18 20  2  0
 11 21  1  0
 19 21  2  0
 21 22  1  0
 11 23  2  0
 14 24  2  0
 24 25  1  0
 17 26  1  0
 25 26  2  0
 17 27  1  0
 15 28  1  6
 27 28  1  0
 22 29  1  1
 29 30  1  0
 19 31  1  0
 24 31  1  0
 22 32  1  0
 31 32  1  1
 30 33  2  0
 27 34  2  0
 30 35  1  0
 35 36  2  0
 36 37  1  0
 37 38  1  0
 37 39  2  0
 38 40  1  0
 35 41  1  0
 40 42  2  0
 40 43  1  0
 39 44  1  0
 39 45  1  0
 41 45  2  0
 43 46  1  0
M  END
$$$$
O14757_Pocket2Mol_idx-in-all-generaetd-918
     RDKit          3D

 23 26  0  0  0  0  0  0  0  0999 V2000
    4.5142    0.3543   42.7132 N   0  0  0  0  0  0  0  0  0  0  0  0
    3.5107   -0.4860   42.6298 C   0  0  0  0  0  0  0  0  0  0  0  0
    3.5891   -1.7637   43.2512 N   0  0  0  0  0  0  0  0  0  0  0  0
    5.5470   -0.0112   43.3539 C   0  0  0  0  0  0  0  0  0  0  0  0
    2.1469   -0.1899   41.9512 C   0  0  0  0  0  0  0  0  0  0  0  0
    4.6725   -2.0734   43.8606 C   0  0  0  0  0  0  0  0  0  0  0  0
    5.7749   -1.1829   43.9325 C   0  0  0  0  0  0  0  0  0  0  0  0
    4.7150   -3.3068   44.6440 C   0  0  0  0  0  0  0  0  0  0  0  0
    6.9086   -1.5797   44.6919 C   0  0  0  0  0  0  0  0  0  0  0  0
    3.5691   -4.2517   44.6407 C   0  0  1  0  0  0  0  0  0  0  0  0
    2.3573   -4.0060   44.5430 C   0  0  0  0  0  0  0  0  0  0  0  0
    1.4835   -4.9955   44.1660 C   0  0  0  0  0  0  0  0  0  0  0  0
    7.9331   -0.7866   44.9674 N   0  0  0  0  0  0  0  0  0  0  0  0
    8.9358   -1.1514   45.8896 C   0  0  0  0  0  0  0  0  0  0  0  0
    5.9000   -3.5626   45.4096 C   0  0  0  0  0  0  0  0  0  0  0  0
    6.9347   -2.6380   45.5367 C   0  0  0  0  0  0  0  0  0  0  0  0
    2.3698   -6.2911   44.3698 C   0  0  0  0  0  0  0  0  0  0  0  0
    7.9481   -2.9636   46.4122 C   0  0  0  0  0  0  0  0  0  0  0  0
    8.9555   -2.1771   46.5750 N   0  0  0  0  0  0  0  0  0  0  0  0
    3.7790   -5.6905   44.5260 C   0  0  0  0  0  0  0  0  0  0  0  0
    0.0548   -5.0555   43.9767 C   0  0  0  0  0  0  0  0  0  0  0  0
    7.9761   -4.2825   47.2580 N   0  0  0  0  0  0  0  0  0  0  0  0
   -0.1743   -5.2480   42.6821 O   0  0  0  0  0  0  0  0  0  0  0  0
  1  2  2  0
  2  3  1  0
  1  4  1  0
  2  5  1  0
  3  6  2  0
  4  7  2  0
  6  7  1  0
  6  8  1  0
  7  9  1  0
 10  8  1  6
 10 11  1  0
 11 12  2  0
  9 13  2  0
 13 14  1  0
  8 15  2  0
  9 16  1  0
 15 16  1  0
 12 17  1  0
 16 18  2  0
 14 19  2  0
 18 19  1  0
 10 20  1  0
 17 20  2  0
 12 21  1  0
 18 22  1  0
 21 23  1  0
M  END
$$$$
O14757_Pocket2Mol_idx-in-all-generaetd-919
     RDKit          3D

 42 48  0  0  0  0  0  0  0  0999 V2000
    1.5482   -0.3111   41.9233 C   0  0  0  0  0  0  0  0  0  0  0  0
    2.7284    0.2018   42.1525 N   0  0  0  0  0  0  0  0  0  0  0  0
    3.7893   -0.3016   42.7005 C   0  0  0  0  0  0  0  0  0  0  0  0
    3.3781   -1.7350   43.0000 C   0  0  0  0  0  0  0  0  0  0  0  0
    2.0339   -1.9619   42.6217 C   0  0  0  0  0  0  0  0  0  0  0  0
    4.1166   -2.4997   43.8458 C   0  0  0  0  0  0  0  0  0  0  0  0
    1.1731   -3.0051   42.5773 C   0  0  0  0  0  0  0  0  0  0  0  0
    0.4701   -3.2344   41.4901 C   0  0  0  0  0  0  0  0  0  0  0  0
    5.3799   -1.7814   44.2691 C   0  0  0  0  0  0  0  0  0  0  0  0
    5.0159   -0.0180   43.1201 N   0  0  0  0  0  0  0  0  0  0  0  0
    5.7693   -0.6937   43.8418 C   0  0  0  0  0  0  0  0  0  0  0  0
    0.8078   -3.6166   43.6782 C   0  0  0  0  0  0  0  0  0  0  0  0
    0.0663   -4.7011   43.7415 N   0  0  0  0  0  0  0  0  0  0  0  0
    6.2223   -2.6843   45.1565 C   0  0  0  0  0  0  0  0  0  0  0  0
    1.4459   -3.3095   45.0236 O   0  0  0  0  0  0  0  0  0  0  0  0
   -0.5278   -5.1074   42.5506 C   0  0  0  0  0  0  0  0  0  0  0  0
   -1.3099   -6.2193   42.5332 N   0  0  0  0  0  0  0  0  0  0  0  0
   -0.3906   -4.3573   41.3904 C   0  0  0  0  0  0  0  0  0  0  0  0
    7.0535   -0.4845   44.4478 N   0  0  0  0  0  0  0  0  0  0  0  0
    0.6210   -3.8397   46.1835 C   0  0  0  0  0  0  0  0  0  0  0  0
    6.2906   -3.7888   45.8815 C   0  0  0  0  0  0  0  0  0  0  0  0
    7.3965   -1.5466   45.3147 C   0  0  0  0  0  0  0  0  0  0  0  0
    5.1449   -4.4973   46.0473 O   0  0  0  0  0  0  0  0  0  0  0  0
    7.4148   -4.1081   46.6372 C   0  0  0  0  0  0  0  0  0  0  0  0
    8.5011   -3.1747   46.6693 C   0  0  0  0  0  0  0  0  0  0  0  0
    8.4580   -1.9168   46.0438 C   0  0  0  0  0  0  0  0  0  0  0  0
    9.8193   -3.4927   47.5654 C   0  0  1  0  0  0  0  0  0  0  0  0
    4.3482   -4.5667   47.1383 C   0  0  0  0  0  0  0  0  0  0  0  0
   10.8925   -3.4519   46.9633 C   0  0  0  0  0  0  0  0  0  0  0  0
   11.7691   -2.4393   47.2298 N   0  0  0  0  0  0  0  0  0  0  0  0
   11.5679   -1.6048   48.2682 C   0  0  0  0  0  0  0  0  0  0  0  0
   13.2337   -2.7224   46.9899 C   0  0  0  0  0  0  0  0  0  0  0  0
   11.1468   -4.1806   45.9346 O   0  0  0  0  0  0  0  0  0  0  0  0
   14.0674   -3.2434   47.7193 C   0  0  0  0  0  0  0  0  0  0  0  0
   13.7337   -3.8357   48.9955 C   0  0  0  0  0  0  0  0  0  0  0  0
   10.6978   -1.8484   49.2819 O   0  0  0  0  0  0  0  0  0  0  0  0
   15.4145   -3.0897   47.4674 C   0  0  0  0  0  0  0  0  0  0  0  0
    9.6472   -2.6784   48.9278 C   0  0  0  0  0  0  0  0  0  0  0  0
   13.6545   -2.0164   45.7227 C   0  0  0  0  0  0  0  0  0  0  0  0
   12.6948   -1.3647   44.7976 C   0  0  0  0  0  0  0  0  0  0  0  0
   14.9596   -2.0267   45.4040 C   0  0  0  0  0  0  0  0  0  0  0  0
   15.8720   -2.6334   46.2498 C   0  0  0  0  0  0  0  0  0  0  0  0
  1  2  1  0
  2  3  2  0
  3  4  1  0
  1  5  2  0
  4  5  1  0
  4  6  2  0
  5  7  1  0
  7  8  2  0
  6  9  1  0
  3 10  1  0
  9 11  1  0
 10 11  1  0
  7 12  1  0
 12 13  2  0
  9 14  2  0
 12 15  1  0
 13 16  1  0
 16 17  1  0
  8 18  1  0
 16 18  2  0
 11 19  2  0
 15 20  1  0
 14 21  1  0
 14 22  1  0
 19 22  1  0
 21 23  1  0
 21 24  2  0
 24 25  1  0
 22 26  2  0
 25 26  2  0
 27 25  1  6
 23 28  1  0
 27 29  1  0
 29 30  1  0
 30 31  1  0
 30 32  1  0
 29 33  2  0
 32 34  2  0
 34 35  1  0
 31 36  1  0
 34 37  1  0
 27 38  1  0
 36 38  1  0
 32 39  1  0
 39 40  1  0
 39 41  2  0
 37 42  2  0
 41 42  1  0
M  END
$$$$
O14757_Pocket2Mol_idx-in-all-generaetd-920
     RDKit          3D

 41 47  0  0  0  0  0  0  0  0999 V2000
    5.3420    0.2589   42.8836 O   0  0  0  0  0  0  0  0  0  0  0  0
    5.1627   -0.7554   43.4753 C   0  0  0  0  0  0  0  0  0  0  0  0
    4.0509   -1.4657   43.4177 N   0  0  0  0  0  0  0  0  0  0  0  0
    5.9969   -1.2317   44.6840 C   0  0  0  0  0  0  0  0  0  0  0  0
    2.9618   -1.1021   42.5918 C   0  0  1  0  0  0  0  0  0  0  0  0
    7.3392   -0.8596   44.8412 C   0  0  0  0  0  0  0  0  0  0  0  0
    1.9754   -2.0820   42.2741 C   0  0  0  0  0  0  0  0  0  0  0  0
    5.5910   -2.4282   45.3439 C   0  0  0  0  0  0  0  0  0  0  0  0
    6.5874   -2.9636   46.1581 C   0  0  0  0  0  0  0  0  0  0  0  0
    4.2763   -3.0680   45.0493 N   0  0  0  0  0  0  0  0  0  0  0  0
    3.6188   -2.5886   44.2024 C   0  0  0  0  0  0  0  0  0  0  0  0
    8.1921   -1.4071   45.7505 C   0  0  0  0  0  0  0  0  0  0  0  0
    1.0154   -1.8839   41.2980 C   0  0  0  0  0  0  0  0  0  0  0  0
    2.5720   -3.3564   43.9063 C   0  0  0  0  0  0  0  0  0  0  0  0
    0.2502   -2.8976   41.0751 C   0  0  0  0  0  0  0  0  0  0  0  0
    6.1761   -4.1775   47.0209 C   0  0  0  0  0  0  0  0  0  0  0  0
    1.7266   -3.1047   43.0115 C   0  0  2  0  0  0  0  0  0  0  0  0
    2.3696   -4.5367   44.7536 N   0  0  0  0  0  0  0  0  0  0  0  0
    1.2264   -5.2346   44.4693 C   0  0  0  0  0  0  0  0  0  0  0  0
    0.7187   -3.8955   42.5465 C   0  0  0  0  0  0  0  0  0  0  0  0
    9.4576   -0.8949   46.0327 N   0  0  0  0  0  0  0  0  0  0  0  0
    0.8625   -6.3901   45.2462 C   0  0  0  0  0  0  0  0  0  0  0  0
    7.6467   -2.5139   46.4892 C   0  0  0  0  0  0  0  0  0  0  0  0
   10.4908   -1.5336   45.8242 C   0  0  0  0  0  0  0  0  0  0  0  0
    0.3057   -4.9299   43.2909 C   0  0  0  0  0  0  0  0  0  0  0  0
   11.5916   -1.4291   46.7436 C   0  0  0  0  0  0  0  0  0  0  0  0
   10.5566   -2.3672   44.8649 O   0  0  0  0  0  0  0  0  0  0  0  0
   12.8421   -1.9355   46.2823 C   0  0  0  0  0  0  0  0  0  0  0  0
   13.4833   -2.8582   46.9841 C   0  0  0  0  0  0  0  0  0  0  0  0
   11.4002   -1.1447   48.0540 C   0  0  0  0  0  0  0  0  0  0  0  0
   10.2867   -0.4569   48.4999 O   0  0  0  0  0  0  0  0  0  0  0  0
   12.3327   -1.4798   48.9564 C   0  0  1  0  0  0  0  0  0  0  0  0
   14.7901   -3.3162   46.6439 C   0  0  0  0  0  0  0  0  0  0  0  0
   12.1651   -1.3050   50.3239 O   0  0  0  0  0  0  0  0  0  0  0  0
   15.6765   -2.5740   46.0979 C   0  0  0  0  0  0  0  0  0  0  0  0
    2.4608    0.2106   42.8512 C   0  0  0  0  0  0  0  0  0  0  0  0
   15.5213   -1.2590   45.7606 C   0  0  0  0  0  0  0  0  0  0  0  0
   14.5349   -0.8899   44.8574 C   0  0  0  0  0  0  0  0  0  0  0  0
   13.1477   -1.3425   45.0314 C   0  0  0  0  0  0  0  0  0  0  0  0
   12.9365   -3.2923   48.2060 O   0  0  0  0  0  0  0  0  0  0  0  0
   13.0540   -2.5232   49.2697 C   0  0  0  0  0  0  0  0  0  0  0  0
  1  2  2  0
  2  3  1  0
  2  4  1  0
  3  5  1  0
  4  6  2  0
  5  7  1  0
  4  8  1  0
  8  9  2  0
  8 10  1  0
  3 11  1  0
 10 11  2  0
  6 12  1  0
  7 13  2  0
 11 14  1  0
 13 15  1  0
  9 16  1  0
 17  7  1  6
 14 17  1  0
 14 18  2  0
 18 19  1  0
 15 20  2  0
 17 20  1  0
 12 21  1  0
 19 22  1  0
  9 23  1  0
 12 23  2  0
 21 24  1  0
 19 25  2  0
 20 25  1  0
 24 26  1  0
 24 27  2  0
 26 28  1  0
 28 29  2  0
 26 30  2  0
 30 31  1  0
 30 32  1  0
 29 33  1  0
 32 34  1  1
 33 35  2  0
  5 36  1  1
 35 37  1  0
 37 38  1  0
 28 39  1  0
 38 39  2  0
 29 40  1  0
 32 41  1  0
 40 41  1  0
M  END
$$$$
O14757_Pocket2Mol_idx-in-all-generaetd-921
     RDKit          3D

 35 41  0  0  0  0  0  0  0  0999 V2000
    5.1775    0.2381   42.7925 N   0  0  0  0  0  0  0  0  0  0  0  0
    3.8485    0.3515   42.4285 N   0  0  0  0  0  0  0  0  0  0  0  0
    5.5201   -0.8216   43.5188 C   0  0  0  0  0  0  0  0  0  0  0  0
    4.5575   -1.7838   43.9113 C   0  0  0  0  0  0  0  0  0  0  0  0
    2.9777   -0.5504   42.6073 C   0  0  0  0  0  0  0  0  0  0  0  0
    4.8521   -2.9209   44.7316 C   0  0  0  0  0  0  0  0  0  0  0  0
    3.2351   -1.5675   43.1903 C   0  0  0  0  0  0  0  0  0  0  0  0
    1.6955   -0.2711   41.8967 C   0  0  0  0  0  0  0  0  0  0  0  0
    0.8864   -1.3663   42.0618 C   0  0  0  0  0  0  0  0  0  0  0  0
    2.3187   -2.7500   43.4543 C   0  0  0  0  0  0  0  0  0  0  0  0
    1.1071   -2.5907   42.7445 C   0  0  0  0  0  0  0  0  0  0  0  0
    6.0979   -2.8249   45.5633 C   0  0  0  0  0  0  0  0  0  0  0  0
    0.0423   -3.6939   42.8205 C   0  0  0  0  0  0  0  0  0  0  0  0
    4.2011   -4.0423   44.9363 C   0  0  0  0  0  0  0  0  0  0  0  0
    4.5424   -5.0339   45.7893 C   0  0  0  0  0  0  0  0  0  0  0  0
   -0.0110   -4.4040   41.6463 N   0  0  0  0  0  0  0  0  0  0  0  0
    2.8431   -3.9954   44.0809 C   0  0  0  0  0  0  0  0  0  0  0  0
    7.0703   -1.6758   45.5388 C   0  0  0  0  0  0  0  0  0  0  0  0
    6.5324   -3.6602   46.4424 C   0  0  0  0  0  0  0  0  0  0  0  0
    5.6842   -4.8828   46.5405 C   0  0  0  0  0  0  0  0  0  0  0  0
    6.7957   -0.7421   44.3455 N   0  0  0  0  0  0  0  0  0  0  0  0
   -0.5371   -3.9067   43.6730 O   0  0  0  0  0  0  0  0  0  0  0  0
    8.1253   -1.3380   46.2529 C   0  0  0  0  0  0  0  0  0  0  0  0
    8.4826   -2.3424   47.1646 C   0  0  0  0  0  0  0  0  0  0  0  0
    7.6160   -3.5262   47.3486 C   0  0  0  0  0  0  0  0  0  0  0  0
    9.6963   -2.1931   47.9970 C   0  0  0  0  0  0  0  0  0  0  0  0
    9.5527   -1.4028   48.9318 O   0  0  0  0  0  0  0  0  0  0  0  0
   10.7595   -2.8202   47.7301 O   0  0  0  0  0  0  0  0  0  0  0  0
   11.5009   -2.2828   46.6278 C   0  0  0  0  0  0  0  0  0  0  0  0
   12.6280   -1.6044   46.9222 C   0  0  0  0  0  0  0  0  0  0  0  0
   13.3270   -1.0085   45.8437 C   0  0  0  0  0  0  0  0  0  0  0  0
   13.3294   -1.4807   44.7187 C   0  0  0  0  0  0  0  0  0  0  0  0
   14.2954   -0.9482   43.6825 C   0  0  0  0  0  0  0  0  0  0  0  0
   11.2330   -3.1312   45.5311 C   0  0  0  0  0  0  0  0  0  0  0  0
   12.2564   -2.4924   44.4207 C   0  0  0  0  0  0  0  0  0  0  0  0
  1  2  2  0
  1  3  1  0
  3  4  2  0
  2  5  1  0
  4  6  1  0
  4  7  1  0
  5  7  2  0
  5  8  1  0
  8  9  2  0
  7 10  1  0
  9 11  1  0
 10 11  2  0
  6 12  2  0
 11 13  1  0
  6 14  1  0
 14 15  2  0
 13 16  1  0
 10 17  1  0
 14 17  1  0
 12 18  1  0
 12 19  1  0
 15 20  1  0
 19 20  2  0
  3 21  1  0
 18 21  2  0
 13 22  2  0
 18 23  1  0
 23 24  2  0
 19 25  1  0
 24 25  1  0
 24 26  1  0
 26 27  2  0
 26 28  1  0
 28 29  1  0
 29 30  2  0
 30 31  1  0
 31 32  2  0
 32 33  1  0
 29 34  1  0
 32 35  1  0
 34 35  2  0
M  END
$$$$
O14757_Pocket2Mol_idx-in-all-generaetd-922
     RDKit          3D

 48 57  0  0  0  0  0  0  0  0999 V2000
    1.5482   -0.3111   41.9233 C   0  0  0  0  0  0  0  0  0  0  0  0
    2.7284    0.2018   42.1525 N   0  0  0  0  0  0  0  0  0  0  0  0
    3.7893   -0.3016   42.7005 C   0  0  0  0  0  0  0  0  0  0  0  0
    3.3781   -1.7350   43.0000 C   0  0  0  0  0  0  0  0  0  0  0  0
    2.0339   -1.9619   42.6217 C   0  0  0  0  0  0  0  0  0  0  0  0
    5.0090    0.1219   42.9340 N   0  0  0  0  0  0  0  0  0  0  0  0
    4.2895   -2.4979   43.6707 C   0  0  0  0  0  0  0  0  0  0  0  0
    5.8391   -0.6675   43.6343 C   0  0  0  0  0  0  0  0  0  0  0  0
    6.9849   -0.2377   44.0028 N   0  0  0  0  0  0  0  0  0  0  0  0
    4.0426   -3.8794   44.0832 C   0  0  0  0  0  0  0  0  0  0  0  0
    7.6796   -0.8734   44.9326 C   0  0  0  0  0  0  0  0  0  0  0  0
    1.1064   -2.9576   42.4211 C   0  0  0  0  0  0  0  0  0  0  0  0
    5.5298   -1.9496   44.0315 C   0  0  0  0  0  0  0  0  0  0  0  0
    3.8954   -4.1817   45.4718 C   0  0  0  0  0  0  0  0  0  0  0  0
    0.6765   -3.5480   43.4006 C   0  0  1  0  0  0  0  0  0  0  0  0
    0.5804   -3.2191   41.1635 C   0  0  0  0  0  0  0  0  0  0  0  0
    2.8083   -4.8227   45.9203 N   0  0  0  0  0  0  0  0  0  0  0  0
   -0.1574   -4.5754   42.9329 N   0  0  0  0  0  0  0  0  0  0  0  0
    6.5271   -2.5531   44.9677 C   0  0  0  0  0  0  0  0  0  0  0  0
   -0.2272   -4.3703   41.5137 C   0  0  0  0  0  0  0  0  0  0  0  0
    7.5095   -2.0029   45.3993 C   0  0  0  0  0  0  0  0  0  0  0  0
    8.2550   -2.6982   46.3988 C   0  0  0  0  0  0  0  0  0  0  0  0
    8.8975   -0.3029   45.3267 O   0  0  0  0  0  0  0  0  0  0  0  0
    4.8299   -4.4637   46.4212 C   0  0  0  0  0  0  0  0  0  0  0  0
    4.2707   -4.9248   47.6295 N   0  0  0  0  0  0  0  0  0  0  0  0
    3.2045   -5.2092   47.1521 C   0  0  0  0  0  0  0  0  0  0  0  0
    1.4482   -4.6186   45.4134 C   0  0  2  0  0  0  0  0  0  0  0  0
    1.2398   -3.5043   44.6236 O   0  0  0  0  0  0  0  0  0  0  0  0
    6.3317   -3.9297   46.0870 C   0  0  2  0  0  0  0  0  0  0  0  0
    9.5296   -2.5449   46.9776 C   0  0  0  0  0  0  0  0  0  0  0  0
    9.7921   -1.7530   47.9018 O   0  0  0  0  0  0  0  0  0  0  0  0
    7.3972   -3.8130   46.7939 C   0  0  0  0  0  0  0  0  0  0  0  0
   10.4154   -3.4217   46.6883 O   0  0  0  0  0  0  0  0  0  0  0  0
    0.5555   -4.7535   46.5674 C   0  0  0  0  0  0  0  0  0  0  0  0
   11.6497   -3.0596   47.0439 C   0  0  0  0  0  0  0  0  0  0  0  0
   12.3878   -4.1125   47.6990 C   0  0  1  0  0  0  0  0  0  0  0  0
   11.8800   -5.2760   47.5659 O   0  0  0  0  0  0  0  0  0  0  0  0
   12.1402   -1.9273   46.5416 C   0  0  0  0  0  0  0  0  0  0  0  0
   13.7566   -3.9428   47.4635 C   0  0  0  0  0  0  0  0  0  0  0  0
   11.3924   -5.9178   48.7514 C   0  0  0  0  0  0  0  0  0  0  0  0
   14.4126   -2.7430   47.0678 C   0  0  0  0  0  0  0  0  0  0  0  0
   13.4817   -1.7494   46.5455 C   0  0  0  0  0  0  0  0  0  0  0  0
   15.7358   -2.5357   47.0594 C   0  0  1  0  0  0  0  0  0  0  0  0
   14.1460   -0.8459   45.7964 C   0  0  0  0  0  0  0  0  0  0  0  0
   16.5904   -3.5170   47.6347 O   0  0  0  0  0  0  0  0  0  0  0  0
   15.4448   -0.4963   45.8519 C   0  0  0  0  0  0  0  0  0  0  0  0
   15.9913    0.6271   45.1416 O   0  0  0  0  0  0  0  0  0  0  0  0
   16.2989   -1.4210   46.4216 C   0  0  0  0  0  0  0  0  0  0  0  0
  1  2  1  0
  2  3  2  0
  3  4  1  0
  1  5  2  0
  4  5  1  0
  3  6  1  0
  4  7  2  0
  6  8  1  0
  8  9  1  0
  7 10  1  0
  9 11  1  0
  5 12  1  0
  7 13  1  0
  8 13  2  0
 10 14  1  0
 12 15  1  0
 12 16  2  0
 14 17  1  0
 15 18  1  0
 13 19  1  0
 16 20  1  0
 18 20  2  0
 11 21  1  0
 19 21  2  0
 21 22  1  0
 11 23  2  0
 14 24  2  0
 24 25  1  0
 17 26  1  0
 25 26  2  0
 17 27  1  0
 15 28  1  6
 27 28  1  0
 19 29  1  0
 24 29  1  0
 22 30  1  0
 30 31  2  0
 22 32  2  0
 29 32  1  1
 30 33  1  0
 27 34  1  1
 33 35  1  0
 35 36  1  0
 36 37  1  6
 35 38  2  0
 36 39  1  0
 37 40  1  0
 39 41  2  0
 38 42  1  0
 41 42  1  0
 41 43  1  0
 42 44  2  0
 43 45  1  6
 44 46  1  0
 46 47  1  0
 43 48  1  0
 46 48  2  0
M  END
$$$$
O14757_Pocket2Mol_idx-in-all-generaetd-923
     RDKit          3D

 31 37  0  0  0  0  0  0  0  0999 V2000
    4.8037   -0.1366   42.7100 N   0  0  0  0  0  0  0  0  0  0  0  0
    3.6577   -0.7759   42.7186 C   0  0  0  0  0  0  0  0  0  0  0  0
    3.6660   -1.8665   43.4760 C   0  0  0  0  0  0  0  0  0  0  0  0
    2.7271   -2.8718   43.6599 C   0  0  0  0  0  0  0  0  0  0  0  0
    2.4846   -0.2994   42.1254 N   0  0  0  0  0  0  0  0  0  0  0  0
    5.0524   -1.7697   43.9367 C   0  0  0  0  0  0  0  0  0  0  0  0
    1.4917   -2.9000   43.0914 C   0  0  0  0  0  0  0  0  0  0  0  0
    3.1274   -3.9503   44.5163 C   0  0  0  0  0  0  0  0  0  0  0  0
    1.0744   -1.9066   42.1491 C   0  0  2  0  0  0  0  0  0  0  0  0
    5.6624   -0.7003   43.4895 C   0  0  0  0  0  0  0  0  0  0  0  0
    5.5753   -2.5784   45.0324 C   0  0  0  0  0  0  0  0  0  0  0  0
    0.4030   -3.6297   43.4883 N   0  0  0  0  0  0  0  0  0  0  0  0
    1.5052   -0.8077   41.7519 C   0  0  0  0  0  0  0  0  0  0  0  0
   -0.5645   -3.4039   42.5585 N   0  0  0  0  0  0  0  0  0  0  0  0
    2.5059   -5.1012   44.7935 C   0  0  0  0  0  0  0  0  0  0  0  0
    4.4581   -3.8218   45.2947 C   0  0  0  0  0  0  0  0  0  0  0  0
   -0.3089   -2.3979   41.8128 C   0  0  0  0  0  0  0  0  0  0  0  0
    6.6435   -2.6577   45.6991 C   0  0  0  0  0  0  0  0  0  0  0  0
    7.0869   -3.7008   46.4717 C   0  0  0  0  0  0  0  0  0  0  0  0
    7.5912   -1.5296   45.5455 C   0  0  0  0  0  0  0  0  0  0  0  0
    8.7765   -1.4352   46.2248 C   0  0  0  0  0  0  0  0  0  0  0  0
    6.3069   -4.7944   46.6836 O   0  0  0  0  0  0  0  0  0  0  0  0
    4.8984   -4.5252   46.1302 C   0  0  0  0  0  0  0  0  0  0  0  0
    4.2122   -5.9932   46.2216 C   0  0  0  0  0  0  0  0  0  0  0  0
    8.3395   -3.6608   47.2172 C   0  0  0  0  0  0  0  0  0  0  0  0
    4.6690   -6.8778   47.1549 O   0  0  0  0  0  0  0  0  0  0  0  0
    9.1822   -2.5745   47.1243 C   0  0  0  0  0  0  0  0  0  0  0  0
   10.4419   -2.3733   47.8332 C   0  0  0  0  0  0  0  0  0  0  0  0
   10.5277   -1.5655   48.7043 O   0  0  0  0  0  0  0  0  0  0  0  0
    2.9373   -6.0805   45.7037 C   0  0  0  0  0  0  0  0  0  0  0  0
   11.2993   -3.3602   47.6585 O   0  0  0  0  0  0  0  0  0  0  0  0
  1  2  2  0
  2  3  1  0
  3  4  2  0
  2  5  1  0
  3  6  1  0
  4  7  1  0
  4  8  1  0
  7  9  1  0
  1 10  1  0
  6 10  1  0
  6 11  2  0
  7 12  2  0
  5 13  2  0
  9 13  1  1
 12 14  1  0
  8 15  2  0
  8 16  1  0
 11 16  1  0
  9 17  1  0
 14 17  2  0
 11 18  1  0
 18 19  2  0
 18 20  1  0
 20 21  2  0
 19 22  1  0
 16 23  2  0
 22 23  1  0
 23 24  1  0
 19 25  1  0
 24 26  1  0
 21 27  1  0
 25 27  2  0
 27 28  1  0
 28 29  2  0
 15 30  1  0
 24 30  2  0
 28 31  1  0
M  END
$$$$
O14757_Pocket2Mol_idx-in-all-generaetd-924
     RDKit          3D

 41 48  0  0  0  0  0  0  0  0999 V2000
    1.5482   -0.3111   41.9233 C   0  0  0  0  0  0  0  0  0  0  0  0
    2.7284    0.2018   42.1525 N   0  0  0  0  0  0  0  0  0  0  0  0
    3.7893   -0.3016   42.7005 C   0  0  0  0  0  0  0  0  0  0  0  0
    3.3781   -1.7350   43.0000 C   0  0  0  0  0  0  0  0  0  0  0  0
    2.0339   -1.9619   42.6217 C   0  0  0  0  0  0  0  0  0  0  0  0
    4.1166   -2.4997   43.8458 C   0  0  0  0  0  0  0  0  0  0  0  0
    1.1731   -3.0051   42.5773 C   0  0  0  0  0  0  0  0  0  0  0  0
    0.4701   -3.2344   41.4901 C   0  0  0  0  0  0  0  0  0  0  0  0
    5.3799   -1.7814   44.2691 C   0  0  0  0  0  0  0  0  0  0  0  0
    5.0159   -0.0180   43.1201 N   0  0  0  0  0  0  0  0  0  0  0  0
    5.7693   -0.6937   43.8418 C   0  0  0  0  0  0  0  0  0  0  0  0
    0.8078   -3.6166   43.6782 C   0  0  0  0  0  0  0  0  0  0  0  0
    0.0663   -4.7011   43.7415 N   0  0  0  0  0  0  0  0  0  0  0  0
    6.2223   -2.6843   45.1565 C   0  0  0  0  0  0  0  0  0  0  0  0
    6.9599   -0.2351   44.2608 N   0  0  0  0  0  0  0  0  0  0  0  0
    5.9065   -3.9037   45.7499 N   0  0  0  0  0  0  0  0  0  0  0  0
   -0.5459   -5.1185   42.5870 C   0  0  0  0  0  0  0  0  0  0  0  0
    5.7480   -4.0340   46.9810 C   0  0  0  0  0  0  0  0  0  0  0  0
    7.4448   -1.8511   45.4198 C   0  0  0  0  0  0  0  0  0  0  0  0
    7.7572   -0.7827   45.0128 C   0  0  0  0  0  0  0  0  0  0  0  0
    8.4076   -2.7217   46.4541 C   0  0  0  0  0  0  0  0  0  0  0  0
    9.3167   -2.0988   47.1049 N   0  0  0  0  0  0  0  0  0  0  0  0
   -0.4719   -4.3893   41.5406 C   0  0  0  0  0  0  0  0  0  0  0  0
    8.3667   -4.0284   46.5743 N   0  0  0  0  0  0  0  0  0  0  0  0
    9.5309   -4.3147   47.3094 C   0  0  0  0  0  0  0  0  0  0  0  0
    5.3113   -3.3789   47.8005 O   0  0  0  0  0  0  0  0  0  0  0  0
    9.9022   -5.6301   47.7684 C   0  0  0  0  0  0  0  0  0  0  0  0
    5.4470   -5.5868   47.2096 C   0  0  0  0  0  0  0  0  0  0  0  0
   11.2254   -5.8679   48.0402 C   0  0  0  0  0  0  0  0  0  0  0  0
    8.9736   -6.6532   47.8548 C   0  0  0  0  0  0  0  0  0  0  0  0
   10.0616   -3.0670   47.6360 C   0  0  0  0  0  0  0  0  0  0  0  0
    7.5566   -6.3564   47.5477 N   0  0  0  0  0  0  0  0  0  0  0  0
   12.3328   -4.8893   47.9268 C   0  0  0  0  0  0  0  0  0  0  0  0
   12.2085   -3.9673   46.9997 C   0  0  0  0  0  0  0  0  0  0  0  0
    9.2156   -7.8300   48.4499 C   0  0  0  0  0  0  0  0  0  0  0  0
   11.4851   -2.8378   47.7540 C   0  0  0  0  0  0  0  0  0  0  0  0
    6.4874   -6.3039   48.2799 C   0  0  0  0  0  0  0  0  0  0  0  0
   11.5168   -7.0924   48.4641 C   0  0  0  0  0  0  0  0  0  0  0  0
    8.2951   -8.8860   48.5773 O   0  0  0  0  0  0  0  0  0  0  0  0
   12.9392   -7.4732   48.8578 O   0  0  0  0  0  0  0  0  0  0  0  0
   10.6251   -8.3217   48.7788 C   0  0  0  0  0  0  0  0  0  0  0  0
  1  2  1  0
  2  3  2  0
  3  4  1  0
  1  5  2  0
  4  5  1  0
  4  6  2  0
  5  7  1  0
  7  8  2  0
  6  9  1  0
  3 10  1  0
  9 11  2  0
 10 11  1  0
  7 12  1  0
 12 13  2  0
  9 14  1  0
 11 15  1  0
 14 16  1  0
 13 17  1  0
 16 18  1  0
 14 19  2  0
 15 20  2  0
 19 20  1  0
 19 21  1  0
 21 22  2  0
  8 23  1  0
 17 23  2  0
 21 24  1  0
 24 25  1  0
 18 26  2  0
 25 27  1  0
 18 28  1  0
 27 29  2  0
 27 30  1  0
 22 31  1  0
 25 31  2  0
 30 32  1  0
 29 33  1  0
 33 34  1  0
 30 35  2  0
 31 36  1  0
 34 36  1  0
 28 37  1  0
 32 37  1  0
 29 38  1  0
 35 39  1  0
 38 40  1  0
 35 41  1  0
 38 41  2  0
M  END
$$$$
O14757_Pocket2Mol_idx-in-all-generaetd-925
     RDKit          3D

 26 30  0  0  0  0  0  0  0  0999 V2000
    5.3420    0.2589   42.8836 O   0  0  0  0  0  0  0  0  0  0  0  0
    5.1627   -0.7554   43.4753 C   0  0  0  0  0  0  0  0  0  0  0  0
    4.0509   -1.4657   43.4177 N   0  0  0  0  0  0  0  0  0  0  0  0
    5.9969   -1.2317   44.6840 C   0  0  0  0  0  0  0  0  0  0  0  0
    2.9618   -1.1021   42.5918 C   0  0  0  0  0  0  0  0  0  0  0  0
    7.3392   -0.8596   44.8412 C   0  0  0  0  0  0  0  0  0  0  0  0
    1.9754   -2.0820   42.2741 C   0  0  0  0  0  0  0  0  0  0  0  0
    5.5910   -2.4282   45.3439 C   0  0  0  0  0  0  0  0  0  0  0  0
    6.5874   -2.9636   46.1581 C   0  0  0  0  0  0  0  0  0  0  0  0
    4.2763   -3.0680   45.0493 N   0  0  0  0  0  0  0  0  0  0  0  0
    3.6188   -2.5886   44.2024 C   0  0  0  0  0  0  0  0  0  0  0  0
    8.1921   -1.4071   45.7505 C   0  0  0  0  0  0  0  0  0  0  0  0
    1.0154   -1.8839   41.2980 C   0  0  0  0  0  0  0  0  0  0  0  0
    2.5720   -3.3564   43.9063 C   0  0  0  0  0  0  0  0  0  0  0  0
    0.2502   -2.8976   41.0751 C   0  0  0  0  0  0  0  0  0  0  0  0
    0.2230   -3.9124   42.0516 C   0  0  0  0  0  0  0  0  0  0  0  0
    2.2879   -4.6260   44.7113 N   0  0  0  0  0  0  0  0  0  0  0  0
    1.7585   -3.1585   42.9749 N   0  0  0  0  0  0  0  0  0  0  0  0
    7.7776   -2.5440   46.4766 C   0  0  0  0  0  0  0  0  0  0  0  0
    0.8620   -4.0153   42.9214 C   0  0  0  0  0  0  0  0  0  0  0  0
    2.9942   -0.0014   41.9856 O   0  0  0  0  0  0  0  0  0  0  0  0
    8.6110   -3.0684   47.3244 O   0  0  0  0  0  0  0  0  0  0  0  0
    9.5514   -2.3818   47.9544 C   0  0  0  0  0  0  0  0  0  0  0  0
    1.1022   -4.9727   43.9628 C   0  0  0  0  0  0  0  0  0  0  0  0
   10.7133   -3.1257   48.0090 C   0  0  0  0  0  0  0  0  0  0  0  0
    9.2281   -1.8099   49.2434 C   0  0  0  0  0  0  0  0  0  0  0  0
  1  2  2  0
  2  3  1  0
  2  4  1  0
  3  5  1  0
  4  6  2  0
  5  7  1  0
  4  8  1  0
  8  9  2  0
  8 10  1  0
  3 11  1  0
 10 11  2  0
  6 12  1  0
  7 13  2  0
 11 14  1  0
 13 15  1  0
 15 16  2  0
 14 17  2  0
  7 18  1  0
 14 18  1  0
  9 19  1  0
 12 19  2  0
 16 20  1  0
 18 20  1  0
  5 21  2  0
 19 22  1  0
 22 23  1  0
 17 24  1  0
 20 24  2  0
 23 25  1  0
 23 26  1  0
M  END
$$$$
O14757_Pocket2Mol_idx-in-all-generaetd-926
     RDKit          3D

 36 44  0  0  0  0  0  0  0  0999 V2000
    1.5482   -0.3111   41.9233 C   0  0  0  0  0  0  0  0  0  0  0  0
    2.7284    0.2018   42.1525 N   0  0  0  0  0  0  0  0  0  0  0  0
    3.7893   -0.3016   42.7005 C   0  0  0  0  0  0  0  0  0  0  0  0
    3.3781   -1.7350   43.0000 C   0  0  0  0  0  0  0  0  0  0  0  0
    2.0339   -1.9619   42.6217 C   0  0  0  0  0  0  0  0  0  0  0  0
    5.0090    0.1219   42.9340 N   0  0  0  0  0  0  0  0  0  0  0  0
    4.2895   -2.4979   43.6707 C   0  0  0  0  0  0  0  0  0  0  0  0
    5.8391   -0.6675   43.6343 C   0  0  0  0  0  0  0  0  0  0  0  0
    6.9849   -0.2377   44.0028 N   0  0  0  0  0  0  0  0  0  0  0  0
    4.0426   -3.8794   44.0832 C   0  0  0  0  0  0  0  0  0  0  0  0
    7.6796   -0.8734   44.9326 C   0  0  0  0  0  0  0  0  0  0  0  0
    1.1064   -2.9576   42.4211 C   0  0  0  0  0  0  0  0  0  0  0  0
    5.5298   -1.9496   44.0315 C   0  0  0  0  0  0  0  0  0  0  0  0
    3.8954   -4.1817   45.4718 C   0  0  0  0  0  0  0  0  0  0  0  0
    0.6765   -3.5480   43.4006 C   0  0  1  0  0  0  0  0  0  0  0  0
    0.5804   -3.2191   41.1635 C   0  0  0  0  0  0  0  0  0  0  0  0
    2.8083   -4.8227   45.9203 N   0  0  0  0  0  0  0  0  0  0  0  0
   -0.1574   -4.5754   42.9329 N   0  0  0  0  0  0  0  0  0  0  0  0
    6.5271   -2.5531   44.9677 C   0  0  0  0  0  0  0  0  0  0  0  0
   -0.2272   -4.3703   41.5137 C   0  0  0  0  0  0  0  0  0  0  0  0
    7.5095   -2.0029   45.3993 C   0  0  0  0  0  0  0  0  0  0  0  0
    8.2550   -2.6982   46.3988 C   0  0  0  0  0  0  0  0  0  0  0  0
    8.8975   -0.3029   45.3267 O   0  0  0  0  0  0  0  0  0  0  0  0
    4.8299   -4.4637   46.4212 C   0  0  0  0  0  0  0  0  0  0  0  0
    4.2707   -4.9248   47.6295 N   0  0  0  0  0  0  0  0  0  0  0  0
    3.2045   -5.2092   47.1521 C   0  0  0  0  0  0  0  0  0  0  0  0
    1.4482   -4.6186   45.4134 C   0  0  2  0  0  0  0  0  0  0  0  0
    1.2398   -3.5043   44.6236 O   0  0  0  0  0  0  0  0  0  0  0  0
    7.8521   -3.9584   46.8773 C   0  0  0  0  0  0  0  0  0  0  0  0
    8.4079   -4.7553   47.7407 C   0  0  0  0  0  0  0  0  0  0  0  0
    6.2843   -3.8191   46.0063 C   0  0  2  0  0  0  0  0  0  0  0  0
    0.5313   -4.7420   46.5885 C   0  0  0  0  0  0  0  0  0  0  0  0
    9.6517   -2.6917   47.0982 C   0  0  0  0  0  0  0  0  0  0  0  0
   10.0453   -3.4992   47.9237 C   0  0  0  0  0  0  0  0  0  0  0  0
    7.4533   -6.0285   47.9967 C   0  0  0  0  0  0  0  0  0  0  0  0
    9.3590   -4.6292   48.2258 C   0  0  0  0  0  0  0  0  0  0  0  0
  1  2  1  0
  2  3  2  0
  3  4  1  0
  1  5  2  0
  4  5  1  0
  3  6  1  0
  4  7  2  0
  6  8  1  0
  8  9  1  0
  7 10  1  0
  9 11  1  0
  5 12  1  0
  7 13  1  0
  8 13  2  0
 10 14  1  0
 12 15  1  0
 12 16  2  0
 14 17  1  0
 15 18  1  0
 13 19  1  0
 16 20  1  0
 18 20  2  0
 11 21  1  0
 19 21  2  0
 21 22  1  0
 11 23  2  0
 14 24  2  0
 24 25  1  0
 17 26  1  0
 25 26  2  0
 17 27  1  0
 15 28  1  6
 27 28  1  0
 22 29  2  0
 29 30  1  0
 19 31  1  0
 31 24  1  1
 29 31  1  0
 27 32  1  1
 22 33  1  0
 33 34  2  0
 30 35  1  0
 30 36  2  0
 34 36  1  0
M  END
$$$$
O14757_Pocket2Mol_idx-in-all-generaetd-927
     RDKit          3D

 41 48  0  0  0  0  0  0  0  0999 V2000
    1.5482   -0.3111   41.9233 C   0  0  0  0  0  0  0  0  0  0  0  0
    2.7284    0.2018   42.1525 N   0  0  0  0  0  0  0  0  0  0  0  0
    3.7893   -0.3016   42.7005 C   0  0  0  0  0  0  0  0  0  0  0  0
    3.3781   -1.7350   43.0000 C   0  0  0  0  0  0  0  0  0  0  0  0
    2.0339   -1.9619   42.6217 C   0  0  0  0  0  0  0  0  0  0  0  0
    4.1166   -2.4997   43.8458 C   0  0  0  0  0  0  0  0  0  0  0  0
    1.1731   -3.0051   42.5773 C   0  0  0  0  0  0  0  0  0  0  0  0
    0.4701   -3.2344   41.4901 C   0  0  0  0  0  0  0  0  0  0  0  0
    5.3799   -1.7814   44.2691 C   0  0  0  0  0  0  0  0  0  0  0  0
    5.0159   -0.0180   43.1201 N   0  0  0  0  0  0  0  0  0  0  0  0
    5.7693   -0.6937   43.8418 C   0  0  0  0  0  0  0  0  0  0  0  0
    0.8078   -3.6166   43.6782 C   0  0  0  0  0  0  0  0  0  0  0  0
    0.0663   -4.7011   43.7415 N   0  0  0  0  0  0  0  0  0  0  0  0
    6.2223   -2.6843   45.1565 C   0  0  0  0  0  0  0  0  0  0  0  0
    6.9599   -0.2351   44.2608 N   0  0  0  0  0  0  0  0  0  0  0  0
    5.9065   -3.9037   45.7499 N   0  0  0  0  0  0  0  0  0  0  0  0
   -0.5459   -5.1185   42.5870 C   0  0  0  0  0  0  0  0  0  0  0  0
    5.7480   -4.0340   46.9810 C   0  0  0  0  0  0  0  0  0  0  0  0
    7.4448   -1.8511   45.4198 C   0  0  0  0  0  0  0  0  0  0  0  0
    7.7572   -0.7827   45.0128 C   0  0  0  0  0  0  0  0  0  0  0  0
    8.4076   -2.7217   46.4541 C   0  0  0  0  0  0  0  0  0  0  0  0
    9.3167   -2.0988   47.1049 N   0  0  0  0  0  0  0  0  0  0  0  0
   -0.4719   -4.3893   41.5406 C   0  0  0  0  0  0  0  0  0  0  0  0
    8.3667   -4.0284   46.5743 N   0  0  0  0  0  0  0  0  0  0  0  0
    9.5309   -4.3147   47.3094 C   0  0  0  0  0  0  0  0  0  0  0  0
    5.3113   -3.3789   47.8005 O   0  0  0  0  0  0  0  0  0  0  0  0
    9.9022   -5.6301   47.7684 C   0  0  0  0  0  0  0  0  0  0  0  0
    5.4470   -5.5868   47.2096 C   0  0  0  0  0  0  0  0  0  0  0  0
   11.2254   -5.8679   48.0402 C   0  0  0  0  0  0  0  0  0  0  0  0
    8.9736   -6.6532   47.8548 C   0  0  0  0  0  0  0  0  0  0  0  0
   10.0616   -3.0670   47.6360 C   0  0  0  0  0  0  0  0  0  0  0  0
    7.5566   -6.3564   47.5477 N   0  0  0  0  0  0  0  0  0  0  0  0
    6.4157   -6.1721   48.0913 C   0  0  0  0  0  0  0  0  0  0  0  0
   12.3275   -4.8510   47.9324 C   0  0  0  0  0  0  0  0  0  0  0  0
    9.3494   -7.8378   48.4266 C   0  0  0  0  0  0  0  0  0  0  0  0
   11.2226   -2.8389   48.5368 C   0  0  0  0  0  0  0  0  0  0  0  0
   12.2713   -3.7216   48.7557 N   0  0  0  0  0  0  0  0  0  0  0  0
    8.3268   -8.9044   48.5537 O   0  0  0  0  0  0  0  0  0  0  0  0
   11.6642   -7.1133   48.4601 C   0  0  0  0  0  0  0  0  0  0  0  0
   10.6106   -8.1074   48.6428 C   0  0  0  0  0  0  0  0  0  0  0  0
   11.0870   -1.7747   49.3258 O   0  0  0  0  0  0  0  0  0  0  0  0
  1  2  1  0
  2  3  2  0
  3  4  1  0
  1  5  2  0
  4  5  1  0
  4  6  2  0
  5  7  1  0
  7  8  2  0
  6  9  1  0
  3 10  1  0
  9 11  2  0
 10 11  1  0
  7 12  1  0
 12 13  2  0
  9 14  1  0
 11 15  1  0
 14 16  1  0
 13 17  1  0
 16 18  1  0
 14 19  2  0
 15 20  2  0
 19 20  1  0
 19 21  1  0
 21 22  2  0
  8 23  1  0
 17 23  2  0
 21 24  1  0
 24 25  1  0
 18 26  2  0
 25 27  1  0
 18 28  1  0
 27 29  2  0
 27 30  1  0
 22 31  1  0
 25 31  2  0
 30 32  1  0
 28 33  1  0
 32 33  1  0
 29 34  1  0
 30 35  2  0
 31 36  1  0
 34 37  1  0
 36 37  1  0
 35 38  1  0
 29 39  1  0
 35 40  1  0
 39 40  2  0
 36 41  2  0
M  END
$$$$
O14757_Pocket2Mol_idx-in-all-generaetd-928
     RDKit          3D

 38 43  0  0  0  0  0  0  0  0999 V2000
    5.3420    0.2589   42.8836 O   0  0  0  0  0  0  0  0  0  0  0  0
    5.1627   -0.7554   43.4753 C   0  0  0  0  0  0  0  0  0  0  0  0
    4.0509   -1.4657   43.4177 N   0  0  0  0  0  0  0  0  0  0  0  0
    5.9969   -1.2317   44.6840 C   0  0  0  0  0  0  0  0  0  0  0  0
    2.9618   -1.1021   42.5918 C   0  0  1  0  0  0  0  0  0  0  0  0
    7.3392   -0.8596   44.8412 C   0  0  0  0  0  0  0  0  0  0  0  0
    1.9754   -2.0820   42.2741 C   0  0  0  0  0  0  0  0  0  0  0  0
    5.5910   -2.4282   45.3439 C   0  0  0  0  0  0  0  0  0  0  0  0
    6.5874   -2.9636   46.1581 C   0  0  0  0  0  0  0  0  0  0  0  0
    4.2763   -3.0680   45.0493 N   0  0  0  0  0  0  0  0  0  0  0  0
    3.6188   -2.5886   44.2024 C   0  0  0  0  0  0  0  0  0  0  0  0
    8.1921   -1.4071   45.7505 C   0  0  0  0  0  0  0  0  0  0  0  0
    1.0154   -1.8839   41.2980 C   0  0  0  0  0  0  0  0  0  0  0  0
    2.5720   -3.3564   43.9063 C   0  0  0  0  0  0  0  0  0  0  0  0
    0.2502   -2.8976   41.0751 C   0  0  0  0  0  0  0  0  0  0  0  0
    6.1761   -4.1775   47.0209 C   0  0  0  0  0  0  0  0  0  0  0  0
    1.7266   -3.1047   43.0115 C   0  0  2  0  0  0  0  0  0  0  0  0
    2.3696   -4.5367   44.7536 N   0  0  0  0  0  0  0  0  0  0  0  0
    1.2264   -5.2346   44.4693 C   0  0  0  0  0  0  0  0  0  0  0  0
    0.7187   -3.8955   42.5465 C   0  0  0  0  0  0  0  0  0  0  0  0
    9.4576   -0.8949   46.0327 N   0  0  0  0  0  0  0  0  0  0  0  0
    0.8625   -6.3901   45.2462 C   0  0  0  0  0  0  0  0  0  0  0  0
    7.6467   -2.5139   46.4892 C   0  0  0  0  0  0  0  0  0  0  0  0
   10.4908   -1.5336   45.8242 C   0  0  0  0  0  0  0  0  0  0  0  0
    0.3057   -4.9299   43.2909 C   0  0  0  0  0  0  0  0  0  0  0  0
   11.5916   -1.4291   46.7436 C   0  0  0  0  0  0  0  0  0  0  0  0
   10.5566   -2.3672   44.8649 O   0  0  0  0  0  0  0  0  0  0  0  0
    2.4730    0.2084   42.8389 O   0  0  0  0  0  0  0  0  0  0  0  0
   11.6027   -2.2081   47.7725 N   0  0  0  0  0  0  0  0  0  0  0  0
   12.6189   -0.5862   46.5415 C   0  0  0  0  0  0  0  0  0  0  0  0
   13.6413   -0.4484   47.4129 C   0  0  0  0  0  0  0  0  0  0  0  0
   10.4764   -3.1097   48.1134 C   0  0  0  0  0  0  0  0  0  0  0  0
    9.5762   -2.4717   49.0753 C   0  0  0  0  0  0  0  0  0  0  0  0
    9.7761   -1.2394   49.5167 O   0  0  0  0  0  0  0  0  0  0  0  0
    8.5184   -3.1146   49.5122 O   0  0  0  0  0  0  0  0  0  0  0  0
   12.6452   -2.1413   48.6204 C   0  0  0  0  0  0  0  0  0  0  0  0
   12.7386   -3.1059   49.6901 O   0  0  0  0  0  0  0  0  0  0  0  0
   13.7957   -1.3142   48.4756 C   0  0  0  0  0  0  0  0  0  0  0  0
  1  2  2  0
  2  3  1  0
  2  4  1  0
  3  5  1  0
  4  6  2  0
  5  7  1  0
  4  8  1  0
  8  9  2  0
  8 10  1  0
  3 11  1  0
 10 11  2  0
  6 12  1  0
  7 13  2  0
 11 14  1  0
 13 15  1  0
  9 16  1  0
 17  7  1  6
 14 17  1  0
 14 18  2  0
 18 19  1  0
 15 20  2  0
 17 20  1  0
 12 21  1  0
 19 22  1  0
  9 23  1  0
 12 23  2  0
 21 24  1  0
 19 25  2  0
 20 25  1  0
 24 26  1  0
 24 27  2  0
  5 28  1  1
 26 29  1  0
 26 30  2  0
 30 31  1  0
 29 32  1  0
 32 33  1  0
 33 34  2  0
 33 35  1  0
 29 36  1  0
 36 37  2  0
 31 38  2  0
 36 38  1  0
M  END
$$$$
O14757_Pocket2Mol_idx-in-all-generaetd-929
     RDKit          3D

 37 43  0  0  0  0  0  0  0  0999 V2000
    5.3420    0.2589   42.8836 O   0  0  0  0  0  0  0  0  0  0  0  0
    5.1627   -0.7554   43.4753 C   0  0  0  0  0  0  0  0  0  0  0  0
    4.0509   -1.4657   43.4177 N   0  0  0  0  0  0  0  0  0  0  0  0
    5.9969   -1.2317   44.6840 C   0  0  0  0  0  0  0  0  0  0  0  0
    2.9618   -1.1021   42.5918 C   0  0  0  0  0  0  0  0  0  0  0  0
    7.3392   -0.8596   44.8412 C   0  0  0  0  0  0  0  0  0  0  0  0
    1.9754   -2.0820   42.2741 C   0  0  0  0  0  0  0  0  0  0  0  0
    5.5910   -2.4282   45.3439 C   0  0  0  0  0  0  0  0  0  0  0  0
    6.5874   -2.9636   46.1581 C   0  0  0  0  0  0  0  0  0  0  0  0
    4.2763   -3.0680   45.0493 N   0  0  0  0  0  0  0  0  0  0  0  0
    3.6188   -2.5886   44.2024 C   0  0  0  0  0  0  0  0  0  0  0  0
    8.1921   -1.4071   45.7505 C   0  0  0  0  0  0  0  0  0  0  0  0
    1.0154   -1.8839   41.2980 C   0  0  0  0  0  0  0  0  0  0  0  0
    2.5720   -3.3564   43.9063 C   0  0  0  0  0  0  0  0  0  0  0  0
    0.2502   -2.8976   41.0751 C   0  0  0  0  0  0  0  0  0  0  0  0
    6.1761   -4.1775   47.0209 C   0  0  0  0  0  0  0  0  0  0  0  0
    1.7266   -3.1047   43.0115 C   0  0  2  0  0  0  0  0  0  0  0  0
    2.3696   -4.5367   44.7536 N   0  0  0  0  0  0  0  0  0  0  0  0
    1.2264   -5.2346   44.4693 C   0  0  0  0  0  0  0  0  0  0  0  0
    0.7187   -3.8955   42.5465 C   0  0  0  0  0  0  0  0  0  0  0  0
    9.4576   -0.8949   46.0327 N   0  0  0  0  0  0  0  0  0  0  0  0
    0.8625   -6.3901   45.2462 C   0  0  0  0  0  0  0  0  0  0  0  0
    7.6467   -2.5139   46.4892 C   0  0  0  0  0  0  0  0  0  0  0  0
   10.4908   -1.5336   45.8242 C   0  0  0  0  0  0  0  0  0  0  0  0
    0.3057   -4.9299   43.2909 C   0  0  0  0  0  0  0  0  0  0  0  0
   11.5916   -1.4291   46.7436 C   0  0  0  0  0  0  0  0  0  0  0  0
   10.5566   -2.3672   44.8649 O   0  0  0  0  0  0  0  0  0  0  0  0
   11.6051   -2.2111   47.7709 N   0  0  0  0  0  0  0  0  0  0  0  0
   12.6215   -0.5876   46.5424 C   0  0  0  0  0  0  0  0  0  0  0  0
   12.5420   -2.0938   48.7186 C   0  0  0  0  0  0  0  0  0  0  0  0
    3.0270    0.0702   42.0603 O   0  0  0  0  0  0  0  0  0  0  0  0
   12.6957    0.2513   45.2919 C   0  0  0  0  0  0  0  0  0  0  0  0
   13.6707   -0.5939   47.5160 C   0  0  0  0  0  0  0  0  0  0  0  0
   14.8467    0.2782   47.2613 C   0  0  0  0  0  0  0  0  0  0  0  0
   13.6217   -1.3876   48.5673 C   0  0  0  0  0  0  0  0  0  0  0  0
   14.8323    1.1479   46.1490 C   0  0  0  0  0  0  0  0  0  0  0  0
   13.7188    1.0775   45.2516 C   0  0  0  0  0  0  0  0  0  0  0  0
  1  2  2  0
  2  3  1  0
  2  4  1  0
  3  5  1  0
  4  6  2  0
  5  7  1  0
  4  8  1  0
  8  9  2  0
  8 10  1  0
  3 11  1  0
 10 11  2  0
  6 12  1  0
  7 13  2  0
 11 14  1  0
 13 15  1  0
  9 16  1  0
 17  7  1  6
 14 17  1  0
 14 18  2  0
 18 19  1  0
 15 20  2  0
 17 20  1  0
 12 21  1  0
 19 22  1  0
  9 23  1  0
 12 23  2  0
 21 24  1  0
 19 25  2  0
 20 25  1  0
 24 26  1  0
 24 27  2  0
 26 28  2  0
 26 29  1  0
 28 30  1  0
  5 31  2  0
 29 32  2  0
 29 33  1  0
 33 34  2  0
 30 35  2  0
 33 35  1  0
 34 36  1  0
 32 37  1  0
 36 37  2  0
M  END
$$$$
O14757_Pocket2Mol_idx-in-all-generaetd-930
     RDKit          3D

 32 36  0  0  0  0  0  0  0  0999 V2000
    1.5482   -0.3111   41.9233 C   0  0  0  0  0  0  0  0  0  0  0  0
    2.7284    0.2018   42.1525 N   0  0  0  0  0  0  0  0  0  0  0  0
    3.7893   -0.3016   42.7005 C   0  0  0  0  0  0  0  0  0  0  0  0
    3.3781   -1.7350   43.0000 C   0  0  0  0  0  0  0  0  0  0  0  0
    2.0339   -1.9619   42.6217 C   0  0  0  0  0  0  0  0  0  0  0  0
    5.0090    0.1219   42.9340 N   0  0  0  0  0  0  0  0  0  0  0  0
    4.2895   -2.4979   43.6707 C   0  0  0  0  0  0  0  0  0  0  0  0
    5.8391   -0.6675   43.6343 C   0  0  0  0  0  0  0  0  0  0  0  0
    6.9849   -0.2377   44.0028 N   0  0  0  0  0  0  0  0  0  0  0  0
    4.0426   -3.8794   44.0832 C   0  0  0  0  0  0  0  0  0  0  0  0
    7.6796   -0.8734   44.9326 C   0  0  0  0  0  0  0  0  0  0  0  0
    1.1064   -2.9576   42.4211 C   0  0  0  0  0  0  0  0  0  0  0  0
    5.5298   -1.9496   44.0315 C   0  0  0  0  0  0  0  0  0  0  0  0
    3.8954   -4.1817   45.4718 C   0  0  0  0  0  0  0  0  0  0  0  0
    0.6765   -3.5480   43.4006 C   0  0  0  0  0  0  0  0  0  0  0  0
    0.5804   -3.2191   41.1635 C   0  0  0  0  0  0  0  0  0  0  0  0
    2.8083   -4.8227   45.9203 N   0  0  0  0  0  0  0  0  0  0  0  0
   -0.1574   -4.5754   42.9329 N   0  0  0  0  0  0  0  0  0  0  0  0
    6.5271   -2.5531   44.9677 C   0  0  0  0  0  0  0  0  0  0  0  0
   -0.2272   -4.3703   41.5137 C   0  0  0  0  0  0  0  0  0  0  0  0
    7.5095   -2.0029   45.3993 C   0  0  0  0  0  0  0  0  0  0  0  0
    8.2550   -2.6982   46.3988 C   0  0  0  0  0  0  0  0  0  0  0  0
    4.4030   -3.3432   46.3770 O   0  0  0  0  0  0  0  0  0  0  0  0
    8.9249   -0.3105   45.3298 O   0  0  0  0  0  0  0  0  0  0  0  0
    2.2642   -5.9868   45.3170 C   0  0  0  0  0  0  0  0  0  0  0  0
    8.2622   -4.0752   46.4883 C   0  0  0  0  0  0  0  0  0  0  0  0
    9.0867   -4.7075   47.4385 C   0  0  0  0  0  0  0  0  0  0  0  0
    9.8464   -4.0760   48.3423 C   0  0  0  0  0  0  0  0  0  0  0  0
    9.1079   -1.9208   47.3156 C   0  0  0  0  0  0  0  0  0  0  0  0
   10.6163   -4.6976   49.3302 O   0  0  0  0  0  0  0  0  0  0  0  0
    9.8707   -2.5527   48.3427 C   0  0  0  0  0  0  0  0  0  0  0  0
   11.5210   -5.3681   48.8941 C   0  0  0  0  0  0  0  0  0  0  0  0
  1  2  1  0
  2  3  2  0
  3  4  1  0
  1  5  2  0
  4  5  1  0
  3  6  1  0
  4  7  2  0
  6  8  1  0
  8  9  1  0
  7 10  1  0
  9 11  1  0
  5 12  1  0
  7 13  1  0
  8 13  2  0
 10 14  1  0
 12 15  1  0
 12 16  2  0
 14 17  1  0
 15 18  1  0
 13 19  1  0
 16 20  1  0
 18 20  2  0
 11 21  1  0
 19 21  2  0
 21 22  1  0
 14 23  2  0
 11 24  2  0
 17 25  1  0
 22 26  2  0
 26 27  1  0
 27 28  2  0
 22 29  1  0
 28 30  1  0
 28 31  1  0
 29 31  2  0
 30 32  1  0
M  END
$$$$
O14757_Pocket2Mol_idx-in-all-generaetd-931
     RDKit          3D

 33 37  0  0  0  0  0  0  0  0999 V2000
    3.7044    0.1389   42.5158 N   0  0  0  0  0  0  0  0  0  0  0  0
    3.0206   -1.0018   42.4929 C   0  0  0  0  0  0  0  0  0  0  0  0
    3.4791   -2.0817   43.2077 C   0  0  0  0  0  0  0  0  0  0  0  0
    4.8540    0.3862   43.0582 N   0  0  0  0  0  0  0  0  0  0  0  0
    5.1377   -0.9552   43.7144 C   0  0  0  0  0  0  0  0  0  0  0  0
    1.5846   -1.0753   41.7644 C   0  0  0  0  0  0  0  0  0  0  0  0
    4.6026   -2.0358   43.8129 C   0  0  0  0  0  0  0  0  0  0  0  0
    5.1584   -3.1511   44.6069 C   0  0  0  0  0  0  0  0  0  0  0  0
    6.6094   -0.7911   44.3696 N   0  0  0  0  0  0  0  0  0  0  0  0
    4.4744   -4.3270   44.8472 C   0  0  0  0  0  0  0  0  0  0  0  0
    6.9275   -1.8713   45.2437 C   0  0  0  0  0  0  0  0  0  0  0  0
    8.2702   -1.7750   45.8768 C   0  0  0  0  0  0  0  0  0  0  0  0
    0.9365   -0.0867   41.7346 O   0  0  0  0  0  0  0  0  0  0  0  0
    6.2322   -3.0484   45.3118 C   0  0  0  0  0  0  0  0  0  0  0  0
    6.7747   -4.0433   46.1202 N   0  0  0  0  0  0  0  0  0  0  0  0
    1.2161   -2.2739   41.2518 N   0  0  0  0  0  0  0  0  0  0  0  0
    9.0373   -0.5649   45.9132 O   0  0  0  0  0  0  0  0  0  0  0  0
    3.8907   -5.0906   43.9511 O   0  0  0  0  0  0  0  0  0  0  0  0
    4.3454   -4.8388   46.1621 N   0  0  0  0  0  0  0  0  0  0  0  0
    3.4531   -5.8952   46.4159 C   0  0  0  0  0  0  0  0  0  0  0  0
    8.7091   -2.8031   46.6693 N   0  0  0  0  0  0  0  0  0  0  0  0
    5.4910   -4.7959   46.9467 C   0  0  0  0  0  0  0  0  0  0  0  0
    7.8496   -3.9145   46.8373 C   0  0  0  0  0  0  0  0  0  0  0  0
    8.5639   -5.1140   47.3215 O   0  0  0  0  0  0  0  0  0  0  0  0
    9.9254   -2.6675   47.4187 C   0  0  2  0  0  0  0  0  0  0  0  0
    9.8657   -1.8897   48.5483 C   0  0  0  0  0  0  0  0  0  0  0  0
   11.0142   -2.1407   46.5238 C   0  0  0  0  0  0  0  0  0  0  0  0
   12.3267   -2.5211   46.9519 C   0  0  1  0  0  0  0  0  0  0  0  0
   11.1820   -2.0774   49.4108 C   0  0  0  0  0  0  0  0  0  0  0  0
   13.4857   -2.1766   46.1991 C   0  0  0  0  0  0  0  0  0  0  0  0
   14.5893   -2.5657   46.5115 O   0  0  0  0  0  0  0  0  0  0  0  0
   13.2758   -1.7675   44.9447 O   0  0  0  0  0  0  0  0  0  0  0  0
   12.5665   -1.6474   48.2233 C   0  0  0  0  0  0  0  0  0  0  0  0
  1  2  2  0
  2  3  1  0
  1  4  1  0
  4  5  2  0
  2  6  1  0
  3  7  2  0
  5  7  1  0
  7  8  1  0
  5  9  1  0
  8 10  1  0
  9 11  2  0
 11 12  1  0
  6 13  2  0
  8 14  2  0
 11 14  1  0
 14 15  1  0
  6 16  1  0
 12 17  2  0
 10 18  2  0
 10 19  1  0
 19 20  1  0
 12 21  1  0
 15 22  1  0
 19 22  1  0
 15 23  1  0
 21 23  1  0
 23 24  2  0
 25 21  1  6
 25 26  1  0
 25 27  1  0
 27 28  1  0
 26 29  1  0
 28 30  1  6
 30 31  1  0
 30 32  2  0
 28 33  1  0
 29 33  1  0
M  END
$$$$
O14757_Pocket2Mol_idx-in-all-generaetd-932
     RDKit          3D

 39 46  0  0  0  0  0  0  0  0999 V2000
    1.5482   -0.3111   41.9233 C   0  0  0  0  0  0  0  0  0  0  0  0
    2.7284    0.2018   42.1525 N   0  0  0  0  0  0  0  0  0  0  0  0
    3.7893   -0.3016   42.7005 C   0  0  0  0  0  0  0  0  0  0  0  0
    3.3781   -1.7350   43.0000 C   0  0  0  0  0  0  0  0  0  0  0  0
    2.0339   -1.9619   42.6217 C   0  0  0  0  0  0  0  0  0  0  0  0
    5.0090    0.1219   42.9340 N   0  0  0  0  0  0  0  0  0  0  0  0
    4.2895   -2.4979   43.6707 C   0  0  0  0  0  0  0  0  0  0  0  0
    5.8391   -0.6675   43.6343 C   0  0  0  0  0  0  0  0  0  0  0  0
    6.9849   -0.2377   44.0028 N   0  0  0  0  0  0  0  0  0  0  0  0
    4.0426   -3.8794   44.0832 C   0  0  0  0  0  0  0  0  0  0  0  0
    7.6796   -0.8734   44.9326 C   0  0  0  0  0  0  0  0  0  0  0  0
    1.1064   -2.9576   42.4211 C   0  0  0  0  0  0  0  0  0  0  0  0
    5.5298   -1.9496   44.0315 C   0  0  0  0  0  0  0  0  0  0  0  0
    3.8954   -4.1817   45.4718 C   0  0  0  0  0  0  0  0  0  0  0  0
    0.6765   -3.5480   43.4006 C   0  0  1  0  0  0  0  0  0  0  0  0
    0.5804   -3.2191   41.1635 C   0  0  0  0  0  0  0  0  0  0  0  0
    2.8083   -4.8227   45.9203 N   0  0  0  0  0  0  0  0  0  0  0  0
   -0.1574   -4.5754   42.9329 N   0  0  0  0  0  0  0  0  0  0  0  0
    6.5271   -2.5531   44.9677 C   0  0  0  0  0  0  0  0  0  0  0  0
   -0.2272   -4.3703   41.5137 C   0  0  0  0  0  0  0  0  0  0  0  0
    7.5095   -2.0029   45.3993 C   0  0  0  0  0  0  0  0  0  0  0  0
    8.2550   -2.6982   46.3988 C   0  0  0  0  0  0  0  0  0  0  0  0
    8.8975   -0.3029   45.3267 O   0  0  0  0  0  0  0  0  0  0  0  0
    4.8299   -4.4637   46.4212 C   0  0  0  0  0  0  0  0  0  0  0  0
    4.2707   -4.9248   47.6295 N   0  0  0  0  0  0  0  0  0  0  0  0
    3.2045   -5.2092   47.1521 C   0  0  0  0  0  0  0  0  0  0  0  0
    1.4482   -4.6186   45.4134 C   0  0  2  0  0  0  0  0  0  0  0  0
    1.2398   -3.5043   44.6236 O   0  0  0  0  0  0  0  0  0  0  0  0
    6.3317   -3.9297   46.0870 C   0  0  2  0  0  0  0  0  0  0  0  0
    9.5296   -2.5449   46.9776 C   0  0  0  0  0  0  0  0  0  0  0  0
    9.7921   -1.7530   47.9018 O   0  0  0  0  0  0  0  0  0  0  0  0
    7.3972   -3.8130   46.7939 C   0  0  0  0  0  0  0  0  0  0  0  0
   10.4154   -3.4217   46.6883 O   0  0  0  0  0  0  0  0  0  0  0  0
    0.5555   -4.7535   46.5674 C   0  0  0  0  0  0  0  0  0  0  0  0
   11.6497   -3.0596   47.0439 C   0  0  0  0  0  0  0  0  0  0  0  0
   12.3878   -4.1125   47.6990 C   0  0  0  0  0  0  0  0  0  0  0  0
   13.3113   -4.6807   47.0100 C   0  0  0  0  0  0  0  0  0  0  0  0
   14.5737   -4.1624   47.0119 C   0  0  0  0  0  0  0  0  0  0  0  0
   15.1697   -3.6692   45.8838 O   0  0  0  0  0  0  0  0  0  0  0  0
  1  2  1  0
  2  3  2  0
  3  4  1  0
  1  5  2  0
  4  5  1  0
  3  6  1  0
  4  7  2  0
  6  8  1  0
  8  9  1  0
  7 10  1  0
  9 11  1  0
  5 12  1  0
  7 13  1  0
  8 13  2  0
 10 14  1  0
 12 15  1  0
 12 16  2  0
 14 17  1  0
 15 18  1  0
 13 19  1  0
 16 20  1  0
 18 20  2  0
 11 21  1  0
 19 21  2  0
 21 22  1  0
 11 23  2  0
 14 24  2  0
 24 25  1  0
 17 26  1  0
 25 26  2  0
 17 27  1  0
 15 28  1  6
 27 28  1  0
 19 29  1  0
 24 29  1  0
 22 30  1  0
 30 31  2  0
 22 32  2  0
 29 32  1  1
 30 33  1  0
 27 34  1  1
 33 35  1  0
 35 36  1  0
 36 37  1  0
 37 38  1  0
 38 39  1  0
M  END
$$$$
O14757_Pocket2Mol_idx-in-all-generaetd-933
     RDKit          3D

 30 34  0  0  0  0  0  0  0  0999 V2000
    5.3420    0.2589   42.8836 O   0  0  0  0  0  0  0  0  0  0  0  0
    5.1627   -0.7554   43.4753 C   0  0  0  0  0  0  0  0  0  0  0  0
    4.0509   -1.4657   43.4177 N   0  0  0  0  0  0  0  0  0  0  0  0
    5.9969   -1.2317   44.6840 C   0  0  0  0  0  0  0  0  0  0  0  0
    2.9618   -1.1021   42.5918 C   0  0  0  0  0  0  0  0  0  0  0  0
    7.3392   -0.8596   44.8412 C   0  0  0  0  0  0  0  0  0  0  0  0
    1.9754   -2.0820   42.2741 C   0  0  0  0  0  0  0  0  0  0  0  0
    5.5910   -2.4282   45.3439 C   0  0  0  0  0  0  0  0  0  0  0  0
    6.5874   -2.9636   46.1581 C   0  0  0  0  0  0  0  0  0  0  0  0
    4.2763   -3.0680   45.0493 N   0  0  0  0  0  0  0  0  0  0  0  0
    3.6188   -2.5886   44.2024 C   0  0  0  0  0  0  0  0  0  0  0  0
    8.1921   -1.4071   45.7505 C   0  0  0  0  0  0  0  0  0  0  0  0
    1.0154   -1.8839   41.2980 C   0  0  0  0  0  0  0  0  0  0  0  0
    2.5720   -3.3564   43.9063 C   0  0  0  0  0  0  0  0  0  0  0  0
    0.2502   -2.8976   41.0751 C   0  0  0  0  0  0  0  0  0  0  0  0
    0.2230   -3.9124   42.0516 C   0  0  0  0  0  0  0  0  0  0  0  0
    2.2879   -4.6260   44.7113 N   0  0  0  0  0  0  0  0  0  0  0  0
    1.7585   -3.1585   42.9749 N   0  0  0  0  0  0  0  0  0  0  0  0
    7.7776   -2.5440   46.4766 C   0  0  0  0  0  0  0  0  0  0  0  0
    0.8620   -4.0153   42.9214 C   0  0  0  0  0  0  0  0  0  0  0  0
    2.9942   -0.0014   41.9856 O   0  0  0  0  0  0  0  0  0  0  0  0
    8.6110   -3.0684   47.3244 O   0  0  0  0  0  0  0  0  0  0  0  0
    9.7976   -3.4246   46.8484 C   0  0  0  0  0  0  0  0  0  0  0  0
   10.8224   -2.4283   47.1956 C   0  0  1  0  0  0  0  0  0  0  0  0
    0.9965   -5.0741   43.9477 C   0  0  0  0  0  0  0  0  0  0  0  0
   11.8808   -2.2748   46.3886 C   0  0  0  0  0  0  0  0  0  0  0  0
   12.0850   -1.3351   45.5396 O   0  0  0  0  0  0  0  0  0  0  0  0
   13.0656   -2.9043   46.6034 O   0  0  0  0  0  0  0  0  0  0  0  0
   10.2232   -1.1932   47.6124 N   0  0  0  0  0  0  0  0  0  0  0  0
   10.6876   -0.6476   48.8058 C   0  0  0  0  0  0  0  0  0  0  0  0
  1  2  2  0
  2  3  1  0
  2  4  1  0
  3  5  1  0
  4  6  2  0
  5  7  1  0
  4  8  1  0
  8  9  2  0
  8 10  1  0
  3 11  1  0
 10 11  2  0
  6 12  1  0
  7 13  2  0
 11 14  1  0
 13 15  1  0
 15 16  2  0
 14 17  2  0
  7 18  1  0
 14 18  1  0
  9 19  1  0
 12 19  2  0
 16 20  1  0
 18 20  1  0
  5 21  2  0
 19 22  1  0
 22 23  1  0
 24 23  1  6
 17 25  1  0
 20 25  2  0
 24 26  1  0
 26 27  2  0
 26 28  1  0
 24 29  1  0
 29 30  1  0
M  END
$$$$
O14757_Pocket2Mol_idx-in-all-generaetd-934
     RDKit          3D

 41 47  0  0  0  0  0  0  0  0999 V2000
    5.3420    0.2589   42.8836 O   0  0  0  0  0  0  0  0  0  0  0  0
    5.1627   -0.7554   43.4753 C   0  0  0  0  0  0  0  0  0  0  0  0
    4.0509   -1.4657   43.4177 N   0  0  0  0  0  0  0  0  0  0  0  0
    5.9969   -1.2317   44.6840 C   0  0  0  0  0  0  0  0  0  0  0  0
    2.9618   -1.1021   42.5918 C   0  0  1  0  0  0  0  0  0  0  0  0
    7.3392   -0.8596   44.8412 C   0  0  0  0  0  0  0  0  0  0  0  0
    1.9754   -2.0820   42.2741 C   0  0  0  0  0  0  0  0  0  0  0  0
    5.5910   -2.4282   45.3439 C   0  0  0  0  0  0  0  0  0  0  0  0
    6.5874   -2.9636   46.1581 C   0  0  0  0  0  0  0  0  0  0  0  0
    4.2763   -3.0680   45.0493 N   0  0  0  0  0  0  0  0  0  0  0  0
    3.6188   -2.5886   44.2024 C   0  0  0  0  0  0  0  0  0  0  0  0
    8.1921   -1.4071   45.7505 C   0  0  0  0  0  0  0  0  0  0  0  0
    1.0154   -1.8839   41.2980 C   0  0  0  0  0  0  0  0  0  0  0  0
    2.5720   -3.3564   43.9063 C   0  0  0  0  0  0  0  0  0  0  0  0
    0.2502   -2.8976   41.0751 C   0  0  0  0  0  0  0  0  0  0  0  0
    6.1761   -4.1775   47.0209 C   0  0  0  0  0  0  0  0  0  0  0  0
    1.7266   -3.1047   43.0115 C   0  0  2  0  0  0  0  0  0  0  0  0
    2.3696   -4.5367   44.7536 N   0  0  0  0  0  0  0  0  0  0  0  0
    1.2264   -5.2346   44.4693 C   0  0  0  0  0  0  0  0  0  0  0  0
    0.7187   -3.8955   42.5465 C   0  0  0  0  0  0  0  0  0  0  0  0
    9.4576   -0.8949   46.0327 N   0  0  0  0  0  0  0  0  0  0  0  0
    0.8625   -6.3901   45.2462 C   0  0  0  0  0  0  0  0  0  0  0  0
    7.6467   -2.5139   46.4892 C   0  0  0  0  0  0  0  0  0  0  0  0
   10.4908   -1.5336   45.8242 C   0  0  0  0  0  0  0  0  0  0  0  0
    0.3057   -4.9299   43.2909 C   0  0  0  0  0  0  0  0  0  0  0  0
   11.5916   -1.4291   46.7436 C   0  0  0  0  0  0  0  0  0  0  0  0
   10.5566   -2.3672   44.8649 O   0  0  0  0  0  0  0  0  0  0  0  0
   12.8421   -1.9355   46.2823 C   0  0  0  0  0  0  0  0  0  0  0  0
   13.4833   -2.8582   46.9841 C   0  0  0  0  0  0  0  0  0  0  0  0
   11.4002   -1.1447   48.0540 C   0  0  0  0  0  0  0  0  0  0  0  0
   10.2867   -0.4569   48.4999 O   0  0  0  0  0  0  0  0  0  0  0  0
   12.3327   -1.4798   48.9564 C   0  0  0  0  0  0  0  0  0  0  0  0
   14.7901   -3.3162   46.6439 C   0  0  0  0  0  0  0  0  0  0  0  0
    2.4608    0.2113   42.8511 C   0  0  0  0  0  0  0  0  0  0  0  0
   13.6779   -2.2436   48.5402 C   0  0  0  0  0  0  0  0  0  0  0  0
   15.7804   -2.8363   45.9884 C   0  0  0  0  0  0  0  0  0  0  0  0
   16.8968   -3.6083   45.5097 C   0  0  0  0  0  0  0  0  0  0  0  0
   16.9662   -4.9390   45.8576 C   0  0  0  0  0  0  0  0  0  0  0  0
   18.1109   -5.6759   45.4190 O   0  0  0  0  0  0  0  0  0  0  0  0
   14.6814   -4.7574   47.2531 C   0  0  0  0  0  0  0  0  0  0  0  0
   16.0439   -5.6535   46.7115 C   0  0  0  0  0  0  0  0  0  0  0  0
  1  2  2  0
  2  3  1  0
  2  4  1  0
  3  5  1  0
  4  6  2  0
  5  7  1  0
  4  8  1  0
  8  9  2  0
  8 10  1  0
  3 11  1  0
 10 11  2  0
  6 12  1  0
  7 13  2  0
 11 14  1  0
 13 15  1  0
  9 16  1  0
 17  7  1  6
 14 17  1  0
 14 18  2  0
 18 19  1  0
 15 20  2  0
 17 20  1  0
 12 21  1  0
 19 22  1  0
  9 23  1  0
 12 23  2  0
 21 24  1  0
 19 25  2  0
 20 25  1  0
 24 26  1  0
 24 27  2  0
 26 28  2  0
 28 29  1  0
 26 30  1  0
 30 31  1  0
 30 32  2  0
 29 33  1  0
  5 34  1  1
 29 35  2  0
 32 35  1  0
 33 36  2  0
 36 37  1  0
 37 38  2  0
 38 39  1  0
 33 40  1  0
 38 41  1  0
 40 41  2  0
M  END
$$$$
O14757_Pocket2Mol_idx-in-all-generaetd-935
     RDKit          3D

 38 45  0  0  0  0  0  0  0  0999 V2000
    1.5482   -0.3111   41.9233 C   0  0  0  0  0  0  0  0  0  0  0  0
    2.7284    0.2018   42.1525 N   0  0  0  0  0  0  0  0  0  0  0  0
    3.7893   -0.3016   42.7005 C   0  0  0  0  0  0  0  0  0  0  0  0
    3.3781   -1.7350   43.0000 C   0  0  0  0  0  0  0  0  0  0  0  0
    2.0339   -1.9619   42.6217 C   0  0  0  0  0  0  0  0  0  0  0  0
    5.0090    0.1219   42.9340 N   0  0  0  0  0  0  0  0  0  0  0  0
    4.2895   -2.4979   43.6707 C   0  0  0  0  0  0  0  0  0  0  0  0
    5.8391   -0.6675   43.6343 C   0  0  0  0  0  0  0  0  0  0  0  0
    6.9849   -0.2377   44.0028 N   0  0  0  0  0  0  0  0  0  0  0  0
    4.0426   -3.8794   44.0832 C   0  0  0  0  0  0  0  0  0  0  0  0
    7.6796   -0.8734   44.9326 C   0  0  0  0  0  0  0  0  0  0  0  0
    1.1064   -2.9576   42.4211 C   0  0  0  0  0  0  0  0  0  0  0  0
    5.5298   -1.9496   44.0315 C   0  0  0  0  0  0  0  0  0  0  0  0
    3.8954   -4.1817   45.4718 C   0  0  0  0  0  0  0  0  0  0  0  0
    0.6765   -3.5480   43.4006 C   0  0  1  0  0  0  0  0  0  0  0  0
    0.5804   -3.2191   41.1635 C   0  0  0  0  0  0  0  0  0  0  0  0
    2.8083   -4.8227   45.9203 N   0  0  0  0  0  0  0  0  0  0  0  0
   -0.1574   -4.5754   42.9329 N   0  0  0  0  0  0  0  0  0  0  0  0
    6.5271   -2.5531   44.9677 C   0  0  0  0  0  0  0  0  0  0  0  0
   -0.2272   -4.3703   41.5137 C   0  0  0  0  0  0  0  0  0  0  0  0
    7.5095   -2.0029   45.3993 C   0  0  0  0  0  0  0  0  0  0  0  0
    8.2550   -2.6982   46.3988 C   0  0  0  0  0  0  0  0  0  0  0  0
    8.8975   -0.3029   45.3267 O   0  0  0  0  0  0  0  0  0  0  0  0
    4.8299   -4.4637   46.4212 C   0  0  0  0  0  0  0  0  0  0  0  0
    4.2707   -4.9248   47.6295 N   0  0  0  0  0  0  0  0  0  0  0  0
    3.2045   -5.2092   47.1521 C   0  0  0  0  0  0  0  0  0  0  0  0
    1.4482   -4.6186   45.4134 C   0  0  1  0  0  0  0  0  0  0  0  0
    1.2398   -3.5043   44.6236 O   0  0  0  0  0  0  0  0  0  0  0  0
    6.3317   -3.9297   46.0870 C   0  0  2  0  0  0  0  0  0  0  0  0
    9.5296   -2.5449   46.9776 C   0  0  0  0  0  0  0  0  0  0  0  0
    9.7921   -1.7530   47.9018 O   0  0  0  0  0  0  0  0  0  0  0  0
    7.3972   -3.8130   46.7939 C   0  0  0  0  0  0  0  0  0  0  0  0
    1.2392   -5.7793   44.5610 C   0  0  0  0  0  0  0  0  0  0  0  0
   10.4934   -3.0755   46.3117 N   0  0  0  0  0  0  0  0  0  0  0  0
   11.8909   -2.7870   46.6074 C   0  0  0  0  0  0  0  0  0  0  0  0
   12.5823   -3.7629   46.9107 C   0  0  0  0  0  0  0  0  0  0  0  0
   12.0631   -4.9385   46.9969 O   0  0  0  0  0  0  0  0  0  0  0  0
   13.7495   -3.6593   47.6031 O   0  0  0  0  0  0  0  0  0  0  0  0
  1  2  1  0
  2  3  2  0
  3  4  1  0
  1  5  2  0
  4  5  1  0
  3  6  1  0
  4  7  2  0
  6  8  1  0
  8  9  1  0
  7 10  1  0
  9 11  1  0
  5 12  1  0
  7 13  1  0
  8 13  2  0
 10 14  1  0
 12 15  1  0
 12 16  2  0
 14 17  1  0
 15 18  1  0
 13 19  1  0
 16 20  1  0
 18 20  2  0
 11 21  1  0
 19 21  2  0
 21 22  1  0
 11 23  2  0
 14 24  2  0
 24 25  1  0
 17 26  1  0
 25 26  2  0
 17 27  1  0
 15 28  1  6
 27 28  1  0
 19 29  1  0
 24 29  1  0
 22 30  1  0
 30 31  2  0
 22 32  2  0
 29 32  1  1
 27 33  1  6
 30 34  1  0
 34 35  1  0
 35 36  1  0
 36 37  1  0
 36 38  2  0
M  END
$$$$
O14757_Pocket2Mol_idx-in-all-generaetd-936
     RDKit          3D

 48 57  0  0  0  0  0  0  0  0999 V2000
    1.5482   -0.3111   41.9233 C   0  0  0  0  0  0  0  0  0  0  0  0
    2.7284    0.2018   42.1525 N   0  0  0  0  0  0  0  0  0  0  0  0
    3.7893   -0.3016   42.7005 C   0  0  0  0  0  0  0  0  0  0  0  0
    3.3781   -1.7350   43.0000 C   0  0  0  0  0  0  0  0  0  0  0  0
    2.0339   -1.9619   42.6217 C   0  0  0  0  0  0  0  0  0  0  0  0
    5.0090    0.1219   42.9340 N   0  0  0  0  0  0  0  0  0  0  0  0
    4.2895   -2.4979   43.6707 C   0  0  0  0  0  0  0  0  0  0  0  0
    5.8391   -0.6675   43.6343 C   0  0  0  0  0  0  0  0  0  0  0  0
    6.9849   -0.2377   44.0028 N   0  0  0  0  0  0  0  0  0  0  0  0
    4.0426   -3.8794   44.0832 C   0  0  0  0  0  0  0  0  0  0  0  0
    7.6796   -0.8734   44.9326 C   0  0  0  0  0  0  0  0  0  0  0  0
    1.1064   -2.9576   42.4211 C   0  0  0  0  0  0  0  0  0  0  0  0
    5.5298   -1.9496   44.0315 C   0  0  0  0  0  0  0  0  0  0  0  0
    3.8954   -4.1817   45.4718 C   0  0  0  0  0  0  0  0  0  0  0  0
    0.6765   -3.5480   43.4006 C   0  0  1  0  0  0  0  0  0  0  0  0
    0.5804   -3.2191   41.1635 C   0  0  0  0  0  0  0  0  0  0  0  0
    2.8083   -4.8227   45.9203 N   0  0  0  0  0  0  0  0  0  0  0  0
   -0.1574   -4.5754   42.9329 N   0  0  0  0  0  0  0  0  0  0  0  0
    6.5271   -2.5531   44.9677 C   0  0  0  0  0  0  0  0  0  0  0  0
   -0.2272   -4.3703   41.5137 C   0  0  0  0  0  0  0  0  0  0  0  0
    7.5095   -2.0029   45.3993 C   0  0  0  0  0  0  0  0  0  0  0  0
    8.2550   -2.6982   46.3988 C   0  0  1  0  0  0  0  0  0  0  0  0
    8.8975   -0.3029   45.3267 O   0  0  0  0  0  0  0  0  0  0  0  0
    4.8299   -4.4637   46.4212 C   0  0  0  0  0  0  0  0  0  0  0  0
    4.2707   -4.9248   47.6295 N   0  0  0  0  0  0  0  0  0  0  0  0
    3.2045   -5.2092   47.1521 C   0  0  0  0  0  0  0  0  0  0  0  0
    1.4482   -4.6186   45.4134 C   0  0  0  0  0  0  0  0  0  0  0  0
    1.3256   -3.7660   44.6394 N   0  0  0  0  0  0  0  0  0  0  0  0
    9.2816   -2.1418   47.1273 N   0  0  0  0  0  0  0  0  0  0  0  0
   10.0629   -3.1324   47.8508 C   0  0  0  0  0  0  0  0  0  0  0  0
    6.3491   -3.8960   46.0844 C   0  0  2  0  0  0  0  0  0  0  0  0
    7.4349   -3.5889   46.9054 C   0  0  0  0  0  0  0  0  0  0  0  0
   10.3145   -2.7271   49.0818 O   0  0  0  0  0  0  0  0  0  0  0  0
    0.6213   -5.4445   45.7455 O   0  0  0  0  0  0  0  0  0  0  0  0
   11.0262   -3.8136   47.1050 C   0  0  0  0  0  0  0  0  0  0  0  0
   12.1704   -3.3854   46.7547 C   0  0  0  0  0  0  0  0  0  0  0  0
   13.1080   -4.1111   46.0053 C   0  0  0  0  0  0  0  0  0  0  0  0
   14.3489   -3.5966   45.7888 C   0  0  0  0  0  0  0  0  0  0  0  0
   12.7430   -5.2725   45.5056 C   0  0  0  0  0  0  0  0  0  0  0  0
   10.8315   -5.3520   46.8908 C   0  0  0  0  0  0  0  0  0  0  0  0
   11.5834   -5.8795   45.9965 C   0  0  0  0  0  0  0  0  0  0  0  0
   14.5673   -2.2844   45.3294 C   0  0  0  0  0  0  0  0  0  0  0  0
   15.6990   -1.9377   44.9307 C   0  0  0  0  0  0  0  0  0  0  0  0
   15.4698   -4.3840   45.9734 C   0  0  0  0  0  0  0  0  0  0  0  0
   15.3726   -5.7464   46.5341 O   0  0  0  0  0  0  0  0  0  0  0  0
   15.3365   -5.8380   47.7232 C   0  0  0  0  0  0  0  0  0  0  0  0
   16.8318   -2.9001   45.0996 C   0  0  0  0  0  0  0  0  0  0  0  0
   16.7375   -3.9742   45.5653 C   0  0  0  0  0  0  0  0  0  0  0  0
  1  2  1  0
  2  3  2  0
  3  4  1  0
  1  5  2  0
  4  5  1  0
  3  6  1  0
  4  7  2  0
  6  8  1  0
  8  9  1  0
  7 10  1  0
  9 11  1  0
  5 12  1  0
  7 13  1  0
  8 13  2  0
 10 14  1  0
 12 15  1  0
 12 16  2  0
 14 17  1  0
 15 18  1  0
 13 19  1  0
 16 20  1  0
 18 20  2  0
 11 21  1  0
 19 21  2  0
 21 22  1  0
 11 23  2  0
 14 24  2  0
 24 25  1  0
 17 26  1  0
 25 26  2  0
 17 27  1  0
 15 28  1  6
 27 28  1  0
 22 29  1  1
 29 30  1  0
 19 31  1  0
 24 31  1  0
 22 32  1  0
 31 32  1  1
 30 33  2  0
 27 34  2  0
 30 35  1  0
 35 36  2  0
 36 37  1  0
 37 38  1  0
 37 39  2  0
 35 40  1  0
 39 41  1  0
 40 41  2  0
 38 42  2  0
 42 43  1  0
 38 44  1  0
 44 45  1  0
 45 46  1  0
 43 47  2  0
 44 48  2  0
 47 48  1  0
M  END
$$$$
O14757_Pocket2Mol_idx-in-all-generaetd-937
     RDKit          3D

 31 36  0  0  0  0  0  0  0  0999 V2000
    1.5482   -0.3111   41.9233 C   0  0  0  0  0  0  0  0  0  0  0  0
    2.7284    0.2018   42.1525 N   0  0  0  0  0  0  0  0  0  0  0  0
    3.7893   -0.3016   42.7005 C   0  0  0  0  0  0  0  0  0  0  0  0
    3.3781   -1.7350   43.0000 C   0  0  0  0  0  0  0  0  0  0  0  0
    2.0339   -1.9619   42.6217 C   0  0  0  0  0  0  0  0  0  0  0  0
    5.0090    0.1219   42.9340 N   0  0  0  0  0  0  0  0  0  0  0  0
    4.2895   -2.4979   43.6707 C   0  0  0  0  0  0  0  0  0  0  0  0
    5.8391   -0.6675   43.6343 C   0  0  0  0  0  0  0  0  0  0  0  0
    6.9849   -0.2377   44.0028 N   0  0  0  0  0  0  0  0  0  0  0  0
    4.0426   -3.8794   44.0832 C   0  0  0  0  0  0  0  0  0  0  0  0
    7.6796   -0.8734   44.9326 C   0  0  0  0  0  0  0  0  0  0  0  0
    1.1064   -2.9576   42.4211 C   0  0  0  0  0  0  0  0  0  0  0  0
    5.5298   -1.9496   44.0315 C   0  0  0  0  0  0  0  0  0  0  0  0
    3.8954   -4.1817   45.4718 C   0  0  0  0  0  0  0  0  0  0  0  0
    0.6765   -3.5480   43.4006 C   0  0  0  0  0  0  0  0  0  0  0  0
    0.5804   -3.2191   41.1635 C   0  0  0  0  0  0  0  0  0  0  0  0
    2.8083   -4.8227   45.9203 N   0  0  0  0  0  0  0  0  0  0  0  0
   -0.2895   -4.3411   41.4783 C   0  0  0  0  0  0  0  0  0  0  0  0
    1.6241   -4.1113   46.2493 C   0  0  0  0  0  0  0  0  0  0  0  0
    6.2863   -2.7050   44.9803 C   0  0  0  0  0  0  0  0  0  0  0  0
    1.0882   -3.7164   44.7216 C   0  0  0  0  0  0  0  0  0  0  0  0
    8.8985   -0.3341   45.3420 O   0  0  0  0  0  0  0  0  0  0  0  0
    7.4055   -2.1315   45.4246 C   0  0  0  0  0  0  0  0  0  0  0  0
   -0.2918   -4.5804   42.8509 N   0  0  0  0  0  0  0  0  0  0  0  0
    8.3728   -2.8281   46.3777 C   0  0  0  0  0  0  0  0  0  0  0  0
    8.4072   -4.1332   46.4009 C   0  0  0  0  0  0  0  0  0  0  0  0
    9.3109   -2.2410   47.2139 C   0  0  0  0  0  0  0  0  0  0  0  0
    9.1730   -4.9411   47.1540 C   0  0  0  0  0  0  0  0  0  0  0  0
    9.1203   -6.3907   47.0855 O   0  0  0  0  0  0  0  0  0  0  0  0
   10.1020   -4.3285   48.0302 C   0  0  0  0  0  0  0  0  0  0  0  0
   10.1544   -2.9557   48.0567 C   0  0  0  0  0  0  0  0  0  0  0  0
  1  2  1  0
  2  3  2  0
  3  4  1  0
  1  5  2  0
  4  5  1  0
  3  6  1  0
  4  7  2  0
  6  8  1  0
  8  9  1  0
  7 10  1  0
  9 11  1  0
  5 12  1  0
  7 13  1  0
  8 13  2  0
 10 14  1  0
 12 15  1  0
 12 16  2  0
 14 17  1  0
 16 18  1  0
 17 19  1  0
 13 20  1  0
 15 21  2  3
 19 21  1  0
 11 22  2  0
 11 23  1  0
 20 23  2  0
 15 24  1  0
 18 24  2  0
 23 25  1  0
 25 26  2  0
 25 27  1  0
 26 28  1  0
 28 29  1  0
 28 30  2  0
 27 31  2  0
 30 31  1  0
M  END
$$$$
O14757_Pocket2Mol_idx-in-all-generaetd-938
     RDKit          3D

 36 41  0  0  0  0  0  0  0  0999 V2000
    4.5156    0.0550   42.9895 N   0  0  0  0  0  0  0  0  0  0  0  0
    5.0618   -0.8645   43.5295 C   0  0  0  0  0  0  0  0  0  0  0  0
    4.4350   -2.0604   43.7783 C   0  0  0  0  0  0  0  0  0  0  0  0
    4.9987   -3.0994   44.5839 C   0  0  0  0  0  0  0  0  0  0  0  0
    3.2714   -1.8664   43.0632 C   0  0  0  0  0  0  0  0  0  0  0  0
    6.4064   -0.5942   44.3204 N   0  0  0  0  0  0  0  0  0  0  0  0
    4.3422   -4.3256   44.7203 C   0  0  0  0  0  0  0  0  0  0  0  0
    2.1845   -2.6668   42.8270 N   0  0  0  0  0  0  0  0  0  0  0  0
    3.3305   -0.5395   42.5465 N   0  0  0  0  0  0  0  0  0  0  0  0
    1.9502   -3.8972   43.4076 C   0  0  0  0  0  0  0  0  0  0  0  0
    2.7156   -4.1184   44.6954 N   0  0  0  0  0  0  0  0  0  0  0  0
    6.8581   -1.5862   45.1101 C   0  0  0  0  0  0  0  0  0  0  0  0
    6.1801   -2.8430   45.2383 C   0  0  0  0  0  0  0  0  0  0  0  0
    2.1454   -5.1901   45.5771 C   0  0  0  0  0  0  0  0  0  0  0  0
    8.0137   -1.3946   45.8526 C   0  0  0  0  0  0  0  0  0  0  0  0
    0.9733   -4.5725   43.2066 O   0  0  0  0  0  0  0  0  0  0  0  0
    2.2437    0.0035   41.8733 C   0  0  0  0  0  0  0  0  0  0  0  0
    1.3210   -2.2077   41.7009 C   0  0  0  0  0  0  0  0  0  0  0  0
    8.6047   -2.2876   46.6923 C   0  0  0  0  0  0  0  0  0  0  0  0
    7.9141   -3.5157   46.8869 C   0  0  0  0  0  0  0  0  0  0  0  0
    1.0501   -0.8658   41.6612 C   0  0  0  0  0  0  0  0  0  0  0  0
    6.7278   -3.7718   46.2525 C   0  0  0  0  0  0  0  0  0  0  0  0
    9.8280   -2.0492   47.3361 C   0  0  0  0  0  0  0  0  0  0  0  0
    9.8262   -1.5735   48.5432 C   0  0  0  0  0  0  0  0  0  0  0  0
   11.0745   -2.0905   46.6735 C   0  0  0  0  0  0  0  0  0  0  0  0
    8.5798   -1.4294   49.3788 F   0  0  0  0  0  0  0  0  0  0  0  0
   12.2255   -1.7445   47.2852 C   0  0  0  0  0  0  0  0  0  0  0  0
   11.0129   -1.2913   49.2988 C   0  0  0  0  0  0  0  0  0  0  0  0
   10.9974   -0.9794   50.7055 O   0  0  0  0  0  0  0  0  0  0  0  0
   11.7986   -1.6311   51.4746 C   0  0  0  0  0  0  0  0  0  0  0  0
   12.2652   -1.3740   48.4834 C   0  0  0  0  0  0  0  0  0  0  0  0
   13.6236   -1.8485   46.4295 C   0  0  0  0  0  0  0  0  0  0  0  0
   13.5899   -1.2543   45.2659 N   0  0  0  0  0  0  0  0  0  0  0  0
   14.6024   -1.3863   44.4649 C   0  0  0  0  0  0  0  0  0  0  0  0
   15.6751   -1.9710   44.7566 O   0  0  0  0  0  0  0  0  0  0  0  0
   14.6208   -0.5145   43.2566 C   0  0  0  0  0  0  0  0  0  0  0  0
  1  2  2  0
  2  3  1  0
  3  4  1  0
  3  5  2  0
  2  6  1  0
  4  7  1  0
  5  8  1  0
  1  9  1  0
  5  9  1  0
  8 10  1  0
  7 11  1  0
 10 11  1  0
  6 12  2  0
  4 13  2  0
 12 13  1  0
 11 14  1  0
 12 15  1  0
 10 16  2  0
  9 17  1  0
  8 18  1  0
 15 19  2  0
 19 20  1  0
 17 21  1  0
 18 21  1  0
 13 22  1  0
 20 22  2  0
 19 23  1  0
 23 24  2  0
 23 25  1  0
 24 26  1  0
 25 27  2  0
 24 28  1  0
 28 29  1  0
 29 30  1  0
 27 31  1  0
 28 31  2  0
 27 32  1  0
 32 33  1  0
 33 34  1  0
 34 35  2  0
 34 36  1  0
M  END
$$$$
O14757_Pocket2Mol_idx-in-all-generaetd-939
     RDKit          3D

 44 51  0  0  0  0  0  0  0  0999 V2000
    1.5482   -0.3111   41.9233 C   0  0  0  0  0  0  0  0  0  0  0  0
    2.7284    0.2018   42.1525 N   0  0  0  0  0  0  0  0  0  0  0  0
    3.7893   -0.3016   42.7005 C   0  0  0  0  0  0  0  0  0  0  0  0
    3.3781   -1.7350   43.0000 C   0  0  0  0  0  0  0  0  0  0  0  0
    2.0339   -1.9619   42.6217 C   0  0  0  0  0  0  0  0  0  0  0  0
    4.1166   -2.4997   43.8458 C   0  0  0  0  0  0  0  0  0  0  0  0
    1.1731   -3.0051   42.5773 C   0  0  0  0  0  0  0  0  0  0  0  0
    0.4701   -3.2344   41.4901 C   0  0  0  0  0  0  0  0  0  0  0  0
    5.3799   -1.7814   44.2691 C   0  0  0  0  0  0  0  0  0  0  0  0
    5.0159   -0.0180   43.1201 N   0  0  0  0  0  0  0  0  0  0  0  0
    5.7693   -0.6937   43.8418 C   0  0  0  0  0  0  0  0  0  0  0  0
    0.8078   -3.6166   43.6782 C   0  0  0  0  0  0  0  0  0  0  0  0
    0.0663   -4.7011   43.7415 N   0  0  0  0  0  0  0  0  0  0  0  0
    6.2223   -2.6843   45.1565 C   0  0  0  0  0  0  0  0  0  0  0  0
    1.4459   -3.3095   45.0236 O   0  0  0  0  0  0  0  0  0  0  0  0
   -0.5278   -5.1074   42.5506 C   0  0  0  0  0  0  0  0  0  0  0  0
   -1.3099   -6.2193   42.5332 N   0  0  0  0  0  0  0  0  0  0  0  0
   -0.3906   -4.3573   41.3904 C   0  0  0  0  0  0  0  0  0  0  0  0
    7.0535   -0.4845   44.4478 N   0  0  0  0  0  0  0  0  0  0  0  0
    0.6210   -3.8397   46.1835 C   0  0  0  0  0  0  0  0  0  0  0  0
    6.2906   -3.7888   45.8815 C   0  0  0  0  0  0  0  0  0  0  0  0
    7.3965   -1.5466   45.3147 C   0  0  0  0  0  0  0  0  0  0  0  0
    5.1449   -4.4973   46.0473 O   0  0  0  0  0  0  0  0  0  0  0  0
    7.4148   -4.1081   46.6372 C   0  0  0  0  0  0  0  0  0  0  0  0
    8.5011   -3.1747   46.6693 C   0  0  0  0  0  0  0  0  0  0  0  0
    8.4580   -1.9168   46.0438 C   0  0  0  0  0  0  0  0  0  0  0  0
    9.8193   -3.4927   47.5654 C   0  0  1  0  0  0  0  0  0  0  0  0
    4.3482   -4.5667   47.1383 C   0  0  0  0  0  0  0  0  0  0  0  0
   10.8925   -3.4519   46.9633 C   0  0  0  0  0  0  0  0  0  0  0  0
   11.7691   -2.4393   47.2298 N   0  0  0  0  0  0  0  0  0  0  0  0
   11.5679   -1.6048   48.2682 C   0  0  0  0  0  0  0  0  0  0  0  0
   13.2337   -2.7224   46.9899 C   0  0  0  0  0  0  0  0  0  0  0  0
   11.1468   -4.1806   45.9346 O   0  0  0  0  0  0  0  0  0  0  0  0
   14.0674   -3.2434   47.7193 C   0  0  0  0  0  0  0  0  0  0  0  0
   13.7337   -3.8357   48.9955 C   0  0  0  0  0  0  0  0  0  0  0  0
   10.6978   -1.8484   49.2819 O   0  0  0  0  0  0  0  0  0  0  0  0
   15.4145   -3.0897   47.4674 C   0  0  0  0  0  0  0  0  0  0  0  0
    9.6185   -2.3722   48.7838 C   0  0  0  0  0  0  0  0  0  0  0  0
   13.6236   -2.2426   45.6742 C   0  0  0  0  0  0  0  0  0  0  0  0
   16.4002   -3.6862   48.4243 C   0  0  0  0  0  0  0  0  0  0  0  0
   14.5527   -4.4499   49.9458 C   0  0  0  0  0  0  0  0  0  0  0  0
   15.6892   -2.7136   46.1871 C   0  0  0  0  0  0  0  0  0  0  0  0
   15.9576   -4.2801   49.5539 C   0  0  0  0  0  0  0  0  0  0  0  0
   14.7372   -2.1077   45.3478 N   0  0  0  0  0  0  0  0  0  0  0  0
  1  2  1  0
  2  3  2  0
  3  4  1  0
  1  5  2  0
  4  5  1  0
  4  6  2  0
  5  7  1  0
  7  8  2  0
  6  9  1  0
  3 10  1  0
  9 11  1  0
 10 11  1  0
  7 12  1  0
 12 13  2  0
  9 14  2  0
 12 15  1  0
 13 16  1  0
 16 17  1  0
  8 18  1  0
 16 18  2  0
 11 19  2  0
 15 20  1  0
 14 21  1  0
 14 22  1  0
 19 22  1  0
 21 23  1  0
 21 24  2  0
 24 25  1  0
 22 26  2  0
 25 26  2  0
 27 25  1  6
 23 28  1  0
 27 29  1  0
 29 30  1  0
 30 31  1  0
 30 32  1  0
 29 33  2  0
 32 34  1  0
 34 35  2  0
 31 36  1  0
 34 37  1  0
 27 38  1  0
 36 38  1  0
 32 39  2  0
 37 40  2  0
 35 41  1  0
 37 42  1  0
 40 43  1  0
 41 43  2  0
 39 44  1  0
 42 44  2  0
M  END
$$$$
O14757_Pocket2Mol_idx-in-all-generaetd-940
     RDKit          3D

 49 58  0  0  0  0  0  0  0  0999 V2000
    1.5482   -0.3111   41.9233 C   0  0  0  0  0  0  0  0  0  0  0  0
    2.7284    0.2018   42.1525 N   0  0  0  0  0  0  0  0  0  0  0  0
    3.7893   -0.3016   42.7005 C   0  0  0  0  0  0  0  0  0  0  0  0
    3.3781   -1.7350   43.0000 C   0  0  0  0  0  0  0  0  0  0  0  0
    2.0339   -1.9619   42.6217 C   0  0  0  0  0  0  0  0  0  0  0  0
    5.0090    0.1219   42.9340 N   0  0  0  0  0  0  0  0  0  0  0  0
    4.2895   -2.4979   43.6707 C   0  0  0  0  0  0  0  0  0  0  0  0
    5.8391   -0.6675   43.6343 C   0  0  0  0  0  0  0  0  0  0  0  0
    6.9849   -0.2377   44.0028 N   0  0  0  0  0  0  0  0  0  0  0  0
    4.0426   -3.8794   44.0832 C   0  0  0  0  0  0  0  0  0  0  0  0
    7.6796   -0.8734   44.9326 C   0  0  0  0  0  0  0  0  0  0  0  0
    1.1064   -2.9576   42.4211 C   0  0  0  0  0  0  0  0  0  0  0  0
    5.5298   -1.9496   44.0315 C   0  0  0  0  0  0  0  0  0  0  0  0
    3.8954   -4.1817   45.4718 C   0  0  0  0  0  0  0  0  0  0  0  0
    0.6765   -3.5480   43.4006 C   0  0  1  0  0  0  0  0  0  0  0  0
    0.5804   -3.2191   41.1635 C   0  0  0  0  0  0  0  0  0  0  0  0
    2.8083   -4.8227   45.9203 N   0  0  0  0  0  0  0  0  0  0  0  0
   -0.1574   -4.5754   42.9329 N   0  0  0  0  0  0  0  0  0  0  0  0
    6.5271   -2.5531   44.9677 C   0  0  0  0  0  0  0  0  0  0  0  0
   -0.2272   -4.3703   41.5137 C   0  0  0  0  0  0  0  0  0  0  0  0
    7.5095   -2.0029   45.3993 C   0  0  0  0  0  0  0  0  0  0  0  0
    8.2550   -2.6982   46.3988 C   0  0  1  0  0  0  0  0  0  0  0  0
    8.8975   -0.3029   45.3267 O   0  0  0  0  0  0  0  0  0  0  0  0
    4.8299   -4.4637   46.4212 C   0  0  0  0  0  0  0  0  0  0  0  0
    4.2707   -4.9248   47.6295 N   0  0  0  0  0  0  0  0  0  0  0  0
    3.2045   -5.2092   47.1521 C   0  0  0  0  0  0  0  0  0  0  0  0
    1.4482   -4.6186   45.4134 C   0  0  0  0  0  0  0  0  0  0  0  0
    1.3256   -3.7660   44.6394 N   0  0  0  0  0  0  0  0  0  0  0  0
    9.2816   -2.1418   47.1273 N   0  0  0  0  0  0  0  0  0  0  0  0
   10.0629   -3.1324   47.8508 C   0  0  0  0  0  0  0  0  0  0  0  0
    6.3491   -3.8960   46.0844 C   0  0  2  0  0  0  0  0  0  0  0  0
    7.4349   -3.5889   46.9054 C   0  0  0  0  0  0  0  0  0  0  0  0
   10.3145   -2.7271   49.0818 O   0  0  0  0  0  0  0  0  0  0  0  0
    0.6213   -5.4445   45.7455 O   0  0  0  0  0  0  0  0  0  0  0  0
   11.0262   -3.8136   47.1050 C   0  0  0  0  0  0  0  0  0  0  0  0
   12.1704   -3.3854   46.7547 C   0  0  0  0  0  0  0  0  0  0  0  0
   13.1080   -4.1111   46.0053 C   0  0  0  0  0  0  0  0  0  0  0  0
   14.3489   -3.5966   45.7888 C   0  0  0  0  0  0  0  0  0  0  0  0
   12.7430   -5.2725   45.5056 C   0  0  0  0  0  0  0  0  0  0  0  0
   14.6935   -2.2816   45.3353 C   0  0  0  0  0  0  0  0  0  0  0  0
   15.8828   -1.9964   44.9887 C   0  0  0  0  0  0  0  0  0  0  0  0
   15.4347   -4.4529   45.9716 C   0  0  0  0  0  0  0  0  0  0  0  0
   16.1869   -0.5957   44.4528 O   0  0  0  0  0  0  0  0  0  0  0  0
   16.7870   -3.8955   45.6256 C   0  0  0  0  0  0  0  0  0  0  0  0
   10.5463   -5.1056   46.6736 C   0  0  0  0  0  0  0  0  0  0  0  0
   16.9897   -2.7283   45.1718 C   0  0  0  0  0  0  0  0  0  0  0  0
    9.3121   -5.6231   46.8852 O   0  0  0  0  0  0  0  0  0  0  0  0
   15.0250    0.1440   44.2300 C   0  0  0  0  0  0  0  0  0  0  0  0
   11.4162   -5.8539   45.7788 C   0  0  0  0  0  0  0  0  0  0  0  0
  1  2  1  0
  2  3  2  0
  3  4  1  0
  1  5  2  0
  4  5  1  0
  3  6  1  0
  4  7  2  0
  6  8  1  0
  8  9  1  0
  7 10  1  0
  9 11  1  0
  5 12  1  0
  7 13  1  0
  8 13  2  0
 10 14  1  0
 12 15  1  0
 12 16  2  0
 14 17  1  0
 15 18  1  0
 13 19  1  0
 16 20  1  0
 18 20  2  0
 11 21  1  0
 19 21  2  0
 21 22  1  0
 11 23  2  0
 14 24  2  0
 24 25  1  0
 17 26  1  0
 25 26  2  0
 17 27  1  0
 15 28  1  6
 27 28  1  0
 22 29  1  1
 29 30  1  0
 19 31  1  0
 24 31  1  0
 22 32  1  0
 31 32  1  1
 30 33  2  0
 27 34  2  0
 30 35  1  0
 35 36  2  0
 36 37  1  0
 37 38  1  0
 37 39  2  0
 38 40  2  0
 40 41  1  0
 38 42  1  0
 41 43  1  0
 42 44  2  0
 35 45  1  0
 41 46  2  0
 44 46  1  0
 45 47  1  0
 43 48  1  0
 39 49  1  0
 45 49  2  0
M  END
$$$$
O14757_Pocket2Mol_idx-in-all-generaetd-941
     RDKit          3D

 39 47  0  0  0  0  0  0  0  0999 V2000
    1.5482   -0.3111   41.9233 C   0  0  0  0  0  0  0  0  0  0  0  0
    2.7284    0.2018   42.1525 N   0  0  0  0  0  0  0  0  0  0  0  0
    3.7893   -0.3016   42.7005 C   0  0  0  0  0  0  0  0  0  0  0  0
    3.3781   -1.7350   43.0000 C   0  0  0  0  0  0  0  0  0  0  0  0
    2.0339   -1.9619   42.6217 C   0  0  0  0  0  0  0  0  0  0  0  0
    5.0090    0.1219   42.9340 N   0  0  0  0  0  0  0  0  0  0  0  0
    4.2895   -2.4979   43.6707 C   0  0  0  0  0  0  0  0  0  0  0  0
    5.8391   -0.6675   43.6343 C   0  0  0  0  0  0  0  0  0  0  0  0
    6.9849   -0.2377   44.0028 N   0  0  0  0  0  0  0  0  0  0  0  0
    4.0426   -3.8794   44.0832 C   0  0  0  0  0  0  0  0  0  0  0  0
    7.6796   -0.8734   44.9326 C   0  0  0  0  0  0  0  0  0  0  0  0
    1.1064   -2.9576   42.4211 C   0  0  0  0  0  0  0  0  0  0  0  0
    5.5298   -1.9496   44.0315 C   0  0  0  0  0  0  0  0  0  0  0  0
    3.8954   -4.1817   45.4718 C   0  0  0  0  0  0  0  0  0  0  0  0
    0.6765   -3.5480   43.4006 C   0  0  1  0  0  0  0  0  0  0  0  0
    0.5804   -3.2191   41.1635 C   0  0  0  0  0  0  0  0  0  0  0  0
    2.8083   -4.8227   45.9203 N   0  0  0  0  0  0  0  0  0  0  0  0
   -0.1574   -4.5754   42.9329 N   0  0  0  0  0  0  0  0  0  0  0  0
    6.5271   -2.5531   44.9677 C   0  0  0  0  0  0  0  0  0  0  0  0
   -0.2272   -4.3703   41.5137 C   0  0  0  0  0  0  0  0  0  0  0  0
    7.5095   -2.0029   45.3993 C   0  0  0  0  0  0  0  0  0  0  0  0
    8.2550   -2.6982   46.3988 C   0  0  2  0  0  0  0  0  0  0  0  0
    8.8975   -0.3029   45.3267 O   0  0  0  0  0  0  0  0  0  0  0  0
    4.8299   -4.4637   46.4212 C   0  0  0  0  0  0  0  0  0  0  0  0
    4.2707   -4.9248   47.6295 N   0  0  0  0  0  0  0  0  0  0  0  0
    3.2045   -5.2092   47.1521 C   0  0  0  0  0  0  0  0  0  0  0  0
    1.4482   -4.6186   45.4134 C   0  0  2  0  0  0  0  0  0  0  0  0
    1.2398   -3.5043   44.6236 O   0  0  0  0  0  0  0  0  0  0  0  0
    6.3317   -3.9297   46.0870 C   0  0  2  0  0  0  0  0  0  0  0  0
    9.5296   -2.5449   46.9776 C   0  0  0  0  0  0  0  0  0  0  0  0
    9.7921   -1.7530   47.9018 O   0  0  0  0  0  0  0  0  0  0  0  0
    7.4454   -3.8344   46.8035 C   0  0  0  0  0  0  0  0  0  0  0  0
   10.5010   -3.0847   46.3190 O   0  0  0  0  0  0  0  0  0  0  0  0
    0.5569   -4.7693   46.5649 C   0  0  0  0  0  0  0  0  0  0  0  0
   10.8766   -4.2212   46.7809 C   0  0  2  0  0  0  0  0  0  0  0  0
   12.2006   -4.4167   46.8764 C   0  0  0  0  0  0  0  0  0  0  0  0
   10.3397   -5.4016   45.9031 C   0  0  0  0  0  0  0  0  0  0  0  0
   12.7577   -4.9651   45.8546 O   0  0  0  0  0  0  0  0  0  0  0  0
   11.6107   -5.7758   45.1825 C   0  0  0  0  0  0  0  0  0  0  0  0
  1  2  1  0
  2  3  2  0
  3  4  1  0
  1  5  2  0
  4  5  1  0
  3  6  1  0
  4  7  2  0
  6  8  1  0
  8  9  1  0
  7 10  1  0
  9 11  1  0
  5 12  1  0
  7 13  1  0
  8 13  2  0
 10 14  1  0
 12 15  1  0
 12 16  2  0
 14 17  1  0
 15 18  1  0
 13 19  1  0
 16 20  1  0
 18 20  2  0
 11 21  1  0
 19 21  2  0
 21 22  1  0
 11 23  2  0
 14 24  2  0
 24 25  1  0
 17 26  1  0
 25 26  2  0
 17 27  1  0
 15 28  1  6
 27 28  1  0
 19 29  1  0
 24 29  1  0
 22 30  1  6
 30 31  2  0
 22 32  1  0
 29 32  1  1
 30 33  1  0
 27 34  1  1
 35 33  1  6
 35 36  1  0
 35 37  1  0
 36 38  1  0
 37 39  1  0
 38 39  1  0
M  END
$$$$
O14757_Pocket2Mol_idx-in-all-generaetd-942
     RDKit          3D

 30 37  0  0  0  0  0  0  0  0999 V2000
    1.5482   -0.3111   41.9233 C   0  0  0  0  0  0  0  0  0  0  0  0
    2.7284    0.2018   42.1525 N   0  0  0  0  0  0  0  0  0  0  0  0
    3.7893   -0.3016   42.7005 C   0  0  0  0  0  0  0  0  0  0  0  0
    3.3781   -1.7350   43.0000 C   0  0  0  0  0  0  0  0  0  0  0  0
    2.0339   -1.9619   42.6217 C   0  0  0  0  0  0  0  0  0  0  0  0
    5.0090    0.1219   42.9340 N   0  0  0  0  0  0  0  0  0  0  0  0
    4.2895   -2.4979   43.6707 C   0  0  0  0  0  0  0  0  0  0  0  0
    5.8391   -0.6675   43.6343 C   0  0  0  0  0  0  0  0  0  0  0  0
    6.9849   -0.2377   44.0028 N   0  0  0  0  0  0  0  0  0  0  0  0
    4.0426   -3.8794   44.0832 C   0  0  0  0  0  0  0  0  0  0  0  0
    7.6796   -0.8734   44.9326 C   0  0  0  0  0  0  0  0  0  0  0  0
    1.1064   -2.9576   42.4211 C   0  0  0  0  0  0  0  0  0  0  0  0
    5.5298   -1.9496   44.0315 C   0  0  0  0  0  0  0  0  0  0  0  0
    3.8954   -4.1817   45.4718 C   0  0  0  0  0  0  0  0  0  0  0  0
    0.6765   -3.5480   43.4006 C   0  0  0  0  0  0  0  0  0  0  0  0
    0.5804   -3.2191   41.1635 C   0  0  0  0  0  0  0  0  0  0  0  0
    2.8083   -4.8227   45.9203 N   0  0  0  0  0  0  0  0  0  0  0  0
   -0.1574   -4.5754   42.9329 N   0  0  0  0  0  0  0  0  0  0  0  0
    6.5271   -2.5531   44.9677 C   0  0  0  0  0  0  0  0  0  0  0  0
   -0.2272   -4.3703   41.5137 C   0  0  0  0  0  0  0  0  0  0  0  0
    7.5095   -2.0029   45.3993 C   0  0  0  0  0  0  0  0  0  0  0  0
    8.2550   -2.6982   46.3988 C   0  0  0  0  0  0  0  0  0  0  0  0
    8.8975   -0.3029   45.3267 O   0  0  0  0  0  0  0  0  0  0  0  0
    4.8299   -4.4637   46.4212 C   0  0  0  0  0  0  0  0  0  0  0  0
    4.2707   -4.9248   47.6295 N   0  0  0  0  0  0  0  0  0  0  0  0
    3.2045   -5.2092   47.1521 C   0  0  0  0  0  0  0  0  0  0  0  0
    1.4482   -4.6186   45.4134 C   0  0  0  0  0  0  0  0  0  0  0  0
    6.3182   -3.9038   46.0541 C   0  0  2  0  0  0  0  0  0  0  0  0
    1.1313   -3.4722   44.6829 C   0  0  0  0  0  0  0  0  0  0  0  0
    7.4164   -3.8506   46.7812 C   0  0  0  0  0  0  0  0  0  0  0  0
  1  2  1  0
  2  3  2  0
  3  4  1  0
  1  5  2  0
  4  5  1  0
  3  6  1  0
  4  7  2  0
  6  8  1  0
  8  9  1  0
  7 10  1  0
  9 11  1  0
  5 12  1  0
  7 13  1  0
  8 13  2  0
 10 14  1  0
 12 15  1  0
 12 16  2  0
 14 17  1  0
 15 18  1  0
 13 19  1  0
 16 20  1  0
 18 20  2  0
 11 21  1  0
 19 21  2  0
 21 22  1  0
 11 23  2  0
 14 24  2  0
 24 25  1  0
 17 26  1  0
 25 26  2  0
 17 27  1  0
 19 28  1  0
 24 28  1  0
 15 29  2  3
 27 29  1  0
 22 30  1  0
 28 30  1  1
M  END
$$$$
O14757_Pocket2Mol_idx-in-all-generaetd-943
     RDKit          3D

 36 40  0  0  0  0  0  0  0  0999 V2000
    3.7044    0.1389   42.5158 N   0  0  0  0  0  0  0  0  0  0  0  0
    3.0206   -1.0018   42.4929 C   0  0  0  0  0  0  0  0  0  0  0  0
    3.4791   -2.0817   43.2077 C   0  0  0  0  0  0  0  0  0  0  0  0
    4.8540    0.3862   43.0582 N   0  0  0  0  0  0  0  0  0  0  0  0
    5.1377   -0.9552   43.7144 C   0  0  0  0  0  0  0  0  0  0  0  0
    1.5846   -1.0753   41.7644 C   0  0  0  0  0  0  0  0  0  0  0  0
    4.6026   -2.0358   43.8129 C   0  0  0  0  0  0  0  0  0  0  0  0
    5.1584   -3.1511   44.6069 C   0  0  0  0  0  0  0  0  0  0  0  0
    6.6094   -0.7911   44.3696 N   0  0  0  0  0  0  0  0  0  0  0  0
    4.4744   -4.3270   44.8472 C   0  0  0  0  0  0  0  0  0  0  0  0
    6.9275   -1.8713   45.2437 C   0  0  0  0  0  0  0  0  0  0  0  0
    8.2702   -1.7750   45.8768 C   0  0  0  0  0  0  0  0  0  0  0  0
    0.9365   -0.0867   41.7346 O   0  0  0  0  0  0  0  0  0  0  0  0
    6.2322   -3.0484   45.3118 C   0  0  0  0  0  0  0  0  0  0  0  0
    6.7747   -4.0433   46.1202 N   0  0  0  0  0  0  0  0  0  0  0  0
    1.2161   -2.2739   41.2518 N   0  0  0  0  0  0  0  0  0  0  0  0
    9.0373   -0.5649   45.9132 O   0  0  0  0  0  0  0  0  0  0  0  0
    3.8907   -5.0906   43.9511 O   0  0  0  0  0  0  0  0  0  0  0  0
    4.3454   -4.8388   46.1621 N   0  0  0  0  0  0  0  0  0  0  0  0
    3.4531   -5.8952   46.4159 C   0  0  0  0  0  0  0  0  0  0  0  0
    8.6904   -2.8983   46.6073 N   0  0  0  0  0  0  0  0  0  0  0  0
    7.9257   -3.9393   46.7384 C   0  0  0  0  0  0  0  0  0  0  0  0
    8.4765   -4.8975   47.5307 O   0  0  0  0  0  0  0  0  0  0  0  0
   10.0100   -2.6771   47.3464 C   0  0  0  0  0  0  0  0  0  0  0  0
   10.0326   -1.8380   48.3764 C   0  0  0  0  0  0  0  0  0  0  0  0
   11.1123   -3.0851   46.6870 C   0  0  0  0  0  0  0  0  0  0  0  0
   11.1072   -3.8213   45.4597 C   0  0  0  0  0  0  0  0  0  0  0  0
   11.0296   -5.0092   45.4509 C   0  0  0  0  0  0  0  0  0  0  0  0
   12.3326   -2.5048   47.0028 C   0  0  0  0  0  0  0  0  0  0  0  0
   13.5735   -2.8551   46.3066 C   0  0  0  0  0  0  0  0  0  0  0  0
   12.4256   -1.8909   48.2805 C   0  0  0  0  0  0  0  0  0  0  0  0
   11.1065   -5.8602   44.2346 C   0  0  0  0  0  0  0  0  0  0  0  0
   13.7113   -1.5168   48.7735 C   0  0  0  0  0  0  0  0  0  0  0  0
   11.1644   -1.6497   48.8907 C   0  0  0  0  0  0  0  0  0  0  0  0
   14.8513   -1.7522   48.0734 C   0  0  0  0  0  0  0  0  0  0  0  0
   14.7960   -2.4196   46.8544 C   0  0  0  0  0  0  0  0  0  0  0  0
  1  2  2  0
  2  3  1  0
  1  4  1  0
  4  5  2  0
  2  6  1  0
  3  7  2  0
  5  7  1  0
  7  8  1  0
  5  9  1  0
  8 10  1  0
  9 11  2  0
 11 12  1  0
  6 13  2  0
  8 14  2  0
 11 14  1  0
 14 15  1  0
  6 16  1  0
 12 17  2  0
 10 18  2  0
 10 19  1  0
 19 20  1  0
 12 21  1  0
 15 22  1  0
 21 22  1  0
 22 23  2  0
 21 24  1  0
 24 25  2  0
 24 26  1  0
 26 27  1  0
 27 28  2  3
 26 29  2  0
 29 30  1  0
 29 31  1  0
 28 32  1  0
 31 33  1  0
 25 34  1  0
 31 34  2  0
 33 35  2  0
 30 36  2  0
 35 36  1  0
M  END
$$$$
O14757_Pocket2Mol_idx-in-all-generaetd-944
     RDKit          3D

 23 26  0  0  0  0  0  0  0  0999 V2000
    1.5482   -0.3111   41.9233 C   0  0  0  0  0  0  0  0  0  0  0  0
    2.7284    0.2018   42.1525 N   0  0  0  0  0  0  0  0  0  0  0  0
    3.7893   -0.3016   42.7005 C   0  0  0  0  0  0  0  0  0  0  0  0
    3.3781   -1.7350   43.0000 C   0  0  0  0  0  0  0  0  0  0  0  0
    2.0339   -1.9619   42.6217 C   0  0  0  0  0  0  0  0  0  0  0  0
    4.3383   -2.4847   43.6731 C   0  0  0  0  0  0  0  0  0  0  0  0
    5.5226   -1.8354   44.0739 C   0  0  0  0  0  0  0  0  0  0  0  0
    4.9730    0.0323   43.0831 N   0  0  0  0  0  0  0  0  0  0  0  0
    1.1112   -2.9739   42.5552 C   0  0  0  0  0  0  0  0  0  0  0  0
    5.7966   -0.7211   43.7453 C   0  0  0  0  0  0  0  0  0  0  0  0
    6.5383   -2.6549   44.7797 C   0  0  0  0  0  0  0  0  0  0  0  0
    7.0942   -0.4136   44.2465 N   0  0  0  0  0  0  0  0  0  0  0  0
    6.6195   -3.8205   45.4850 C   0  0  0  0  0  0  0  0  0  0  0  0
    7.5833   -3.9482   46.4656 C   0  0  0  0  0  0  0  0  0  0  0  0
    7.5520   -1.7488   45.0497 C   0  0  1  0  0  0  0  0  0  0  0  0
    7.7168   -5.1909   47.0821 O   0  0  0  0  0  0  0  0  0  0  0  0
    8.8198   -5.3549   47.9491 C   0  0  0  0  0  0  0  0  0  0  0  0
    0.9108   -3.6497   43.5834 C   0  0  0  0  0  0  0  0  0  0  0  0
    8.5783   -2.9820   46.5872 C   0  0  0  0  0  0  0  0  0  0  0  0
    8.5176   -1.8092   45.9731 C   0  0  0  0  0  0  0  0  0  0  0  0
    1.4546   -3.4897   44.8022 O   0  0  0  0  0  0  0  0  0  0  0  0
    0.1552   -4.7596   43.5858 O   0  0  0  0  0  0  0  0  0  0  0  0
    0.8251   -4.0566   45.9973 C   0  0  0  0  0  0  0  0  0  0  0  0
  1  2  1  0
  2  3  2  0
  3  4  1  0
  1  5  2  0
  4  5  1  0
  4  6  2  0
  6  7  1  0
  3  8  1  0
  5  9  1  0
  7 10  1  0
  8 10  1  0
  7 11  2  0
 10 12  2  0
 11 13  1  0
 13 14  2  0
 11 15  1  0
 12 15  1  0
 14 16  1  0
 16 17  1  0
  9 18  1  0
 14 19  1  0
 15 20  1  1
 19 20  2  0
 18 21  1  0
 18 22  2  0
 21 23  1  0
M  END
$$$$
O14757_Pocket2Mol_idx-in-all-generaetd-945
     RDKit          3D

 45 53  0  0  0  0  0  0  0  0999 V2000
    1.5482   -0.3111   41.9233 C   0  0  0  0  0  0  0  0  0  0  0  0
    2.7284    0.2018   42.1525 N   0  0  0  0  0  0  0  0  0  0  0  0
    3.7893   -0.3016   42.7005 C   0  0  0  0  0  0  0  0  0  0  0  0
    3.3781   -1.7350   43.0000 C   0  0  0  0  0  0  0  0  0  0  0  0
    2.0339   -1.9619   42.6217 C   0  0  0  0  0  0  0  0  0  0  0  0
    5.0090    0.1219   42.9340 N   0  0  0  0  0  0  0  0  0  0  0  0
    4.2895   -2.4979   43.6707 C   0  0  0  0  0  0  0  0  0  0  0  0
    5.8391   -0.6675   43.6343 C   0  0  0  0  0  0  0  0  0  0  0  0
    6.9849   -0.2377   44.0028 N   0  0  0  0  0  0  0  0  0  0  0  0
    4.0426   -3.8794   44.0832 C   0  0  0  0  0  0  0  0  0  0  0  0
    7.6796   -0.8734   44.9326 C   0  0  0  0  0  0  0  0  0  0  0  0
    1.1064   -2.9576   42.4211 C   0  0  0  0  0  0  0  0  0  0  0  0
    5.5298   -1.9496   44.0315 C   0  0  0  0  0  0  0  0  0  0  0  0
    3.8954   -4.1817   45.4718 C   0  0  0  0  0  0  0  0  0  0  0  0
    0.6765   -3.5480   43.4006 C   0  0  1  0  0  0  0  0  0  0  0  0
    0.5804   -3.2191   41.1635 C   0  0  0  0  0  0  0  0  0  0  0  0
    2.8083   -4.8227   45.9203 N   0  0  0  0  0  0  0  0  0  0  0  0
   -0.1574   -4.5754   42.9329 N   0  0  0  0  0  0  0  0  0  0  0  0
    6.5271   -2.5531   44.9677 C   0  0  0  0  0  0  0  0  0  0  0  0
   -0.2272   -4.3703   41.5137 C   0  0  0  0  0  0  0  0  0  0  0  0
    7.5095   -2.0029   45.3993 C   0  0  0  0  0  0  0  0  0  0  0  0
    8.2550   -2.6982   46.3988 C   0  0  2  0  0  0  0  0  0  0  0  0
    8.8975   -0.3029   45.3267 O   0  0  0  0  0  0  0  0  0  0  0  0
    4.8299   -4.4637   46.4212 C   0  0  0  0  0  0  0  0  0  0  0  0
    4.2707   -4.9248   47.6295 N   0  0  0  0  0  0  0  0  0  0  0  0
    3.2045   -5.2092   47.1521 C   0  0  0  0  0  0  0  0  0  0  0  0
    1.4482   -4.6186   45.4134 C   0  0  2  0  0  0  0  0  0  0  0  0
    1.2398   -3.5043   44.6236 O   0  0  0  0  0  0  0  0  0  0  0  0
    6.3317   -3.9297   46.0870 C   0  0  2  0  0  0  0  0  0  0  0  0
    9.5296   -2.5449   46.9776 C   0  0  0  0  0  0  0  0  0  0  0  0
    9.7921   -1.7530   47.9018 O   0  0  0  0  0  0  0  0  0  0  0  0
    7.4454   -3.8344   46.8035 C   0  0  0  0  0  0  0  0  0  0  0  0
   10.5010   -3.0847   46.3190 O   0  0  0  0  0  0  0  0  0  0  0  0
    0.5569   -4.7693   46.5649 C   0  0  0  0  0  0  0  0  0  0  0  0
   11.7452   -2.8462   46.6234 C   0  0  0  0  0  0  0  0  0  0  0  0
   12.4344   -1.8951   45.7393 C   0  0  0  0  0  0  0  0  0  0  0  0
   12.4612   -3.5429   47.5581 C   0  0  0  0  0  0  0  0  0  0  0  0
   11.7737   -4.5216   48.4115 C   0  0  0  0  0  0  0  0  0  0  0  0
   13.7789   -3.2174   47.8431 C   0  0  0  0  0  0  0  0  0  0  0  0
   11.7932   -1.2291   44.6751 O   0  0  0  0  0  0  0  0  0  0  0  0
   14.4851   -3.9004   48.9029 O   0  0  0  0  0  0  0  0  0  0  0  0
   14.5076   -2.2945   47.0709 C   0  0  0  0  0  0  0  0  0  0  0  0
   15.8542   -1.9875   47.2623 O   0  0  0  0  0  0  0  0  0  0  0  0
   13.8578   -1.5732   45.9765 C   0  0  0  0  0  0  0  0  0  0  0  0
   14.5391   -0.6569   45.1866 O   0  0  0  0  0  0  0  0  0  0  0  0
  1  2  1  0
  2  3  2  0
  3  4  1  0
  1  5  2  0
  4  5  1  0
  3  6  1  0
  4  7  2  0
  6  8  1  0
  8  9  1  0
  7 10  1  0
  9 11  1  0
  5 12  1  0
  7 13  1  0
  8 13  2  0
 10 14  1  0
 12 15  1  0
 12 16  2  0
 14 17  1  0
 15 18  1  0
 13 19  1  0
 16 20  1  0
 18 20  2  0
 11 21  1  0
 19 21  2  0
 21 22  1  0
 11 23  2  0
 14 24  2  0
 24 25  1  0
 17 26  1  0
 25 26  2  0
 17 27  1  0
 15 28  1  6
 27 28  1  0
 19 29  1  0
 24 29  1  0
 22 30  1  6
 30 31  2  0
 22 32  1  0
 29 32  1  1
 30 33  1  0
 27 34  1  1
 33 35  1  0
 35 36  2  0
 35 37  1  0
 37 38  1  0
 37 39  2  0
 36 40  1  0
 39 41  1  0
 39 42  1  0
 42 43  1  0
 36 44  1  0
 42 44  2  0
 44 45  1  0
M  END
$$$$
O14757_Pocket2Mol_idx-in-all-generaetd-946
     RDKit          3D

 48 56  0  0  0  0  0  0  0  0999 V2000
    5.3420    0.2589   42.8836 O   0  0  0  0  0  0  0  0  0  0  0  0
    5.1627   -0.7554   43.4753 C   0  0  0  0  0  0  0  0  0  0  0  0
    4.0509   -1.4657   43.4177 N   0  0  0  0  0  0  0  0  0  0  0  0
    5.9969   -1.2317   44.6840 C   0  0  0  0  0  0  0  0  0  0  0  0
    2.9618   -1.1021   42.5918 C   0  0  1  0  0  0  0  0  0  0  0  0
    7.3392   -0.8596   44.8412 C   0  0  0  0  0  0  0  0  0  0  0  0
    1.9754   -2.0820   42.2741 C   0  0  0  0  0  0  0  0  0  0  0  0
    5.5910   -2.4282   45.3439 C   0  0  0  0  0  0  0  0  0  0  0  0
    6.5874   -2.9636   46.1581 C   0  0  0  0  0  0  0  0  0  0  0  0
    4.2763   -3.0680   45.0493 N   0  0  0  0  0  0  0  0  0  0  0  0
    3.6188   -2.5886   44.2024 C   0  0  0  0  0  0  0  0  0  0  0  0
    8.1921   -1.4071   45.7505 C   0  0  0  0  0  0  0  0  0  0  0  0
    1.0154   -1.8839   41.2980 C   0  0  0  0  0  0  0  0  0  0  0  0
    2.5720   -3.3564   43.9063 C   0  0  0  0  0  0  0  0  0  0  0  0
    0.2502   -2.8976   41.0751 C   0  0  0  0  0  0  0  0  0  0  0  0
    6.1761   -4.1775   47.0209 C   0  0  0  0  0  0  0  0  0  0  0  0
    1.7266   -3.1047   43.0115 C   0  0  2  0  0  0  0  0  0  0  0  0
    2.3696   -4.5367   44.7536 N   0  0  0  0  0  0  0  0  0  0  0  0
    1.2264   -5.2346   44.4693 C   0  0  0  0  0  0  0  0  0  0  0  0
    0.7187   -3.8955   42.5465 C   0  0  0  0  0  0  0  0  0  0  0  0
    9.4576   -0.8949   46.0327 N   0  0  0  0  0  0  0  0  0  0  0  0
    0.8625   -6.3901   45.2462 C   0  0  0  0  0  0  0  0  0  0  0  0
    7.6467   -2.5139   46.4892 C   0  0  0  0  0  0  0  0  0  0  0  0
   10.4908   -1.5336   45.8242 C   0  0  0  0  0  0  0  0  0  0  0  0
    0.3057   -4.9299   43.2909 C   0  0  0  0  0  0  0  0  0  0  0  0
   11.5916   -1.4291   46.7436 C   0  0  0  0  0  0  0  0  0  0  0  0
   10.5566   -2.3672   44.8649 O   0  0  0  0  0  0  0  0  0  0  0  0
    2.4730    0.2084   42.8389 O   0  0  0  0  0  0  0  0  0  0  0  0
   11.6027   -2.2081   47.7725 N   0  0  0  0  0  0  0  0  0  0  0  0
   12.6189   -0.5862   46.5415 C   0  0  0  0  0  0  0  0  0  0  0  0
   13.6413   -0.4484   47.4129 C   0  0  0  0  0  0  0  0  0  0  0  0
   10.4764   -3.1097   48.1134 C   0  0  0  0  0  0  0  0  0  0  0  0
    9.5762   -2.4717   49.0753 C   0  0  0  0  0  0  0  0  0  0  0  0
    9.7761   -1.2394   49.5167 C   0  0  0  0  0  0  0  0  0  0  0  0
    8.6397   -3.3252   49.7339 C   0  0  0  0  0  0  0  0  0  0  0  0
    8.9861   -0.7034   50.5819 C   0  0  0  0  0  0  0  0  0  0  0  0
   14.7137    0.5128   47.0925 C   0  0  0  0  0  0  0  0  0  0  0  0
    8.1815   -1.5423   51.2387 C   0  0  0  0  0  0  0  0  0  0  0  0
    8.4156   -4.7176   49.2102 O   0  0  0  0  0  0  0  0  0  0  0  0
   13.6915   -1.2597   48.4795 C   0  0  0  0  0  0  0  0  0  0  0  0
   14.7842   -1.1839   49.3622 C   0  0  0  0  0  0  0  0  0  0  0  0
   15.7412    0.6156   47.9897 C   0  0  0  0  0  0  0  0  0  0  0  0
    7.9330   -2.9111   50.8466 C   0  0  0  0  0  0  0  0  0  0  0  0
   15.8090   -0.2044   49.1005 C   0  0  0  0  0  0  0  0  0  0  0  0
   12.6706   -2.2024   48.6763 C   0  0  0  0  0  0  0  0  0  0  0  0
    7.1846   -5.2372   49.3767 C   0  0  0  0  0  0  0  0  0  0  0  0
    5.0366   -4.4384   47.4248 O   0  0  0  0  0  0  0  0  0  0  0  0
    6.9381   -5.1792   47.8224 C   0  0  0  0  0  0  0  0  0  0  0  0
  1  2  2  0
  2  3  1  0
  2  4  1  0
  3  5  1  0
  4  6  2  0
  5  7  1  0
  4  8  1  0
  8  9  2  0
  8 10  1  0
  3 11  1  0
 10 11  2  0
  6 12  1  0
  7 13  2  0
 11 14  1  0
 13 15  1  0
  9 16  1  0
 17  7  1  6
 14 17  1  0
 14 18  2  0
 18 19  1  0
 15 20  2  0
 17 20  1  0
 12 21  1  0
 19 22  1  0
  9 23  1  0
 12 23  2  0
 21 24  1  0
 19 25  2  0
 20 25  1  0
 24 26  1  0
 24 27  2  0
  5 28  1  1
 26 29  1  0
 26 30  2  0
 30 31  1  0
 29 32  1  0
 32 33  1  0
 33 34  1  0
 33 35  2  0
 34 36  2  0
 31 37  2  0
 36 38  1  0
 35 39  1  0
 31 40  1  0
 40 41  2  0
 37 42  1  0
 35 43  1  0
 38 43  2  0
 41 44  1  0
 42 44  2  0
 29 45  1  0
 40 45  1  0
 39 46  1  0
 16 47  2  0
 16 48  1  0
 46 48  1  0
M  END
$$$$
O14757_Pocket2Mol_idx-in-all-generaetd-947
     RDKit          3D

 37 44  0  0  0  0  0  0  0  0999 V2000
    4.8173    0.2791   42.6993 N   0  0  0  0  0  0  0  0  0  0  0  0
    5.3297   -0.7477   43.3688 C   0  0  0  0  0  0  0  0  0  0  0  0
    3.4732   -0.2235   42.4530 C   0  0  0  0  0  0  0  0  0  0  0  0
    4.4984   -1.7876   43.6214 C   0  0  0  0  0  0  0  0  0  0  0  0
    3.3438   -1.5190   42.9379 C   0  0  0  0  0  0  0  0  0  0  0  0
    2.1381   -2.3401   42.8254 C   0  0  0  0  0  0  0  0  0  0  0  0
    2.3894    0.3572   41.9843 N   0  0  0  0  0  0  0  0  0  0  0  0
    4.9180   -3.0430   44.3829 C   0  0  0  0  0  0  0  0  0  0  0  0
    5.9444   -2.9314   45.3934 C   0  0  0  0  0  0  0  0  0  0  0  0
    4.2808   -4.1329   44.3252 C   0  0  0  0  0  0  0  0  0  0  0  0
    3.1588   -4.4221   43.4852 O   0  0  0  0  0  0  0  0  0  0  0  0
    4.5704   -5.2518   45.1995 C   0  0  0  0  0  0  0  0  0  0  0  0
    1.9853   -3.6792   43.3495 C   0  0  0  0  0  0  0  0  0  0  0  0
    0.9181   -4.3294   43.4638 C   0  0  0  0  0  0  0  0  0  0  0  0
    6.7403   -1.6226   45.5272 C   0  0  0  0  0  0  0  0  0  0  0  0
    0.9752   -1.7845   42.3366 C   0  0  0  0  0  0  0  0  0  0  0  0
    5.5543   -5.1294   46.1078 C   0  0  0  0  0  0  0  0  0  0  0  0
    7.9772   -1.5901   46.1526 C   0  0  0  0  0  0  0  0  0  0  0  0
    8.6171   -2.7180   46.2255 N   0  0  0  0  0  0  0  0  0  0  0  0
    6.5160   -0.7262   44.3482 C   0  0  0  0  0  0  0  0  0  0  0  0
    5.8670   -6.1665   47.0241 O   0  0  0  0  0  0  0  0  0  0  0  0
   -0.2437   -2.4672   42.2827 C   0  0  0  0  0  0  0  0  0  0  0  0
   -0.2692   -3.7414   42.8178 C   0  0  0  0  0  0  0  0  0  0  0  0
    6.3047   -3.9815   46.2287 C   0  0  0  0  0  0  0  0  0  0  0  0
    8.0291   -3.5777   47.1715 C   0  0  0  0  0  0  0  0  0  0  0  0
    7.2074   -4.2766   47.0234 C   0  0  0  0  0  0  0  0  0  0  0  0
    1.1879   -0.4281   41.8692 C   0  0  0  0  0  0  0  0  0  0  0  0
   10.1009   -2.3306   46.5895 C   0  0  0  0  0  0  0  0  0  0  0  0
   10.5049   -1.2887   46.4663 O   0  0  0  0  0  0  0  0  0  0  0  0
   10.9104   -3.4150   47.1173 C   0  0  0  0  0  0  0  0  0  0  0  0
   11.1982   -4.4016   46.2515 C   0  0  0  0  0  0  0  0  0  0  0  0
   11.7101   -3.1924   48.2324 C   0  0  0  0  0  0  0  0  0  0  0  0
   12.0522   -5.4329   46.5848 C   0  0  0  0  0  0  0  0  0  0  0  0
   12.7511   -5.3217   47.7489 C   0  0  0  0  0  0  0  0  0  0  0  0
   11.5311   -2.1317   49.1060 O   0  0  0  0  0  0  0  0  0  0  0  0
   13.7313   -6.3703   48.0920 O   0  0  0  0  0  0  0  0  0  0  0  0
   12.6380   -4.2709   48.6820 C   0  0  0  0  0  0  0  0  0  0  0  0
  1  2  2  0
  1  3  1  0
  2  4  1  0
  3  5  1  0
  4  5  2  0
  5  6  1  0
  3  7  2  0
  4  8  1  0
  8  9  2  0
  8 10  1  0
 10 11  1  0
 10 12  2  0
  6 13  2  0
 11 13  1  0
 13 14  1  0
  9 15  1  0
  6 16  1  0
 12 17  1  0
 15 18  1  0
 18 19  1  0
  2 20  1  0
 15 20  2  0
 17 21  1  0
 16 22  2  0
 14 23  2  0
 22 23  1  0
  9 24  1  0
 17 24  2  0
 19 25  1  0
 24 26  1  0
 25 26  2  0
  7 27  1  0
 16 27  1  0
 19 28  1  0
 28 29  2  0
 28 30  1  0
 30 31  2  0
 30 32  1  0
 31 33  1  0
 33 34  2  0
 32 35  1  0
 34 36  1  0
 32 37  2  0
 34 37  1  0
M  END
$$$$
O14757_Pocket2Mol_idx-in-all-generaetd-948
     RDKit          3D

 40 46  0  0  0  0  0  0  0  0999 V2000
    1.5482   -0.3111   41.9233 C   0  0  0  0  0  0  0  0  0  0  0  0
    2.7284    0.2018   42.1525 N   0  0  0  0  0  0  0  0  0  0  0  0
    3.7893   -0.3016   42.7005 C   0  0  0  0  0  0  0  0  0  0  0  0
    3.3781   -1.7350   43.0000 C   0  0  0  0  0  0  0  0  0  0  0  0
    2.0339   -1.9619   42.6217 C   0  0  0  0  0  0  0  0  0  0  0  0
    4.1166   -2.4997   43.8458 C   0  0  0  0  0  0  0  0  0  0  0  0
    1.1731   -3.0051   42.5773 C   0  0  0  0  0  0  0  0  0  0  0  0
    0.4701   -3.2344   41.4901 C   0  0  0  0  0  0  0  0  0  0  0  0
    5.3799   -1.7814   44.2691 C   0  0  0  0  0  0  0  0  0  0  0  0
    5.0159   -0.0180   43.1201 N   0  0  0  0  0  0  0  0  0  0  0  0
    5.7693   -0.6937   43.8418 C   0  0  0  0  0  0  0  0  0  0  0  0
    0.8078   -3.6166   43.6782 C   0  0  0  0  0  0  0  0  0  0  0  0
    0.0663   -4.7011   43.7415 N   0  0  0  0  0  0  0  0  0  0  0  0
    6.2223   -2.6843   45.1565 C   0  0  0  0  0  0  0  0  0  0  0  0
    6.9599   -0.2351   44.2608 N   0  0  0  0  0  0  0  0  0  0  0  0
    5.9065   -3.9037   45.7499 N   0  0  0  0  0  0  0  0  0  0  0  0
   -0.5459   -5.1185   42.5870 C   0  0  0  0  0  0  0  0  0  0  0  0
    5.7480   -4.0340   46.9810 C   0  0  0  0  0  0  0  0  0  0  0  0
    7.4448   -1.8511   45.4198 C   0  0  0  0  0  0  0  0  0  0  0  0
    7.7572   -0.7827   45.0128 C   0  0  0  0  0  0  0  0  0  0  0  0
    8.4076   -2.7217   46.4541 C   0  0  0  0  0  0  0  0  0  0  0  0
    9.3167   -2.0988   47.1049 N   0  0  0  0  0  0  0  0  0  0  0  0
   -0.4719   -4.3893   41.5406 C   0  0  0  0  0  0  0  0  0  0  0  0
    8.3667   -4.0284   46.5743 N   0  0  0  0  0  0  0  0  0  0  0  0
    9.5309   -4.3147   47.3094 C   0  0  0  0  0  0  0  0  0  0  0  0
    5.3113   -3.3789   47.8005 O   0  0  0  0  0  0  0  0  0  0  0  0
    9.9022   -5.6301   47.7684 C   0  0  0  0  0  0  0  0  0  0  0  0
    5.4470   -5.5868   47.2096 C   0  0  0  0  0  0  0  0  0  0  0  0
   11.2254   -5.8679   48.0402 C   0  0  0  0  0  0  0  0  0  0  0  0
    8.9736   -6.6532   47.8548 C   0  0  0  0  0  0  0  0  0  0  0  0
   10.0616   -3.0670   47.6360 C   0  0  0  0  0  0  0  0  0  0  0  0
    7.5566   -6.3564   47.5477 N   0  0  0  0  0  0  0  0  0  0  0  0
    6.4157   -6.1721   48.0913 C   0  0  0  0  0  0  0  0  0  0  0  0
    9.3646   -7.8782   48.1671 C   0  0  0  0  0  0  0  0  0  0  0  0
   12.3073   -4.8526   47.9155 O   0  0  0  0  0  0  0  0  0  0  0  0
    8.3867   -8.9995   48.3228 C   0  0  0  0  0  0  0  0  0  0  0  0
   13.1568   -4.8915   46.9272 C   0  0  0  0  0  0  0  0  0  0  0  0
   11.6864   -7.0886   48.4553 C   0  0  0  0  0  0  0  0  0  0  0  0
   13.0565   -7.4208   48.7922 O   0  0  0  0  0  0  0  0  0  0  0  0
   10.7420   -8.1562   48.5571 C   0  0  0  0  0  0  0  0  0  0  0  0
  1  2  1  0
  2  3  2  0
  3  4  1  0
  1  5  2  0
  4  5  1  0
  4  6  2  0
  5  7  1  0
  7  8  2  0
  6  9  1  0
  3 10  1  0
  9 11  2  0
 10 11  1  0
  7 12  1  0
 12 13  2  0
  9 14  1  0
 11 15  1  0
 14 16  1  0
 13 17  1  0
 16 18  1  0
 14 19  2  0
 15 20  2  0
 19 20  1  0
 19 21  1  0
 21 22  2  0
  8 23  1  0
 17 23  2  0
 21 24  1  0
 24 25  1  0
 18 26  2  0
 25 27  1  0
 18 28  1  0
 27 29  2  0
 27 30  1  0
 22 31  1  0
 25 31  2  0
 30 32  1  0
 28 33  1  0
 32 33  1  0
 30 34  2  0
 29 35  1  0
 34 36  1  0
 35 37  1  0
 29 38  1  0
 38 39  1  0
 34 40  1  0
 38 40  2  0
M  END
$$$$
O14757_Pocket2Mol_idx-in-all-generaetd-949
     RDKit          3D

 47 54  0  0  0  0  0  0  0  0999 V2000
    5.3420    0.2589   42.8836 O   0  0  0  0  0  0  0  0  0  0  0  0
    5.1627   -0.7554   43.4753 C   0  0  0  0  0  0  0  0  0  0  0  0
    4.0509   -1.4657   43.4177 N   0  0  0  0  0  0  0  0  0  0  0  0
    5.9969   -1.2317   44.6840 C   0  0  0  0  0  0  0  0  0  0  0  0
    2.9618   -1.1021   42.5918 C   0  0  1  0  0  0  0  0  0  0  0  0
    7.3392   -0.8596   44.8412 C   0  0  0  0  0  0  0  0  0  0  0  0
    1.9754   -2.0820   42.2741 C   0  0  0  0  0  0  0  0  0  0  0  0
    5.5910   -2.4282   45.3439 C   0  0  0  0  0  0  0  0  0  0  0  0
    6.5874   -2.9636   46.1581 C   0  0  0  0  0  0  0  0  0  0  0  0
    4.2763   -3.0680   45.0493 N   0  0  0  0  0  0  0  0  0  0  0  0
    3.6188   -2.5886   44.2024 C   0  0  0  0  0  0  0  0  0  0  0  0
    8.1921   -1.4071   45.7505 C   0  0  0  0  0  0  0  0  0  0  0  0
    1.0154   -1.8839   41.2980 C   0  0  0  0  0  0  0  0  0  0  0  0
    2.5720   -3.3564   43.9063 C   0  0  0  0  0  0  0  0  0  0  0  0
    0.2502   -2.8976   41.0751 C   0  0  0  0  0  0  0  0  0  0  0  0
    6.1761   -4.1775   47.0209 C   0  0  0  0  0  0  0  0  0  0  0  0
    1.7266   -3.1047   43.0115 C   0  0  2  0  0  0  0  0  0  0  0  0
    2.3696   -4.5367   44.7536 N   0  0  0  0  0  0  0  0  0  0  0  0
    1.2264   -5.2346   44.4693 C   0  0  0  0  0  0  0  0  0  0  0  0
    0.7187   -3.8955   42.5465 C   0  0  0  0  0  0  0  0  0  0  0  0
    9.4576   -0.8949   46.0327 N   0  0  0  0  0  0  0  0  0  0  0  0
    0.8625   -6.3901   45.2462 C   0  0  0  0  0  0  0  0  0  0  0  0
    7.6467   -2.5139   46.4892 C   0  0  0  0  0  0  0  0  0  0  0  0
   10.4908   -1.5336   45.8242 C   0  0  0  0  0  0  0  0  0  0  0  0
    0.3057   -4.9299   43.2909 C   0  0  0  0  0  0  0  0  0  0  0  0
   11.5916   -1.4291   46.7436 C   0  0  0  0  0  0  0  0  0  0  0  0
   10.5566   -2.3672   44.8649 O   0  0  0  0  0  0  0  0  0  0  0  0
    2.4730    0.2084   42.8389 O   0  0  0  0  0  0  0  0  0  0  0  0
   11.6027   -2.2081   47.7725 N   0  0  0  0  0  0  0  0  0  0  0  0
   12.6189   -0.5862   46.5415 C   0  0  0  0  0  0  0  0  0  0  0  0
   13.6413   -0.4484   47.4129 C   0  0  0  0  0  0  0  0  0  0  0  0
   10.4764   -3.1097   48.1134 C   0  0  0  0  0  0  0  0  0  0  0  0
    9.5762   -2.4717   49.0753 C   0  0  0  0  0  0  0  0  0  0  0  0
    9.7761   -1.2394   49.5167 C   0  0  0  0  0  0  0  0  0  0  0  0
    8.6397   -3.3252   49.7339 C   0  0  0  0  0  0  0  0  0  0  0  0
    8.9861   -0.7034   50.5819 C   0  0  0  0  0  0  0  0  0  0  0  0
   14.7137    0.5128   47.0925 C   0  0  0  0  0  0  0  0  0  0  0  0
    8.1815   -1.5423   51.2387 C   0  0  0  0  0  0  0  0  0  0  0  0
    8.4156   -4.7176   49.2102 O   0  0  0  0  0  0  0  0  0  0  0  0
   13.6915   -1.2597   48.4795 C   0  0  0  0  0  0  0  0  0  0  0  0
   14.7842   -1.1839   49.3622 C   0  0  0  0  0  0  0  0  0  0  0  0
   12.5774   -2.1710   48.6835 C   0  0  0  0  0  0  0  0  0  0  0  0
   14.8423   -1.9939   50.5370 O   0  0  0  0  0  0  0  0  0  0  0  0
    7.9254   -2.8787   50.8112 C   0  0  0  0  0  0  0  0  0  0  0  0
    8.1000   -5.6218   49.9570 C   0  0  0  0  0  0  0  0  0  0  0  0
   15.7943   -0.2480   49.1897 C   0  0  0  0  0  0  0  0  0  0  0  0
   15.6948    0.6095   48.0391 C   0  0  0  0  0  0  0  0  0  0  0  0
  1  2  2  0
  2  3  1  0
  2  4  1  0
  3  5  1  0
  4  6  2  0
  5  7  1  0
  4  8  1  0
  8  9  2  0
  8 10  1  0
  3 11  1  0
 10 11  2  0
  6 12  1  0
  7 13  2  0
 11 14  1  0
 13 15  1  0
  9 16  1  0
 17  7  1  6
 14 17  1  0
 14 18  2  0
 18 19  1  0
 15 20  2  0
 17 20  1  0
 12 21  1  0
 19 22  1  0
  9 23  1  0
 12 23  2  0
 21 24  1  0
 19 25  2  0
 20 25  1  0
 24 26  1  0
 24 27  2  0
  5 28  1  1
 26 29  1  0
 26 30  2  0
 30 31  1  0
 29 32  1  0
 32 33  1  0
 33 34  2  0
 33 35  1  0
 34 36  1  0
 31 37  2  0
 36 38  2  0
 35 39  1  0
 31 40  1  0
 40 41  2  0
 29 42  1  0
 40 42  1  0
 41 43  1  0
 35 44  2  0
 38 44  1  0
 39 45  1  0
 41 46  1  0
 37 47  1  0
 46 47  2  0
M  END
$$$$
O14757_Pocket2Mol_idx-in-all-generaetd-950
     RDKit          3D

 42 47  0  0  0  0  0  0  0  0999 V2000
    5.3420    0.2589   42.8836 O   0  0  0  0  0  0  0  0  0  0  0  0
    5.1627   -0.7554   43.4753 C   0  0  0  0  0  0  0  0  0  0  0  0
    4.0509   -1.4657   43.4177 N   0  0  0  0  0  0  0  0  0  0  0  0
    5.9969   -1.2317   44.6840 C   0  0  0  0  0  0  0  0  0  0  0  0
    2.9618   -1.1021   42.5918 C   0  0  1  0  0  0  0  0  0  0  0  0
    7.3392   -0.8596   44.8412 C   0  0  0  0  0  0  0  0  0  0  0  0
    1.9754   -2.0820   42.2741 C   0  0  0  0  0  0  0  0  0  0  0  0
    5.5910   -2.4282   45.3439 C   0  0  0  0  0  0  0  0  0  0  0  0
    6.5874   -2.9636   46.1581 C   0  0  0  0  0  0  0  0  0  0  0  0
    4.2763   -3.0680   45.0493 N   0  0  0  0  0  0  0  0  0  0  0  0
    3.6188   -2.5886   44.2024 C   0  0  0  0  0  0  0  0  0  0  0  0
    8.1921   -1.4071   45.7505 C   0  0  0  0  0  0  0  0  0  0  0  0
    1.0154   -1.8839   41.2980 C   0  0  0  0  0  0  0  0  0  0  0  0
    2.5720   -3.3564   43.9063 C   0  0  0  0  0  0  0  0  0  0  0  0
    0.2502   -2.8976   41.0751 C   0  0  0  0  0  0  0  0  0  0  0  0
    6.1761   -4.1775   47.0209 C   0  0  0  0  0  0  0  0  0  0  0  0
    1.7266   -3.1047   43.0115 C   0  0  2  0  0  0  0  0  0  0  0  0
    2.3696   -4.5367   44.7536 N   0  0  0  0  0  0  0  0  0  0  0  0
    1.2264   -5.2346   44.4693 C   0  0  0  0  0  0  0  0  0  0  0  0
    0.7187   -3.8955   42.5465 C   0  0  0  0  0  0  0  0  0  0  0  0
    9.4576   -0.8949   46.0327 N   0  0  0  0  0  0  0  0  0  0  0  0
    0.8625   -6.3901   45.2462 C   0  0  0  0  0  0  0  0  0  0  0  0
    7.6467   -2.5139   46.4892 C   0  0  0  0  0  0  0  0  0  0  0  0
   10.4908   -1.5336   45.8242 C   0  0  0  0  0  0  0  0  0  0  0  0
    0.3057   -4.9299   43.2909 C   0  0  0  0  0  0  0  0  0  0  0  0
   11.5916   -1.4291   46.7436 C   0  0  0  0  0  0  0  0  0  0  0  0
   10.5566   -2.3672   44.8649 O   0  0  0  0  0  0  0  0  0  0  0  0
   12.8421   -1.9355   46.2823 C   0  0  0  0  0  0  0  0  0  0  0  0
   13.4833   -2.8582   46.9841 C   0  0  0  0  0  0  0  0  0  0  0  0
   11.4002   -1.1447   48.0540 C   0  0  0  0  0  0  0  0  0  0  0  0
   10.2867   -0.4569   48.4999 O   0  0  0  0  0  0  0  0  0  0  0  0
   12.3327   -1.4798   48.9564 C   0  0  0  0  0  0  0  0  0  0  0  0
   14.7901   -3.3162   46.6439 C   0  0  0  0  0  0  0  0  0  0  0  0
   12.1651   -1.3050   50.3239 O   0  0  0  0  0  0  0  0  0  0  0  0
   15.6765   -2.5740   46.0979 C   0  0  0  0  0  0  0  0  0  0  0  0
   13.4417   -2.4710   48.5369 C   0  0  0  0  0  0  0  0  0  0  0  0
   15.5553   -1.2853   45.8338 C   0  0  0  0  0  0  0  0  0  0  0  0
   15.4119   -0.8806   44.5116 C   0  0  0  0  0  0  0  0  0  0  0  0
    2.4631    0.2112   42.8539 C   0  0  0  0  0  0  0  0  0  0  0  0
   14.8794    0.3049   44.1896 C   0  0  0  0  0  0  0  0  0  0  0  0
   14.4631    0.5434   42.6927 C   0  0  0  0  0  0  0  0  0  0  0  0
   14.8457    1.4814   44.8690 C   0  0  0  0  0  0  0  0  0  0  0  0
  1  2  2  0
  2  3  1  0
  2  4  1  0
  3  5  1  0
  4  6  2  0
  5  7  1  0
  4  8  1  0
  8  9  2  0
  8 10  1  0
  3 11  1  0
 10 11  2  0
  6 12  1  0
  7 13  2  0
 11 14  1  0
 13 15  1  0
  9 16  1  0
 17  7  1  6
 14 17  1  0
 14 18  2  0
 18 19  1  0
 15 20  2  0
 17 20  1  0
 12 21  1  0
 19 22  1  0
  9 23  1  0
 12 23  2  0
 21 24  1  0
 19 25  2  0
 20 25  1  0
 24 26  1  0
 24 27  2  0
 26 28  2  0
 28 29  1  0
 26 30  1  0
 30 31  1  0
 30 32  2  0
 29 33  1  0
 32 34  1  0
 33 35  2  3
 29 36  2  0
 32 36  1  0
 35 37  1  0
 37 38  1  0
  5 39  1  1
 38 40  2  3
 40 41  1  0
 40 42  1  0
M  END
$$$$
O14757_Pocket2Mol_idx-in-all-generaetd-951
     RDKit          3D

 31 37  0  0  0  0  0  0  0  0999 V2000
    4.8173    0.2791   42.6993 N   0  0  0  0  0  0  0  0  0  0  0  0
    5.3297   -0.7477   43.3688 C   0  0  0  0  0  0  0  0  0  0  0  0
    3.4732   -0.2235   42.4530 C   0  0  0  0  0  0  0  0  0  0  0  0
    4.4984   -1.7876   43.6214 C   0  0  0  0  0  0  0  0  0  0  0  0
    3.3438   -1.5190   42.9379 C   0  0  0  0  0  0  0  0  0  0  0  0
    2.1381   -2.3401   42.8254 C   0  0  0  0  0  0  0  0  0  0  0  0
    2.3894    0.3572   41.9843 N   0  0  0  0  0  0  0  0  0  0  0  0
    4.9180   -3.0430   44.3829 C   0  0  0  0  0  0  0  0  0  0  0  0
    5.9444   -2.9314   45.3934 C   0  0  0  0  0  0  0  0  0  0  0  0
    4.2808   -4.1329   44.3252 C   0  0  0  0  0  0  0  0  0  0  0  0
    3.1588   -4.4221   43.4852 O   0  0  0  0  0  0  0  0  0  0  0  0
    4.5704   -5.2518   45.1995 C   0  0  0  0  0  0  0  0  0  0  0  0
    1.9853   -3.6792   43.3495 C   0  0  0  0  0  0  0  0  0  0  0  0
    0.9181   -4.3294   43.4638 C   0  0  0  0  0  0  0  0  0  0  0  0
    6.7403   -1.6226   45.5272 C   0  0  0  0  0  0  0  0  0  0  0  0
    0.9752   -1.7845   42.3366 C   0  0  0  0  0  0  0  0  0  0  0  0
    5.5543   -5.1294   46.1078 C   0  0  0  0  0  0  0  0  0  0  0  0
    7.9772   -1.5901   46.1526 C   0  0  0  0  0  0  0  0  0  0  0  0
    8.6171   -2.7180   46.2255 N   0  0  0  0  0  0  0  0  0  0  0  0
    6.5160   -0.7262   44.3482 C   0  0  0  0  0  0  0  0  0  0  0  0
    5.8670   -6.1665   47.0241 O   0  0  0  0  0  0  0  0  0  0  0  0
   -0.2437   -2.4672   42.2827 C   0  0  0  0  0  0  0  0  0  0  0  0
   -0.2692   -3.7414   42.8178 C   0  0  0  0  0  0  0  0  0  0  0  0
    6.3047   -3.9815   46.2287 C   0  0  0  0  0  0  0  0  0  0  0  0
    8.0291   -3.5777   47.1715 C   0  0  0  0  0  0  0  0  0  0  0  0
    7.2074   -4.2766   47.0234 C   0  0  0  0  0  0  0  0  0  0  0  0
    1.1879   -0.4281   41.8692 C   0  0  0  0  0  0  0  0  0  0  0  0
   10.1009   -2.3306   46.5895 C   0  0  0  0  0  0  0  0  0  0  0  0
   10.7401   -3.0610   47.3034 O   0  0  0  0  0  0  0  0  0  0  0  0
   10.4864   -1.0822   46.1212 O   0  0  0  0  0  0  0  0  0  0  0  0
   11.7487   -0.8899   46.3160 C   0  0  0  0  0  0  0  0  0  0  0  0
  1  2  2  0
  1  3  1  0
  2  4  1  0
  3  5  1  0
  4  5  2  0
  5  6  1  0
  3  7  2  0
  4  8  1  0
  8  9  2  0
  8 10  1  0
 10 11  1  0
 10 12  2  0
  6 13  2  0
 11 13  1  0
 13 14  1  0
  9 15  1  0
  6 16  1  0
 12 17  1  0
 15 18  1  0
 18 19  1  0
  2 20  1  0
 15 20  2  0
 17 21  1  0
 16 22  2  0
 14 23  2  0
 22 23  1  0
  9 24  1  0
 17 24  2  0
 19 25  1  0
 24 26  1  0
 25 26  2  0
  7 27  1  0
 16 27  1  0
 19 28  1  0
 28 29  2  0
 28 30  1  0
 30 31  1  0
M  END
$$$$
O14757_Pocket2Mol_idx-in-all-generaetd-952
     RDKit          3D

 41 46  0  0  0  0  0  0  0  0999 V2000
    5.3420    0.2589   42.8836 O   0  0  0  0  0  0  0  0  0  0  0  0
    5.1627   -0.7554   43.4753 C   0  0  0  0  0  0  0  0  0  0  0  0
    4.0509   -1.4657   43.4177 N   0  0  0  0  0  0  0  0  0  0  0  0
    5.9969   -1.2317   44.6840 C   0  0  0  0  0  0  0  0  0  0  0  0
    2.9618   -1.1021   42.5918 C   0  0  1  0  0  0  0  0  0  0  0  0
    7.3392   -0.8596   44.8412 C   0  0  0  0  0  0  0  0  0  0  0  0
    1.9754   -2.0820   42.2741 C   0  0  0  0  0  0  0  0  0  0  0  0
    5.5910   -2.4282   45.3439 C   0  0  0  0  0  0  0  0  0  0  0  0
    6.5874   -2.9636   46.1581 C   0  0  0  0  0  0  0  0  0  0  0  0
    4.2763   -3.0680   45.0493 N   0  0  0  0  0  0  0  0  0  0  0  0
    3.6188   -2.5886   44.2024 C   0  0  0  0  0  0  0  0  0  0  0  0
    8.1921   -1.4071   45.7505 C   0  0  0  0  0  0  0  0  0  0  0  0
    1.0154   -1.8839   41.2980 C   0  0  0  0  0  0  0  0  0  0  0  0
    2.5720   -3.3564   43.9063 C   0  0  0  0  0  0  0  0  0  0  0  0
    0.2502   -2.8976   41.0751 C   0  0  0  0  0  0  0  0  0  0  0  0
    6.1761   -4.1775   47.0209 C   0  0  0  0  0  0  0  0  0  0  0  0
    1.7266   -3.1047   43.0115 C   0  0  2  0  0  0  0  0  0  0  0  0
    2.3696   -4.5367   44.7536 N   0  0  0  0  0  0  0  0  0  0  0  0
    1.2264   -5.2346   44.4693 C   0  0  0  0  0  0  0  0  0  0  0  0
    0.7187   -3.8955   42.5465 C   0  0  0  0  0  0  0  0  0  0  0  0
    9.4576   -0.8949   46.0327 N   0  0  0  0  0  0  0  0  0  0  0  0
    0.8625   -6.3901   45.2462 C   0  0  0  0  0  0  0  0  0  0  0  0
    7.6467   -2.5139   46.4892 C   0  0  0  0  0  0  0  0  0  0  0  0
   10.4908   -1.5336   45.8242 C   0  0  0  0  0  0  0  0  0  0  0  0
    0.3057   -4.9299   43.2909 C   0  0  0  0  0  0  0  0  0  0  0  0
   11.5916   -1.4291   46.7436 C   0  0  0  0  0  0  0  0  0  0  0  0
   10.5566   -2.3672   44.8649 O   0  0  0  0  0  0  0  0  0  0  0  0
   12.8421   -1.9355   46.2823 C   0  0  0  0  0  0  0  0  0  0  0  0
   13.4833   -2.8582   46.9841 C   0  0  0  0  0  0  0  0  0  0  0  0
   11.4002   -1.1447   48.0540 C   0  0  0  0  0  0  0  0  0  0  0  0
   10.2867   -0.4569   48.4999 O   0  0  0  0  0  0  0  0  0  0  0  0
   12.3327   -1.4798   48.9564 C   0  0  0  0  0  0  0  0  0  0  0  0
   14.7901   -3.3162   46.6439 C   0  0  0  0  0  0  0  0  0  0  0  0
   12.1651   -1.3050   50.3239 O   0  0  0  0  0  0  0  0  0  0  0  0
   15.6765   -2.5740   46.0979 C   0  0  0  0  0  0  0  0  0  0  0  0
   13.4417   -2.4710   48.5369 C   0  0  0  0  0  0  0  0  0  0  0  0
   15.5553   -1.2853   45.8338 C   0  0  0  0  0  0  0  0  0  0  0  0
    2.4633    0.2112   42.8553 O   0  0  0  0  0  0  0  0  0  0  0  0
   15.3909   -0.8808   44.5119 C   0  0  0  0  0  0  0  0  0  0  0  0
   14.8684    0.3217   44.1996 C   0  0  0  0  0  0  0  0  0  0  0  0
   14.3084    0.5776   42.9699 C   0  0  0  0  0  0  0  0  0  0  0  0
  1  2  2  0
  2  3  1  0
  2  4  1  0
  3  5  1  0
  4  6  2  0
  5  7  1  0
  4  8  1  0
  8  9  2  0
  8 10  1  0
  3 11  1  0
 10 11  2  0
  6 12  1  0
  7 13  2  0
 11 14  1  0
 13 15  1  0
  9 16  1  0
 17  7  1  6
 14 17  1  0
 14 18  2  0
 18 19  1  0
 15 20  2  0
 17 20  1  0
 12 21  1  0
 19 22  1  0
  9 23  1  0
 12 23  2  0
 21 24  1  0
 19 25  2  0
 20 25  1  0
 24 26  1  0
 24 27  2  0
 26 28  2  0
 28 29  1  0
 26 30  1  0
 30 31  1  0
 30 32  2  0
 29 33  1  0
 32 34  1  0
 33 35  2  3
 29 36  2  0
 32 36  1  0
 35 37  1  0
  5 38  1  1
 37 39  1  0
 39 40  1  0
 40 41  2  0
M  END
$$$$
O14757_Pocket2Mol_idx-in-all-generaetd-953
     RDKit          3D

 42 50  0  0  0  0  0  0  0  0999 V2000
    1.5482   -0.3111   41.9233 C   0  0  0  0  0  0  0  0  0  0  0  0
    2.7284    0.2018   42.1525 N   0  0  0  0  0  0  0  0  0  0  0  0
    3.7893   -0.3016   42.7005 C   0  0  0  0  0  0  0  0  0  0  0  0
    3.3781   -1.7350   43.0000 C   0  0  0  0  0  0  0  0  0  0  0  0
    2.0339   -1.9619   42.6217 C   0  0  0  0  0  0  0  0  0  0  0  0
    5.0090    0.1219   42.9340 N   0  0  0  0  0  0  0  0  0  0  0  0
    4.2895   -2.4979   43.6707 C   0  0  0  0  0  0  0  0  0  0  0  0
    5.8391   -0.6675   43.6343 C   0  0  0  0  0  0  0  0  0  0  0  0
    6.9849   -0.2377   44.0028 N   0  0  0  0  0  0  0  0  0  0  0  0
    4.0426   -3.8794   44.0832 C   0  0  0  0  0  0  0  0  0  0  0  0
    7.6796   -0.8734   44.9326 C   0  0  0  0  0  0  0  0  0  0  0  0
    1.1064   -2.9576   42.4211 C   0  0  0  0  0  0  0  0  0  0  0  0
    5.5298   -1.9496   44.0315 C   0  0  0  0  0  0  0  0  0  0  0  0
    3.8954   -4.1817   45.4718 C   0  0  0  0  0  0  0  0  0  0  0  0
    0.6765   -3.5480   43.4006 C   0  0  1  0  0  0  0  0  0  0  0  0
    0.5804   -3.2191   41.1635 C   0  0  0  0  0  0  0  0  0  0  0  0
    2.8083   -4.8227   45.9203 N   0  0  0  0  0  0  0  0  0  0  0  0
   -0.1574   -4.5754   42.9329 N   0  0  0  0  0  0  0  0  0  0  0  0
    6.5271   -2.5531   44.9677 C   0  0  0  0  0  0  0  0  0  0  0  0
   -0.2272   -4.3703   41.5137 C   0  0  0  0  0  0  0  0  0  0  0  0
    7.5095   -2.0029   45.3993 C   0  0  0  0  0  0  0  0  0  0  0  0
    8.2550   -2.6982   46.3988 C   0  0  0  0  0  0  0  0  0  0  0  0
    8.8975   -0.3029   45.3267 O   0  0  0  0  0  0  0  0  0  0  0  0
    4.8299   -4.4637   46.4212 C   0  0  0  0  0  0  0  0  0  0  0  0
    4.2707   -4.9248   47.6295 N   0  0  0  0  0  0  0  0  0  0  0  0
    3.2045   -5.2092   47.1521 C   0  0  0  0  0  0  0  0  0  0  0  0
    1.4482   -4.6186   45.4134 C   0  0  1  0  0  0  0  0  0  0  0  0
    1.2398   -3.5043   44.6236 O   0  0  0  0  0  0  0  0  0  0  0  0
    6.3317   -3.9297   46.0870 C   0  0  2  0  0  0  0  0  0  0  0  0
    9.5296   -2.5449   46.9776 C   0  0  0  0  0  0  0  0  0  0  0  0
    9.7921   -1.7530   47.9018 O   0  0  0  0  0  0  0  0  0  0  0  0
    7.3972   -3.8130   46.7939 C   0  0  0  0  0  0  0  0  0  0  0  0
    1.2392   -5.7793   44.5610 C   0  0  0  0  0  0  0  0  0  0  0  0
   10.4982   -3.2564   46.4837 N   0  0  0  0  0  0  0  0  0  0  0  0
   10.3664   -4.3024   45.6489 C   0  0  0  0  0  0  0  0  0  0  0  0
   11.8563   -2.7253   46.7001 C   0  0  0  0  0  0  0  0  0  0  0  0
   12.5920   -2.4093   45.4967 C   0  0  0  0  0  0  0  0  0  0  0  0
   10.3017   -5.6302   46.4426 C   0  0  0  0  0  0  0  0  0  0  0  0
   13.9027   -1.9790   45.6656 C   0  0  0  0  0  0  0  0  0  0  0  0
   12.3588   -2.5019   47.9049 C   0  0  0  0  0  0  0  0  0  0  0  0
   13.7593   -2.0773   47.8895 C   0  0  0  0  0  0  0  0  0  0  0  0
   14.4528   -1.7882   46.8362 C   0  0  0  0  0  0  0  0  0  0  0  0
  1  2  1  0
  2  3  2  0
  3  4  1  0
  1  5  2  0
  4  5  1  0
  3  6  1  0
  4  7  2  0
  6  8  1  0
  8  9  1  0
  7 10  1  0
  9 11  1  0
  5 12  1  0
  7 13  1  0
  8 13  2  0
 10 14  1  0
 12 15  1  0
 12 16  2  0
 14 17  1  0
 15 18  1  0
 13 19  1  0
 16 20  1  0
 18 20  2  0
 11 21  1  0
 19 21  2  0
 21 22  1  0
 11 23  2  0
 14 24  2  0
 24 25  1  0
 17 26  1  0
 25 26  2  0
 17 27  1  0
 15 28  1  6
 27 28  1  0
 19 29  1  0
 24 29  1  0
 22 30  1  0
 30 31  2  0
 22 32  2  0
 29 32  1  1
 27 33  1  6
 30 34  1  0
 34 35  1  0
 34 36  1  0
 36 37  2  0
 35 38  1  0
 37 39  1  0
 36 40  1  0
 40 41  2  0
 39 42  2  0
 41 42  1  0
M  END
$$$$
O14757_Pocket2Mol_idx-in-all-generaetd-954
     RDKit          3D

 50 59  0  0  0  0  0  0  0  0999 V2000
    1.5482   -0.3111   41.9233 C   0  0  0  0  0  0  0  0  0  0  0  0
    2.7284    0.2018   42.1525 N   0  0  0  0  0  0  0  0  0  0  0  0
    3.7893   -0.3016   42.7005 C   0  0  0  0  0  0  0  0  0  0  0  0
    3.3781   -1.7350   43.0000 C   0  0  0  0  0  0  0  0  0  0  0  0
    2.0339   -1.9619   42.6217 C   0  0  0  0  0  0  0  0  0  0  0  0
    5.0090    0.1219   42.9340 N   0  0  0  0  0  0  0  0  0  0  0  0
    4.2895   -2.4979   43.6707 C   0  0  0  0  0  0  0  0  0  0  0  0
    5.8391   -0.6675   43.6343 C   0  0  0  0  0  0  0  0  0  0  0  0
    6.9849   -0.2377   44.0028 N   0  0  0  0  0  0  0  0  0  0  0  0
    4.0426   -3.8794   44.0832 C   0  0  0  0  0  0  0  0  0  0  0  0
    7.6796   -0.8734   44.9326 C   0  0  0  0  0  0  0  0  0  0  0  0
    1.1064   -2.9576   42.4211 C   0  0  0  0  0  0  0  0  0  0  0  0
    5.5298   -1.9496   44.0315 C   0  0  0  0  0  0  0  0  0  0  0  0
    3.8954   -4.1817   45.4718 C   0  0  0  0  0  0  0  0  0  0  0  0
    0.6765   -3.5480   43.4006 C   0  0  1  0  0  0  0  0  0  0  0  0
    0.5804   -3.2191   41.1635 C   0  0  0  0  0  0  0  0  0  0  0  0
    2.8083   -4.8227   45.9203 N   0  0  0  0  0  0  0  0  0  0  0  0
   -0.1574   -4.5754   42.9329 N   0  0  0  0  0  0  0  0  0  0  0  0
    6.5271   -2.5531   44.9677 C   0  0  0  0  0  0  0  0  0  0  0  0
   -0.2272   -4.3703   41.5137 C   0  0  0  0  0  0  0  0  0  0  0  0
    7.5095   -2.0029   45.3993 C   0  0  0  0  0  0  0  0  0  0  0  0
    8.2550   -2.6982   46.3988 C   0  0  1  0  0  0  0  0  0  0  0  0
    8.8975   -0.3029   45.3267 O   0  0  0  0  0  0  0  0  0  0  0  0
    4.8299   -4.4637   46.4212 C   0  0  0  0  0  0  0  0  0  0  0  0
    4.2707   -4.9248   47.6295 N   0  0  0  0  0  0  0  0  0  0  0  0
    3.2045   -5.2092   47.1521 C   0  0  0  0  0  0  0  0  0  0  0  0
    1.4482   -4.6186   45.4134 C   0  0  0  0  0  0  0  0  0  0  0  0
    1.3256   -3.7660   44.6394 N   0  0  0  0  0  0  0  0  0  0  0  0
    9.2816   -2.1418   47.1273 N   0  0  0  0  0  0  0  0  0  0  0  0
   10.0629   -3.1324   47.8508 C   0  0  0  0  0  0  0  0  0  0  0  0
    6.3491   -3.8960   46.0844 C   0  0  2  0  0  0  0  0  0  0  0  0
    7.4349   -3.5889   46.9054 C   0  0  0  0  0  0  0  0  0  0  0  0
   10.3145   -2.7271   49.0818 O   0  0  0  0  0  0  0  0  0  0  0  0
    0.6213   -5.4445   45.7455 O   0  0  0  0  0  0  0  0  0  0  0  0
   11.0262   -3.8136   47.1050 C   0  0  0  0  0  0  0  0  0  0  0  0
   12.1704   -3.3854   46.7547 C   0  0  0  0  0  0  0  0  0  0  0  0
   13.1080   -4.1111   46.0053 C   0  0  0  0  0  0  0  0  0  0  0  0
   14.3489   -3.5966   45.7888 C   0  0  0  0  0  0  0  0  0  0  0  0
   12.7430   -5.2725   45.5056 C   0  0  0  0  0  0  0  0  0  0  0  0
   14.6935   -2.2816   45.3353 C   0  0  0  0  0  0  0  0  0  0  0  0
   15.8828   -1.9964   44.9887 C   0  0  0  0  0  0  0  0  0  0  0  0
   15.4347   -4.4529   45.9716 C   0  0  0  0  0  0  0  0  0  0  0  0
   16.1869   -0.5957   44.4528 O   0  0  0  0  0  0  0  0  0  0  0  0
   16.7870   -3.8955   45.6256 C   0  0  0  0  0  0  0  0  0  0  0  0
   17.9128   -4.8664   45.8128 O   0  0  0  0  0  0  0  0  0  0  0  0
   11.4871   -5.8587   45.8346 C   0  0  0  0  0  0  0  0  0  0  0  0
   11.0566   -7.1074   45.3972 O   0  0  0  0  0  0  0  0  0  0  0  0
   10.6061   -5.0982   46.6619 C   0  0  0  0  0  0  0  0  0  0  0  0
   17.0551   -2.7335   45.1987 C   0  0  0  0  0  0  0  0  0  0  0  0
   15.7006   -0.3513   43.2276 C   0  0  0  0  0  0  0  0  0  0  0  0
  1  2  1  0
  2  3  2  0
  3  4  1  0
  1  5  2  0
  4  5  1  0
  3  6  1  0
  4  7  2  0
  6  8  1  0
  8  9  1  0
  7 10  1  0
  9 11  1  0
  5 12  1  0
  7 13  1  0
  8 13  2  0
 10 14  1  0
 12 15  1  0
 12 16  2  0
 14 17  1  0
 15 18  1  0
 13 19  1  0
 16 20  1  0
 18 20  2  0
 11 21  1  0
 19 21  2  0
 21 22  1  0
 11 23  2  0
 14 24  2  0
 24 25  1  0
 17 26  1  0
 25 26  2  0
 17 27  1  0
 15 28  1  6
 27 28  1  0
 22 29  1  1
 29 30  1  0
 19 31  1  0
 24 31  1  0
 22 32  1  0
 31 32  1  1
 30 33  2  0
 27 34  2  0
 30 35  1  0
 35 36  2  0
 36 37  1  0
 37 38  1  0
 37 39  2  0
 38 40  2  0
 40 41  1  0
 38 42  1  0
 41 43  1  0
 42 44  2  0
 44 45  1  0
 39 46  1  0
 46 47  1  0
 35 48  1  0
 46 48  2  0
 41 49  2  0
 44 49  1  0
 43 50  1  0
M  END
$$$$
O14757_Pocket2Mol_idx-in-all-generaetd-955
     RDKit          3D

 26 30  0  0  0  0  0  0  0  0999 V2000
    4.5156    0.0550   42.9895 N   0  0  0  0  0  0  0  0  0  0  0  0
    3.2960    0.1633   42.4470 C   0  0  0  0  0  0  0  0  0  0  0  0
    2.7621   -1.2305   42.4476 C   0  0  0  0  0  0  0  0  0  0  0  0
    5.2005   -0.8099   43.5858 C   0  0  0  0  0  0  0  0  0  0  0  0
    4.4157   -2.0357   43.6745 C   0  0  0  0  0  0  0  0  0  0  0  0
    3.3964   -2.2069   43.1195 C   0  0  0  0  0  0  0  0  0  0  0  0
    2.6107   -3.4636   43.1542 N   0  0  0  0  0  0  0  0  0  0  0  0
    1.4467   -1.2849   41.8335 C   0  0  0  0  0  0  0  0  0  0  0  0
    5.1851   -3.1348   44.4538 N   0  0  0  0  0  0  0  0  0  0  0  0
    6.4172   -0.8203   44.3346 N   0  0  0  0  0  0  0  0  0  0  0  0
    0.8321   -2.5451   41.8394 C   0  0  0  0  0  0  0  0  0  0  0  0
    6.3079   -2.8731   45.1171 C   0  0  0  0  0  0  0  0  0  0  0  0
    6.8863   -3.8787   45.9525 C   0  0  0  0  0  0  0  0  0  0  0  0
    1.4408   -3.5475   42.6011 C   0  0  0  0  0  0  0  0  0  0  0  0
    6.8919   -1.7510   45.0602 C   0  0  0  0  0  0  0  0  0  0  0  0
    8.1383   -1.7029   45.8456 C   0  0  0  0  0  0  0  0  0  0  0  0
    8.8942   -0.3556   45.7602 O   0  0  0  0  0  0  0  0  0  0  0  0
    8.5707   -2.6683   46.5680 C   0  0  0  0  0  0  0  0  0  0  0  0
    6.0278   -5.1474   46.0603 F   0  0  0  0  0  0  0  0  0  0  0  0
    9.8886   -2.3525   47.3392 C   0  0  0  0  0  0  0  0  0  0  0  0
    7.9287   -3.7992   46.7632 C   0  0  0  0  0  0  0  0  0  0  0  0
   10.9761   -2.6065   46.6251 N   0  0  0  0  0  0  0  0  0  0  0  0
   11.3313   -3.8191   46.3196 C   0  0  0  0  0  0  0  0  0  0  0  0
   11.7403   -1.5108   46.1105 C   0  0  0  0  0  0  0  0  0  0  0  0
   13.0474   -1.9978   45.6324 C   0  0  0  0  0  0  0  0  0  0  0  0
   12.8747   -3.6817   45.8527 C   0  0  0  0  0  0  0  0  0  0  0  0
  1  2  2  0
  2  3  1  0
  1  4  1  0
  4  5  2  0
  3  6  2  0
  5  6  1  0
  6  7  1  0
  3  8  1  0
  5  9  1  0
  4 10  1  0
  8 11  2  0
  9 12  2  0
 12 13  1  0
  7 14  2  0
 11 14  1  0
 10 15  2  0
 12 15  1  0
 15 16  1  0
 16 17  1  0
 16 18  2  0
 13 19  1  0
 18 20  1  0
 13 21  2  0
 18 21  1  0
 20 22  1  0
 22 23  1  0
 22 24  1  0
 24 25  1  0
 23 26  1  0
 25 26  1  0
M  END
$$$$
O14757_Pocket2Mol_idx-in-all-generaetd-956
     RDKit          3D

 47 54  0  0  0  0  0  0  0  0999 V2000
    5.3420    0.2589   42.8836 O   0  0  0  0  0  0  0  0  0  0  0  0
    5.1627   -0.7554   43.4753 C   0  0  0  0  0  0  0  0  0  0  0  0
    4.0509   -1.4657   43.4177 N   0  0  0  0  0  0  0  0  0  0  0  0
    5.9969   -1.2317   44.6840 C   0  0  0  0  0  0  0  0  0  0  0  0
    2.9618   -1.1021   42.5918 C   0  0  1  0  0  0  0  0  0  0  0  0
    7.3392   -0.8596   44.8412 C   0  0  0  0  0  0  0  0  0  0  0  0
    1.9754   -2.0820   42.2741 C   0  0  0  0  0  0  0  0  0  0  0  0
    5.5910   -2.4282   45.3439 C   0  0  0  0  0  0  0  0  0  0  0  0
    6.5874   -2.9636   46.1581 C   0  0  0  0  0  0  0  0  0  0  0  0
    4.2763   -3.0680   45.0493 N   0  0  0  0  0  0  0  0  0  0  0  0
    3.6188   -2.5886   44.2024 C   0  0  0  0  0  0  0  0  0  0  0  0
    8.1921   -1.4071   45.7505 C   0  0  0  0  0  0  0  0  0  0  0  0
    1.0154   -1.8839   41.2980 C   0  0  0  0  0  0  0  0  0  0  0  0
    2.5720   -3.3564   43.9063 C   0  0  0  0  0  0  0  0  0  0  0  0
    0.2502   -2.8976   41.0751 C   0  0  0  0  0  0  0  0  0  0  0  0
    6.1761   -4.1775   47.0209 C   0  0  0  0  0  0  0  0  0  0  0  0
    1.7266   -3.1047   43.0115 C   0  0  2  0  0  0  0  0  0  0  0  0
    2.3696   -4.5367   44.7536 N   0  0  0  0  0  0  0  0  0  0  0  0
    1.2264   -5.2346   44.4693 C   0  0  0  0  0  0  0  0  0  0  0  0
    0.7187   -3.8955   42.5465 C   0  0  0  0  0  0  0  0  0  0  0  0
    9.4576   -0.8949   46.0327 N   0  0  0  0  0  0  0  0  0  0  0  0
    0.8625   -6.3901   45.2462 C   0  0  0  0  0  0  0  0  0  0  0  0
    7.6467   -2.5139   46.4892 C   0  0  0  0  0  0  0  0  0  0  0  0
   10.4908   -1.5336   45.8242 C   0  0  0  0  0  0  0  0  0  0  0  0
    0.3057   -4.9299   43.2909 C   0  0  0  0  0  0  0  0  0  0  0  0
   11.5916   -1.4291   46.7436 C   0  0  0  0  0  0  0  0  0  0  0  0
   10.5566   -2.3672   44.8649 O   0  0  0  0  0  0  0  0  0  0  0  0
   12.8421   -1.9355   46.2823 C   0  0  0  0  0  0  0  0  0  0  0  0
   13.4833   -2.8582   46.9841 C   0  0  0  0  0  0  0  0  0  0  0  0
   11.4002   -1.1447   48.0540 C   0  0  0  0  0  0  0  0  0  0  0  0
   10.2867   -0.4569   48.4999 O   0  0  0  0  0  0  0  0  0  0  0  0
   12.3327   -1.4798   48.9564 C   0  0  1  0  0  0  0  0  0  0  0  0
   14.7901   -3.3162   46.6439 C   0  0  0  0  0  0  0  0  0  0  0  0
   12.1651   -1.3050   50.3239 O   0  0  0  0  0  0  0  0  0  0  0  0
   15.6765   -2.5740   46.0979 C   0  0  0  0  0  0  0  0  0  0  0  0
    2.4608    0.2106   42.8512 C   0  0  0  0  0  0  0  0  0  0  0  0
   15.5213   -1.2590   45.7606 C   0  0  0  0  0  0  0  0  0  0  0  0
   14.5349   -0.8899   44.8574 C   0  0  0  0  0  0  0  0  0  0  0  0
   12.9775   -3.3460   48.2127 C   0  0  0  0  0  0  0  0  0  0  0  0
   14.7129   -0.1943   43.8652 C   0  0  0  0  0  0  0  0  0  0  0  0
   13.1163   -1.3789   45.0490 O   0  0  0  0  0  0  0  0  0  0  0  0
   12.7443   -2.7596   49.2688 C   0  0  0  0  0  0  0  0  0  0  0  0
   16.7753   -0.6612   45.4305 C   0  0  0  0  0  0  0  0  0  0  0  0
   17.8830   -0.8892   46.3079 O   0  0  0  0  0  0  0  0  0  0  0  0
   16.8585    0.3637   44.5258 C   0  0  0  0  0  0  0  0  0  0  0  0
   13.4197    0.2696   43.0140 F   0  0  0  0  0  0  0  0  0  0  0  0
   15.7593    0.7077   43.7188 C   0  0  0  0  0  0  0  0  0  0  0  0
  1  2  2  0
  2  3  1  0
  2  4  1  0
  3  5  1  0
  4  6  2  0
  5  7  1  0
  4  8  1  0
  8  9  2  0
  8 10  1  0
  3 11  1  0
 10 11  2  0
  6 12  1  0
  7 13  2  0
 11 14  1  0
 13 15  1  0
  9 16  1  0
 17  7  1  6
 14 17  1  0
 14 18  2  0
 18 19  1  0
 15 20  2  0
 17 20  1  0
 12 21  1  0
 19 22  1  0
  9 23  1  0
 12 23  2  0
 21 24  1  0
 19 25  2  0
 20 25  1  0
 24 26  1  0
 24 27  2  0
 26 28  1  0
 28 29  2  0
 26 30  2  0
 30 31  1  0
 30 32  1  0
 29 33  1  0
 32 34  1  1
 33 35  2  0
  5 36  1  1
 35 37  1  0
 37 38  2  0
 29 39  1  0
 38 40  1  0
 28 41  1  0
 38 41  1  0
 32 42  1  0
 39 42  1  0
 37 43  1  0
 43 44  1  0
 43 45  2  0
 40 46  1  0
 40 47  2  0
 45 47  1  0
M  END
$$$$
O14757_Pocket2Mol_idx-in-all-generaetd-957
     RDKit          3D

 29 34  0  0  0  0  0  0  0  0999 V2000
    4.5156    0.0550   42.9895 N   0  0  0  0  0  0  0  0  0  0  0  0
    5.0618   -0.8645   43.5295 C   0  0  0  0  0  0  0  0  0  0  0  0
    4.4350   -2.0604   43.7783 C   0  0  0  0  0  0  0  0  0  0  0  0
    4.9987   -3.0994   44.5839 C   0  0  0  0  0  0  0  0  0  0  0  0
    3.2714   -1.8664   43.0632 C   0  0  0  0  0  0  0  0  0  0  0  0
    6.4064   -0.5942   44.3204 N   0  0  0  0  0  0  0  0  0  0  0  0
    4.3422   -4.3256   44.7203 C   0  0  0  0  0  0  0  0  0  0  0  0
    2.1845   -2.6668   42.8270 N   0  0  0  0  0  0  0  0  0  0  0  0
    3.3305   -0.5395   42.5465 N   0  0  0  0  0  0  0  0  0  0  0  0
    1.9502   -3.8972   43.4076 C   0  0  0  0  0  0  0  0  0  0  0  0
    2.7156   -4.1184   44.6954 N   0  0  0  0  0  0  0  0  0  0  0  0
    6.8581   -1.5862   45.1101 C   0  0  0  0  0  0  0  0  0  0  0  0
    6.1801   -2.8430   45.2383 C   0  0  0  0  0  0  0  0  0  0  0  0
    2.1454   -5.1901   45.5771 C   0  0  0  0  0  0  0  0  0  0  0  0
    8.0137   -1.3946   45.8526 C   0  0  0  0  0  0  0  0  0  0  0  0
    0.9733   -4.5725   43.2066 O   0  0  0  0  0  0  0  0  0  0  0  0
    2.2437    0.0035   41.8733 C   0  0  0  0  0  0  0  0  0  0  0  0
    1.0849   -2.2139   41.9643 C   0  0  0  0  0  0  0  0  0  0  0  0
    1.0706   -0.9449   41.7082 C   0  0  0  0  0  0  0  0  0  0  0  0
    8.6144   -2.2842   46.6846 C   0  0  0  0  0  0  0  0  0  0  0  0
    6.9178   -3.7546   46.3085 C   0  0  0  0  0  0  0  0  0  0  0  0
    8.0358   -3.4919   46.8779 C   0  0  0  0  0  0  0  0  0  0  0  0
    9.8639   -1.9680   47.3567 O   0  0  0  0  0  0  0  0  0  0  0  0
   10.9341   -1.6111   46.5548 C   0  0  0  0  0  0  0  0  0  0  0  0
   11.9178   -1.1355   47.1416 C   0  0  0  0  0  0  0  0  0  0  0  0
   13.0127   -0.7189   46.2705 C   0  0  0  0  0  0  0  0  0  0  0  0
   10.9023   -2.2574   45.2546 C   0  0  0  0  0  0  0  0  0  0  0  0
   12.1190   -2.0425   44.5061 C   0  0  0  0  0  0  0  0  0  0  0  0
   13.1913   -1.3570   45.0745 C   0  0  0  0  0  0  0  0  0  0  0  0
  1  2  2  0
  2  3  1  0
  3  4  1  0
  3  5  2  0
  2  6  1  0
  4  7  1  0
  5  8  1  0
  1  9  1  0
  5  9  1  0
  8 10  1  0
  7 11  1  0
 10 11  1  0
  6 12  2  0
  4 13  2  0
 12 13  1  0
 11 14  1  0
 12 15  1  0
 10 16  2  0
  9 17  1  0
  8 18  1  0
 17 19  1  0
 18 19  1  0
 15 20  2  0
 13 21  1  0
 20 22  1  0
 21 22  2  0
 20 23  1  0
 23 24  1  0
 24 25  2  0
 25 26  1  0
 24 27  1  0
 27 28  2  0
 26 29  2  0
 28 29  1  0
M  END
$$$$
O14757_Pocket2Mol_idx-in-all-generaetd-958
     RDKit          3D

 39 46  0  0  0  0  0  0  0  0999 V2000
    4.8037   -0.1366   42.7100 N   0  0  0  0  0  0  0  0  0  0  0  0
    3.6577   -0.7759   42.7186 C   0  0  0  0  0  0  0  0  0  0  0  0
    3.6660   -1.8665   43.4760 C   0  0  0  0  0  0  0  0  0  0  0  0
    2.7271   -2.8718   43.6599 C   0  0  0  0  0  0  0  0  0  0  0  0
    2.4846   -0.2994   42.1254 N   0  0  0  0  0  0  0  0  0  0  0  0
    5.0524   -1.7697   43.9367 C   0  0  0  0  0  0  0  0  0  0  0  0
    1.4917   -2.9000   43.0914 C   0  0  0  0  0  0  0  0  0  0  0  0
    3.1274   -3.9503   44.5163 C   0  0  0  0  0  0  0  0  0  0  0  0
    1.0744   -1.9066   42.1491 C   0  0  2  0  0  0  0  0  0  0  0  0
    5.6624   -0.7003   43.4895 C   0  0  0  0  0  0  0  0  0  0  0  0
    5.5753   -2.5784   45.0324 C   0  0  0  0  0  0  0  0  0  0  0  0
    0.4030   -3.6297   43.4883 N   0  0  0  0  0  0  0  0  0  0  0  0
    1.5052   -0.8077   41.7519 C   0  0  0  0  0  0  0  0  0  0  0  0
   -0.5645   -3.4039   42.5585 N   0  0  0  0  0  0  0  0  0  0  0  0
    2.5059   -5.1012   44.7935 C   0  0  0  0  0  0  0  0  0  0  0  0
    4.4581   -3.8218   45.2947 C   0  0  0  0  0  0  0  0  0  0  0  0
   -0.3089   -2.3979   41.8128 C   0  0  0  0  0  0  0  0  0  0  0  0
    6.6435   -2.6577   45.6991 C   0  0  0  0  0  0  0  0  0  0  0  0
    7.0869   -3.7008   46.4717 C   0  0  0  0  0  0  0  0  0  0  0  0
    7.5912   -1.5296   45.5455 C   0  0  0  0  0  0  0  0  0  0  0  0
    8.7765   -1.4352   46.2248 C   0  0  0  0  0  0  0  0  0  0  0  0
    6.3069   -4.7944   46.6836 O   0  0  0  0  0  0  0  0  0  0  0  0
    4.8984   -4.5252   46.1302 C   0  0  0  0  0  0  0  0  0  0  0  0
    4.2122   -5.9932   46.2216 C   0  0  0  0  0  0  0  0  0  0  0  0
    8.3395   -3.6608   47.2172 C   0  0  0  0  0  0  0  0  0  0  0  0
    4.6690   -6.8778   47.1549 O   0  0  0  0  0  0  0  0  0  0  0  0
    9.1822   -2.5745   47.1243 C   0  0  0  0  0  0  0  0  0  0  0  0
   10.4419   -2.3733   47.8332 C   0  0  0  0  0  0  0  0  0  0  0  0
   10.5277   -1.5655   48.7043 O   0  0  0  0  0  0  0  0  0  0  0  0
    2.9373   -6.0805   45.7037 C   0  0  0  0  0  0  0  0  0  0  0  0
   11.4886   -2.8791   47.1590 O   0  0  0  0  0  0  0  0  0  0  0  0
   12.5752   -2.3359   47.1530 C   0  0  0  0  0  0  0  0  0  0  0  0
   12.9193   -1.9090   45.7253 C   0  0  0  0  0  0  0  0  0  0  0  0
   14.0461   -1.3819   45.4309 C   0  0  0  0  0  0  0  0  0  0  0  0
   13.5349   -2.2724   48.1315 C   0  0  0  0  0  0  0  0  0  0  0  0
   15.1049   -1.3384   46.4413 C   0  0  0  0  0  0  0  0  0  0  0  0
   16.3882   -0.8269   46.0821 O   0  0  0  0  0  0  0  0  0  0  0  0
   14.9374   -1.7551   47.7506 C   0  0  0  0  0  0  0  0  0  0  0  0
   16.5677   -0.3418   44.9013 C   0  0  0  0  0  0  0  0  0  0  0  0
  1  2  2  0
  2  3  1  0
  3  4  2  0
  2  5  1  0
  3  6  1  0
  4  7  1  0
  4  8  1  0
  7  9  1  0
  1 10  1  0
  6 10  1  0
  6 11  2  0
  7 12  2  0
  5 13  2  0
  9 13  1  1
 12 14  1  0
  8 15  2  0
  8 16  1  0
 11 16  1  0
  9 17  1  0
 14 17  2  0
 11 18  1  0
 18 19  2  0
 18 20  1  0
 20 21  2  0
 19 22  1  0
 16 23  2  0
 22 23  1  0
 23 24  1  0
 19 25  1  0
 24 26  1  0
 21 27  1  0
 25 27  2  0
 27 28  1  0
 28 29  2  0
 15 30  1  0
 24 30  2  0
 28 31  1  0
 31 32  1  0
 32 33  2  0
 33 34  1  0
 32 35  1  0
 34 36  2  0
 36 37  1  0
 35 38  2  0
 36 38  1  0
 37 39  1  0
M  END
$$$$
O14757_Pocket2Mol_idx-in-all-generaetd-959
     RDKit          3D

 36 43  0  0  0  0  0  0  0  0999 V2000
    1.5482   -0.3111   41.9233 C   0  0  0  0  0  0  0  0  0  0  0  0
    2.7284    0.2018   42.1525 N   0  0  0  0  0  0  0  0  0  0  0  0
    3.7893   -0.3016   42.7005 C   0  0  0  0  0  0  0  0  0  0  0  0
    3.3781   -1.7350   43.0000 C   0  0  0  0  0  0  0  0  0  0  0  0
    2.0339   -1.9619   42.6217 C   0  0  0  0  0  0  0  0  0  0  0  0
    5.0090    0.1219   42.9340 N   0  0  0  0  0  0  0  0  0  0  0  0
    4.2895   -2.4979   43.6707 C   0  0  0  0  0  0  0  0  0  0  0  0
    5.8391   -0.6675   43.6343 C   0  0  0  0  0  0  0  0  0  0  0  0
    6.9849   -0.2377   44.0028 N   0  0  0  0  0  0  0  0  0  0  0  0
    4.0426   -3.8794   44.0832 C   0  0  0  0  0  0  0  0  0  0  0  0
    7.6796   -0.8734   44.9326 C   0  0  0  0  0  0  0  0  0  0  0  0
    1.1064   -2.9576   42.4211 C   0  0  0  0  0  0  0  0  0  0  0  0
    5.5298   -1.9496   44.0315 C   0  0  0  0  0  0  0  0  0  0  0  0
    3.8954   -4.1817   45.4718 C   0  0  0  0  0  0  0  0  0  0  0  0
    0.6765   -3.5480   43.4006 C   0  0  1  0  0  0  0  0  0  0  0  0
    0.5804   -3.2191   41.1635 C   0  0  0  0  0  0  0  0  0  0  0  0
    2.8083   -4.8227   45.9203 N   0  0  0  0  0  0  0  0  0  0  0  0
   -0.1574   -4.5754   42.9329 N   0  0  0  0  0  0  0  0  0  0  0  0
    6.5271   -2.5531   44.9677 C   0  0  0  0  0  0  0  0  0  0  0  0
   -0.2272   -4.3703   41.5137 C   0  0  0  0  0  0  0  0  0  0  0  0
    7.5095   -2.0029   45.3993 C   0  0  0  0  0  0  0  0  0  0  0  0
    8.2550   -2.6982   46.3988 C   0  0  1  0  0  0  0  0  0  0  0  0
    8.8975   -0.3029   45.3267 O   0  0  0  0  0  0  0  0  0  0  0  0
    4.8299   -4.4637   46.4212 C   0  0  0  0  0  0  0  0  0  0  0  0
    4.2707   -4.9248   47.6295 N   0  0  0  0  0  0  0  0  0  0  0  0
    3.2045   -5.2092   47.1521 C   0  0  0  0  0  0  0  0  0  0  0  0
    1.4482   -4.6186   45.4134 C   0  0  0  0  0  0  0  0  0  0  0  0
    1.3256   -3.7660   44.6394 N   0  0  0  0  0  0  0  0  0  0  0  0
    9.2816   -2.1418   47.1273 N   0  0  0  0  0  0  0  0  0  0  0  0
   10.0629   -3.1324   47.8508 C   0  0  0  0  0  0  0  0  0  0  0  0
    6.3491   -3.8960   46.0844 C   0  0  2  0  0  0  0  0  0  0  0  0
    7.4349   -3.5889   46.9054 C   0  0  0  0  0  0  0  0  0  0  0  0
    0.6207   -5.4448   45.7439 O   0  0  0  0  0  0  0  0  0  0  0  0
   11.3271   -2.6276   47.9131 C   0  0  0  0  0  0  0  0  0  0  0  0
   12.2496   -3.2727   47.1058 O   0  0  0  0  0  0  0  0  0  0  0  0
   13.5770   -3.0621   47.1017 C   0  0  0  0  0  0  0  0  0  0  0  0
  1  2  1  0
  2  3  2  0
  3  4  1  0
  1  5  2  0
  4  5  1  0
  3  6  1  0
  4  7  2  0
  6  8  1  0
  8  9  1  0
  7 10  1  0
  9 11  1  0
  5 12  1  0
  7 13  1  0
  8 13  2  0
 10 14  1  0
 12 15  1  0
 12 16  2  0
 14 17  1  0
 15 18  1  0
 13 19  1  0
 16 20  1  0
 18 20  2  0
 11 21  1  0
 19 21  2  0
 21 22  1  0
 11 23  2  0
 14 24  2  0
 24 25  1  0
 17 26  1  0
 25 26  2  0
 17 27  1  0
 15 28  1  6
 27 28  1  0
 22 29  1  1
 29 30  1  0
 19 31  1  0
 24 31  1  0
 22 32  1  0
 31 32  1  1
 27 33  2  0
 30 34  1  0
 34 35  1  0
 35 36  1  0
M  END
$$$$
O14757_Pocket2Mol_idx-in-all-generaetd-960
     RDKit          3D

 38 43  0  0  0  0  0  0  0  0999 V2000
    1.5482   -0.3111   41.9233 C   0  0  0  0  0  0  0  0  0  0  0  0
    2.7284    0.2018   42.1525 N   0  0  0  0  0  0  0  0  0  0  0  0
    3.7893   -0.3016   42.7005 C   0  0  0  0  0  0  0  0  0  0  0  0
    3.3781   -1.7350   43.0000 C   0  0  0  0  0  0  0  0  0  0  0  0
    2.0339   -1.9619   42.6217 C   0  0  0  0  0  0  0  0  0  0  0  0
    4.1166   -2.4997   43.8458 C   0  0  0  0  0  0  0  0  0  0  0  0
    1.1731   -3.0051   42.5773 C   0  0  0  0  0  0  0  0  0  0  0  0
    0.4701   -3.2344   41.4901 C   0  0  0  0  0  0  0  0  0  0  0  0
    5.3799   -1.7814   44.2691 C   0  0  0  0  0  0  0  0  0  0  0  0
    5.0159   -0.0180   43.1201 N   0  0  0  0  0  0  0  0  0  0  0  0
    5.7693   -0.6937   43.8418 C   0  0  0  0  0  0  0  0  0  0  0  0
    0.8078   -3.6166   43.6782 C   0  0  0  0  0  0  0  0  0  0  0  0
    0.0663   -4.7011   43.7415 N   0  0  0  0  0  0  0  0  0  0  0  0
    6.2223   -2.6843   45.1565 C   0  0  0  0  0  0  0  0  0  0  0  0
    6.9599   -0.2351   44.2608 N   0  0  0  0  0  0  0  0  0  0  0  0
    5.9065   -3.9037   45.7499 N   0  0  0  0  0  0  0  0  0  0  0  0
   -0.5459   -5.1185   42.5870 C   0  0  0  0  0  0  0  0  0  0  0  0
    5.7480   -4.0340   46.9810 C   0  0  0  0  0  0  0  0  0  0  0  0
    7.4448   -1.8511   45.4198 C   0  0  0  0  0  0  0  0  0  0  0  0
    7.7572   -0.7827   45.0128 C   0  0  0  0  0  0  0  0  0  0  0  0
    8.4076   -2.7217   46.4541 C   0  0  0  0  0  0  0  0  0  0  0  0
    9.3167   -2.0988   47.1049 N   0  0  0  0  0  0  0  0  0  0  0  0
   -0.4719   -4.3893   41.5406 C   0  0  0  0  0  0  0  0  0  0  0  0
    8.3667   -4.0284   46.5743 N   0  0  0  0  0  0  0  0  0  0  0  0
   10.1532   -2.5726   47.9567 C   0  0  0  0  0  0  0  0  0  0  0  0
   11.0726   -1.7892   48.6998 C   0  0  0  0  0  0  0  0  0  0  0  0
   10.4886   -0.9372   49.4584 C   0  0  0  0  0  0  0  0  0  0  0  0
   10.2139   -3.8947   48.0407 C   0  0  0  0  0  0  0  0  0  0  0  0
    6.6188   -4.9855   47.3969 N   0  0  0  0  0  0  0  0  0  0  0  0
    5.1401   -3.1961   47.7242 O   0  0  0  0  0  0  0  0  0  0  0  0
    9.2230   -4.6492   47.2923 C   0  0  0  0  0  0  0  0  0  0  0  0
   12.4306   -1.6942   48.6002 C   0  0  0  0  0  0  0  0  0  0  0  0
   13.1277   -2.5738   47.4657 C   0  0  0  0  0  0  0  0  0  0  0  0
   12.9867   -0.9385   49.4619 C   0  0  0  0  0  0  0  0  0  0  0  0
   13.5901   -2.1437   46.5134 O   0  0  0  0  0  0  0  0  0  0  0  0
   13.5651   -3.7412   47.8198 O   0  0  0  0  0  0  0  0  0  0  0  0
   11.1564   -0.1936   50.4870 C   0  0  0  0  0  0  0  0  0  0  0  0
   12.5085   -0.1677   50.3861 C   0  0  0  0  0  0  0  0  0  0  0  0
  1  2  1  0
  2  3  2  0
  3  4  1  0
  1  5  2  0
  4  5  1  0
  4  6  2  0
  5  7  1  0
  7  8  2  0
  6  9  1  0
  3 10  1  0
  9 11  2  0
 10 11  1  0
  7 12  1  0
 12 13  2  0
  9 14  1  0
 11 15  1  0
 14 16  1  0
 13 17  1  0
 16 18  1  0
 14 19  2  0
 15 20  2  0
 19 20  1  0
 19 21  1  0
 21 22  2  0
  8 23  1  0
 17 23  2  0
 21 24  1  0
 22 25  1  0
 25 26  1  0
 26 27  2  0
 25 28  2  0
 18 29  1  0
 18 30  2  0
 24 31  2  0
 28 31  1  0
 26 32  1  0
 32 33  1  0
 32 34  2  0
 33 35  2  0
 33 36  1  0
 27 37  1  0
 34 38  1  0
 37 38  2  0
M  END
$$$$
O14757_Pocket2Mol_idx-in-all-generaetd-961
     RDKit          3D

 31 35  0  0  0  0  0  0  0  0999 V2000
    0.3497   -2.5592   41.5321 C   0  0  0  0  0  0  0  0  0  0  0  0
    0.7059   -1.3065   41.4152 C   0  0  0  0  0  0  0  0  0  0  0  0
    2.0121   -0.9206   42.0074 C   0  0  0  0  0  0  0  0  0  0  0  0
    2.8273   -1.8583   42.7096 C   0  0  0  0  0  0  0  0  0  0  0  0
   -0.9158   -2.9896   41.0259 O   0  0  0  0  0  0  0  0  0  0  0  0
    2.1785   -3.2182   42.8202 C   0  0  0  0  0  0  0  0  0  0  0  0
    2.9957   -4.0364   43.6549 N   0  0  0  0  0  0  0  0  0  0  0  0
    1.0381   -3.5102   42.3147 C   0  0  0  0  0  0  0  0  0  0  0  0
    4.0501   -1.4436   43.3296 C   0  0  0  0  0  0  0  0  0  0  0  0
    4.2345   -3.7127   44.1966 C   0  0  0  0  0  0  0  0  0  0  0  0
    4.9099   -4.6363   45.0387 N   0  0  0  0  0  0  0  0  0  0  0  0
    4.7563   -2.4299   44.0678 C   0  0  0  0  0  0  0  0  0  0  0  0
    6.0306   -2.0532   44.6670 C   0  0  0  0  0  0  0  0  0  0  0  0
    4.6111   -0.1656   43.0716 N   0  0  0  0  0  0  0  0  0  0  0  0
    6.7834   -2.7598   45.5925 N   0  0  0  0  0  0  0  0  0  0  0  0
    8.0062   -2.3962   46.0654 C   0  0  1  0  0  0  0  0  0  0  0  0
    8.3845   -1.1262   46.4117 C   0  0  0  0  0  0  0  0  0  0  0  0
    6.3026   -0.6817   44.5619 N   0  0  0  0  0  0  0  0  0  0  0  0
    5.6684    0.0898   43.6845 C   0  0  0  0  0  0  0  0  0  0  0  0
    8.3525   -3.2296   47.1905 C   0  0  0  0  0  0  0  0  0  0  0  0
    9.8112   -0.8718   46.4448 C   0  0  0  0  0  0  0  0  0  0  0  0
   -2.1452   -2.6079   41.5170 C   0  0  0  0  0  0  0  0  0  0  0  0
   10.3633   -1.7219   47.5388 C   0  0  0  0  0  0  0  0  0  0  0  0
    9.8848   -3.1495   47.3831 N   0  0  0  0  0  0  0  0  0  0  0  0
   10.6734   -4.2324   47.2288 C   0  0  1  0  0  0  0  0  0  0  0  0
   11.0343   -4.7090   46.1706 C   0  0  2  0  0  0  0  0  0  0  0  0
   11.8073   -4.0425   48.1086 O   0  0  0  0  0  0  0  0  0  0  0  0
   12.8915   -4.5957   47.6095 C   0  0  0  0  0  0  0  0  0  0  0  0
   10.3076   -5.6984   45.6196 O   0  0  0  0  0  0  0  0  0  0  0  0
   12.4336   -5.3743   46.4335 C   0  0  2  0  0  0  0  0  0  0  0  0
   13.3240   -5.1352   45.3740 O   0  0  0  0  0  0  0  0  0  0  0  0
  1  2  2  0
  2  3  1  0
  3  4  2  0
  1  5  1  0
  4  6  1  0
  6  7  1  0
  1  8  1  0
  6  8  2  0
  4  9  1  0
  7 10  2  0
 10 11  1  0
  9 12  2  0
 10 12  1  0
 12 13  1  0
  9 14  1  0
 13 15  1  0
 16 15  1  1
 16 17  1  0
 13 18  2  0
 14 19  2  0
 18 19  1  0
 16 20  1  0
 17 21  1  0
  5 22  1  0
 21 23  1  0
 20 24  1  0
 23 24  1  0
 25 24  1  6
 25 26  1  0
 25 27  1  0
 27 28  1  0
 26 29  1  1
 26 30  1  0
 28 30  1  0
 30 31  1  6
M  END
$$$$
O14757_Pocket2Mol_idx-in-all-generaetd-962
     RDKit          3D

 42 50  0  0  0  0  0  0  0  0999 V2000
    1.5482   -0.3111   41.9233 C   0  0  0  0  0  0  0  0  0  0  0  0
    2.7284    0.2018   42.1525 N   0  0  0  0  0  0  0  0  0  0  0  0
    3.7893   -0.3016   42.7005 C   0  0  0  0  0  0  0  0  0  0  0  0
    3.3781   -1.7350   43.0000 C   0  0  0  0  0  0  0  0  0  0  0  0
    2.0339   -1.9619   42.6217 C   0  0  0  0  0  0  0  0  0  0  0  0
    4.1166   -2.4997   43.8458 C   0  0  0  0  0  0  0  0  0  0  0  0
    1.1731   -3.0051   42.5773 C   0  0  0  0  0  0  0  0  0  0  0  0
    0.4701   -3.2344   41.4901 C   0  0  0  0  0  0  0  0  0  0  0  0
    5.3799   -1.7814   44.2691 C   0  0  0  0  0  0  0  0  0  0  0  0
    5.0159   -0.0180   43.1201 N   0  0  0  0  0  0  0  0  0  0  0  0
    5.7693   -0.6937   43.8418 C   0  0  0  0  0  0  0  0  0  0  0  0
    0.8078   -3.6166   43.6782 C   0  0  0  0  0  0  0  0  0  0  0  0
    0.0663   -4.7011   43.7415 N   0  0  0  0  0  0  0  0  0  0  0  0
    6.2223   -2.6843   45.1565 C   0  0  0  0  0  0  0  0  0  0  0  0
    6.9599   -0.2351   44.2608 N   0  0  0  0  0  0  0  0  0  0  0  0
    5.9065   -3.9037   45.7499 N   0  0  0  0  0  0  0  0  0  0  0  0
   -0.5459   -5.1185   42.5870 C   0  0  0  0  0  0  0  0  0  0  0  0
    5.7480   -4.0340   46.9810 C   0  0  0  0  0  0  0  0  0  0  0  0
    7.4448   -1.8511   45.4198 C   0  0  0  0  0  0  0  0  0  0  0  0
    7.7572   -0.7827   45.0128 C   0  0  0  0  0  0  0  0  0  0  0  0
    8.4076   -2.7217   46.4541 C   0  0  0  0  0  0  0  0  0  0  0  0
    9.3167   -2.0988   47.1049 N   0  0  0  0  0  0  0  0  0  0  0  0
   -0.4719   -4.3893   41.5406 C   0  0  0  0  0  0  0  0  0  0  0  0
    8.3667   -4.0284   46.5743 N   0  0  0  0  0  0  0  0  0  0  0  0
    9.5309   -4.3147   47.3094 C   0  0  0  0  0  0  0  0  0  0  0  0
    5.3113   -3.3789   47.8005 O   0  0  0  0  0  0  0  0  0  0  0  0
    9.9022   -5.6301   47.7684 C   0  0  0  0  0  0  0  0  0  0  0  0
    5.4470   -5.5868   47.2096 C   0  0  0  0  0  0  0  0  0  0  0  0
   11.2254   -5.8679   48.0402 C   0  0  0  0  0  0  0  0  0  0  0  0
    8.9736   -6.6532   47.8548 C   0  0  0  0  0  0  0  0  0  0  0  0
   10.0616   -3.0670   47.6360 C   0  0  0  0  0  0  0  0  0  0  0  0
    7.5566   -6.3564   47.5477 N   0  0  0  0  0  0  0  0  0  0  0  0
    6.4157   -6.1721   48.0913 C   0  0  0  0  0  0  0  0  0  0  0  0
   12.3275   -4.8510   47.9324 C   0  0  2  0  0  0  0  0  0  0  0  0
    9.4585   -7.9662   48.0726 C   0  0  0  0  0  0  0  0  0  0  0  0
   11.5288   -2.7910   48.1740 C   0  0  0  0  0  0  0  0  0  0  0  0
   13.6010   -5.5179   48.0202 O   0  0  0  0  0  0  0  0  0  0  0  0
   12.4219   -3.5693   48.5143 C   0  0  0  0  0  0  0  0  0  0  0  0
   11.6233   -7.1700   48.1636 C   0  0  0  0  0  0  0  0  0  0  0  0
   13.0457   -7.4724   48.4933 O   0  0  0  0  0  0  0  0  0  0  0  0
   13.9567   -6.6553   48.0676 C   0  0  0  0  0  0  0  0  0  0  0  0
   10.7865   -8.2796   48.4264 C   0  0  0  0  0  0  0  0  0  0  0  0
  1  2  1  0
  2  3  2  0
  3  4  1  0
  1  5  2  0
  4  5  1  0
  4  6  2  0
  5  7  1  0
  7  8  2  0
  6  9  1  0
  3 10  1  0
  9 11  2  0
 10 11  1  0
  7 12  1  0
 12 13  2  0
  9 14  1  0
 11 15  1  0
 14 16  1  0
 13 17  1  0
 16 18  1  0
 14 19  2  0
 15 20  2  0
 19 20  1  0
 19 21  1  0
 21 22  2  0
  8 23  1  0
 17 23  2  0
 21 24  1  0
 24 25  1  0
 18 26  2  0
 25 27  1  0
 18 28  1  0
 27 29  2  0
 27 30  1  0
 22 31  1  0
 25 31  2  0
 30 32  1  0
 28 33  1  0
 32 33  1  0
 29 34  1  0
 30 35  2  0
 31 36  1  0
 34 37  1  0
 34 38  1  1
 36 38  1  0
 29 39  1  0
 39 40  1  0
 37 41  1  0
 40 41  1  0
 35 42  1  0
 39 42  2  0
M  END
$$$$
O14757_Pocket2Mol_idx-in-all-generaetd-963
     RDKit          3D

 35 40  0  0  0  0  0  0  0  0999 V2000
    1.5482   -0.3111   41.9233 C   0  0  0  0  0  0  0  0  0  0  0  0
    2.7284    0.2018   42.1525 N   0  0  0  0  0  0  0  0  0  0  0  0
    3.7893   -0.3016   42.7005 C   0  0  0  0  0  0  0  0  0  0  0  0
    3.3781   -1.7350   43.0000 C   0  0  0  0  0  0  0  0  0  0  0  0
    2.0339   -1.9619   42.6217 C   0  0  0  0  0  0  0  0  0  0  0  0
    5.0090    0.1219   42.9340 N   0  0  0  0  0  0  0  0  0  0  0  0
    4.2895   -2.4979   43.6707 C   0  0  0  0  0  0  0  0  0  0  0  0
    5.8391   -0.6675   43.6343 C   0  0  0  0  0  0  0  0  0  0  0  0
    6.9849   -0.2377   44.0028 N   0  0  0  0  0  0  0  0  0  0  0  0
    4.0426   -3.8794   44.0832 C   0  0  0  0  0  0  0  0  0  0  0  0
    7.6796   -0.8734   44.9326 C   0  0  0  0  0  0  0  0  0  0  0  0
    1.1064   -2.9576   42.4211 C   0  0  0  0  0  0  0  0  0  0  0  0
    5.5298   -1.9496   44.0315 C   0  0  0  0  0  0  0  0  0  0  0  0
    3.8954   -4.1817   45.4718 C   0  0  0  0  0  0  0  0  0  0  0  0
    0.6765   -3.5480   43.4006 C   0  0  0  0  0  0  0  0  0  0  0  0
    0.5804   -3.2191   41.1635 C   0  0  0  0  0  0  0  0  0  0  0  0
    2.8083   -4.8227   45.9203 N   0  0  0  0  0  0  0  0  0  0  0  0
   -0.1574   -4.5754   42.9329 N   0  0  0  0  0  0  0  0  0  0  0  0
    6.5271   -2.5531   44.9677 C   0  0  0  0  0  0  0  0  0  0  0  0
   -0.2272   -4.3703   41.5137 C   0  0  0  0  0  0  0  0  0  0  0  0
    7.5095   -2.0029   45.3993 C   0  0  0  0  0  0  0  0  0  0  0  0
    8.2550   -2.6982   46.3988 C   0  0  0  0  0  0  0  0  0  0  0  0
    4.4030   -3.3432   46.3770 O   0  0  0  0  0  0  0  0  0  0  0  0
    8.9249   -0.3105   45.3298 O   0  0  0  0  0  0  0  0  0  0  0  0
    8.2469   -4.0750   46.4982 C   0  0  0  0  0  0  0  0  0  0  0  0
    9.0170   -4.6907   47.5426 C   0  0  0  0  0  0  0  0  0  0  0  0
    9.0782   -1.9199   47.2469 C   0  0  0  0  0  0  0  0  0  0  0  0
    8.9494   -6.1440   47.6050 O   0  0  0  0  0  0  0  0  0  0  0  0
    9.7798   -2.5520   48.2832 C   0  0  0  0  0  0  0  0  0  0  0  0
    2.0060   -4.3619   46.8960 C   0  0  0  0  0  0  0  0  0  0  0  0
   10.5738   -1.8038   49.2432 O   0  0  0  0  0  0  0  0  0  0  0  0
    9.7444   -3.9870   48.4441 C   0  0  0  0  0  0  0  0  0  0  0  0
   10.1414   -1.6081   50.4611 C   0  0  0  0  0  0  0  0  0  0  0  0
    0.5129   -4.3452   46.3925 C   0  0  0  0  0  0  0  0  0  0  0  0
    0.6449   -3.5955   44.9600 C   0  0  0  0  0  0  0  0  0  0  0  0
  1  2  1  0
  2  3  2  0
  3  4  1  0
  1  5  2  0
  4  5  1  0
  3  6  1  0
  4  7  2  0
  6  8  1  0
  8  9  1  0
  7 10  1  0
  9 11  1  0
  5 12  1  0
  7 13  1  0
  8 13  2  0
 10 14  1  0
 12 15  1  0
 12 16  2  0
 14 17  1  0
 15 18  1  0
 13 19  1  0
 16 20  1  0
 18 20  2  0
 11 21  1  0
 19 21  2  0
 21 22  1  0
 14 23  2  0
 11 24  2  0
 22 25  2  0
 25 26  1  0
 22 27  1  0
 26 28  1  0
 27 29  2  0
 17 30  1  0
 29 31  1  0
 26 32  2  0
 29 32  1  0
 31 33  1  0
 30 34  1  0
 15 35  2  3
 34 35  1  0
M  END
$$$$
O14757_Pocket2Mol_idx-in-all-generaetd-964
     RDKit          3D

 41 48  0  0  0  0  0  0  0  0999 V2000
    1.5482   -0.3111   41.9233 C   0  0  0  0  0  0  0  0  0  0  0  0
    2.7284    0.2018   42.1525 N   0  0  0  0  0  0  0  0  0  0  0  0
    3.7893   -0.3016   42.7005 C   0  0  0  0  0  0  0  0  0  0  0  0
    3.3781   -1.7350   43.0000 C   0  0  0  0  0  0  0  0  0  0  0  0
    2.0339   -1.9619   42.6217 C   0  0  0  0  0  0  0  0  0  0  0  0
    4.1166   -2.4997   43.8458 C   0  0  0  0  0  0  0  0  0  0  0  0
    1.1731   -3.0051   42.5773 C   0  0  0  0  0  0  0  0  0  0  0  0
    0.4701   -3.2344   41.4901 C   0  0  0  0  0  0  0  0  0  0  0  0
    5.3799   -1.7814   44.2691 C   0  0  0  0  0  0  0  0  0  0  0  0
    5.0159   -0.0180   43.1201 N   0  0  0  0  0  0  0  0  0  0  0  0
    5.7693   -0.6937   43.8418 C   0  0  0  0  0  0  0  0  0  0  0  0
    0.8078   -3.6166   43.6782 C   0  0  0  0  0  0  0  0  0  0  0  0
    0.0663   -4.7011   43.7415 N   0  0  0  0  0  0  0  0  0  0  0  0
    6.2223   -2.6843   45.1565 C   0  0  0  0  0  0  0  0  0  0  0  0
    6.9599   -0.2351   44.2608 N   0  0  0  0  0  0  0  0  0  0  0  0
    5.9065   -3.9037   45.7499 N   0  0  0  0  0  0  0  0  0  0  0  0
   -0.5459   -5.1185   42.5870 C   0  0  0  0  0  0  0  0  0  0  0  0
    5.7480   -4.0340   46.9810 C   0  0  0  0  0  0  0  0  0  0  0  0
    7.4448   -1.8511   45.4198 C   0  0  0  0  0  0  0  0  0  0  0  0
    7.7572   -0.7827   45.0128 C   0  0  0  0  0  0  0  0  0  0  0  0
    8.4076   -2.7217   46.4541 C   0  0  0  0  0  0  0  0  0  0  0  0
    9.3167   -2.0988   47.1049 N   0  0  0  0  0  0  0  0  0  0  0  0
   -0.4719   -4.3893   41.5406 C   0  0  0  0  0  0  0  0  0  0  0  0
    8.3667   -4.0284   46.5743 N   0  0  0  0  0  0  0  0  0  0  0  0
    9.5309   -4.3147   47.3094 C   0  0  0  0  0  0  0  0  0  0  0  0
    5.3113   -3.3789   47.8005 O   0  0  0  0  0  0  0  0  0  0  0  0
    9.9022   -5.6301   47.7684 C   0  0  0  0  0  0  0  0  0  0  0  0
    5.4470   -5.5868   47.2096 C   0  0  0  0  0  0  0  0  0  0  0  0
   11.2254   -5.8679   48.0402 C   0  0  0  0  0  0  0  0  0  0  0  0
    8.9736   -6.6532   47.8548 C   0  0  0  0  0  0  0  0  0  0  0  0
   10.0616   -3.0670   47.6360 C   0  0  0  0  0  0  0  0  0  0  0  0
    7.5566   -6.3564   47.5477 N   0  0  0  0  0  0  0  0  0  0  0  0
    6.4157   -6.1721   48.0913 C   0  0  0  0  0  0  0  0  0  0  0  0
   12.3275   -4.8510   47.9324 C   0  0  0  0  0  0  0  0  0  0  0  0
    9.4585   -7.9662   48.0726 C   0  0  0  0  0  0  0  0  0  0  0  0
    8.4331   -9.0394   48.1809 O   0  0  0  0  0  0  0  0  0  0  0  0
   10.7336   -8.2479   48.4554 C   0  0  0  0  0  0  0  0  0  0  0  0
   11.6791   -7.1846   48.3622 C   0  0  0  0  0  0  0  0  0  0  0  0
    8.8493  -10.2631   47.8581 C   0  0  0  0  0  0  0  0  0  0  0  0
   11.9706   -3.4849   48.3044 C   0  0  0  0  0  0  0  0  0  0  0  0
   11.1205   -2.7188   48.4933 C   0  0  0  0  0  0  0  0  0  0  0  0
  1  2  1  0
  2  3  2  0
  3  4  1  0
  1  5  2  0
  4  5  1  0
  4  6  2  0
  5  7  1  0
  7  8  2  0
  6  9  1  0
  3 10  1  0
  9 11  2  0
 10 11  1  0
  7 12  1  0
 12 13  2  0
  9 14  1  0
 11 15  1  0
 14 16  1  0
 13 17  1  0
 16 18  1  0
 14 19  2  0
 15 20  2  0
 19 20  1  0
 19 21  1  0
 21 22  2  0
  8 23  1  0
 17 23  2  0
 21 24  1  0
 24 25  1  0
 18 26  2  0
 25 27  1  0
 18 28  1  0
 27 29  2  0
 27 30  1  0
 22 31  1  0
 25 31  2  0
 30 32  1  0
 28 33  1  0
 32 33  1  0
 29 34  1  0
 30 35  2  0
 35 36  1  0
 35 37  1  0
 29 38  1  0
 37 38  2  0
 36 39  1  0
 34 40  1  0
 31 41  1  0
 40 41  2  0
M  END
$$$$
O14757_Pocket2Mol_idx-in-all-generaetd-965
     RDKit          3D

 48 57  0  0  0  0  0  0  0  0999 V2000
    1.5482   -0.3111   41.9233 C   0  0  0  0  0  0  0  0  0  0  0  0
    2.7284    0.2018   42.1525 N   0  0  0  0  0  0  0  0  0  0  0  0
    3.7893   -0.3016   42.7005 C   0  0  0  0  0  0  0  0  0  0  0  0
    3.3781   -1.7350   43.0000 C   0  0  0  0  0  0  0  0  0  0  0  0
    2.0339   -1.9619   42.6217 C   0  0  0  0  0  0  0  0  0  0  0  0
    5.0090    0.1219   42.9340 N   0  0  0  0  0  0  0  0  0  0  0  0
    4.2895   -2.4979   43.6707 C   0  0  0  0  0  0  0  0  0  0  0  0
    5.8391   -0.6675   43.6343 C   0  0  0  0  0  0  0  0  0  0  0  0
    6.9849   -0.2377   44.0028 N   0  0  0  0  0  0  0  0  0  0  0  0
    4.0426   -3.8794   44.0832 C   0  0  0  0  0  0  0  0  0  0  0  0
    7.6796   -0.8734   44.9326 C   0  0  0  0  0  0  0  0  0  0  0  0
    1.1064   -2.9576   42.4211 C   0  0  0  0  0  0  0  0  0  0  0  0
    5.5298   -1.9496   44.0315 C   0  0  0  0  0  0  0  0  0  0  0  0
    3.8954   -4.1817   45.4718 C   0  0  0  0  0  0  0  0  0  0  0  0
    0.6765   -3.5480   43.4006 C   0  0  1  0  0  0  0  0  0  0  0  0
    0.5804   -3.2191   41.1635 C   0  0  0  0  0  0  0  0  0  0  0  0
    2.8083   -4.8227   45.9203 N   0  0  0  0  0  0  0  0  0  0  0  0
   -0.1574   -4.5754   42.9329 N   0  0  0  0  0  0  0  0  0  0  0  0
    6.5271   -2.5531   44.9677 C   0  0  0  0  0  0  0  0  0  0  0  0
   -0.2272   -4.3703   41.5137 C   0  0  0  0  0  0  0  0  0  0  0  0
    7.5095   -2.0029   45.3993 C   0  0  0  0  0  0  0  0  0  0  0  0
    8.2550   -2.6982   46.3988 C   0  0  0  0  0  0  0  0  0  0  0  0
    8.8975   -0.3029   45.3267 O   0  0  0  0  0  0  0  0  0  0  0  0
    4.8299   -4.4637   46.4212 C   0  0  0  0  0  0  0  0  0  0  0  0
    4.2707   -4.9248   47.6295 N   0  0  0  0  0  0  0  0  0  0  0  0
    3.2045   -5.2092   47.1521 C   0  0  0  0  0  0  0  0  0  0  0  0
    1.4482   -4.6186   45.4134 C   0  0  1  0  0  0  0  0  0  0  0  0
    1.2398   -3.5043   44.6236 O   0  0  0  0  0  0  0  0  0  0  0  0
    7.8521   -3.9584   46.8773 C   0  0  0  0  0  0  0  0  0  0  0  0
    8.4079   -4.7553   47.7407 C   0  0  0  0  0  0  0  0  0  0  0  0
    5.9516   -3.8110   45.9146 C   0  0  0  0  0  0  0  0  0  0  0  0
    6.6436   -4.3892   46.6649 C   0  0  0  0  0  0  0  0  0  0  0  0
    9.5111   -5.5246   47.2994 O   0  0  0  0  0  0  0  0  0  0  0  0
   10.6238   -5.0197   46.8534 C   0  0  0  0  0  0  0  0  0  0  0  0
   11.5866   -4.7361   47.6189 C   0  0  0  0  0  0  0  0  0  0  0  0
    1.2153   -5.7944   44.5753 C   0  0  0  0  0  0  0  0  0  0  0  0
   10.7023   -4.6532   45.4361 C   0  0  0  0  0  0  0  0  0  0  0  0
   12.8078   -4.2193   47.0828 C   0  0  0  0  0  0  0  0  0  0  0  0
   11.7380   -4.2754   44.9534 C   0  0  0  0  0  0  0  0  0  0  0  0
   12.8684   -3.9910   45.7319 C   0  0  0  0  0  0  0  0  0  0  0  0
   14.2116   -3.3329   45.2244 C   0  0  0  0  0  0  0  0  0  0  0  0
   14.0022   -2.1177   44.7208 C   0  0  0  0  0  0  0  0  0  0  0  0
   15.0837   -1.5164   44.2726 C   0  0  0  0  0  0  0  0  0  0  0  0
   15.3109   -3.8707   45.4449 C   0  0  0  0  0  0  0  0  0  0  0  0
   15.5305   -5.1460   46.0716 O   0  0  0  0  0  0  0  0  0  0  0  0
   14.9448   -0.1315   43.6082 C   0  0  0  0  0  0  0  0  0  0  0  0
   16.4497   -3.2044   45.0167 C   0  0  0  0  0  0  0  0  0  0  0  0
   16.4220   -1.9484   44.4122 C   0  0  0  0  0  0  0  0  0  0  0  0
  1  2  1  0
  2  3  2  0
  3  4  1  0
  1  5  2  0
  4  5  1  0
  3  6  1  0
  4  7  2  0
  6  8  1  0
  8  9  1  0
  7 10  1  0
  9 11  1  0
  5 12  1  0
  7 13  1  0
  8 13  2  0
 10 14  1  0
 12 15  1  0
 12 16  2  0
 14 17  1  0
 15 18  1  0
 13 19  1  0
 16 20  1  0
 18 20  2  0
 11 21  1  0
 19 21  2  0
 21 22  1  0
 11 23  2  0
 14 24  2  0
 24 25  1  0
 17 26  1  0
 25 26  2  0
 17 27  1  0
 15 28  1  6
 27 28  1  0
 22 29  2  0
 29 30  1  0
 19 31  1  0
 24 31  1  0
 29 32  1  0
 31 32  2  0
 30 33  1  0
 33 34  1  0
 34 35  2  0
 27 36  1  6
 34 37  1  0
 35 38  1  0
 37 39  2  0
 38 40  2  0
 39 40  1  0
 40 41  1  0
 41 42  2  0
 42 43  1  0
 41 44  1  0
 44 45  1  0
 43 46  1  0
 44 47  2  0
 43 48  2  0
 47 48  1  0
M  END
$$$$
O14757_Pocket2Mol_idx-in-all-generaetd-966
     RDKit          3D

 27 31  0  0  0  0  0  0  0  0999 V2000
    4.5156    0.0550   42.9895 N   0  0  0  0  0  0  0  0  0  0  0  0
    5.0618   -0.8645   43.5295 C   0  0  0  0  0  0  0  0  0  0  0  0
    4.4350   -2.0604   43.7783 C   0  0  0  0  0  0  0  0  0  0  0  0
    4.9987   -3.0994   44.5839 C   0  0  0  0  0  0  0  0  0  0  0  0
    6.0780   -2.8704   45.3929 N   0  0  0  0  0  0  0  0  0  0  0  0
    3.3576   -1.8704   43.0010 C   0  0  0  0  0  0  0  0  0  0  0  0
    6.5991   -3.8202   46.1461 C   0  0  0  0  0  0  0  0  0  0  0  0
    3.2259   -0.4393   42.5186 N   0  0  0  0  0  0  0  0  0  0  0  0
    2.1160    0.0848   41.9593 C   0  0  0  0  0  0  0  0  0  0  0  0
    2.2673   -2.7696   42.7810 C   0  0  0  0  0  0  0  0  0  0  0  0
    2.0244   -3.8279   43.5411 C   0  0  0  0  0  0  0  0  0  0  0  0
    8.0099   -3.3793   46.6664 C   0  0  0  0  0  0  0  0  0  0  0  0
    1.1755   -2.4549   41.8779 C   0  0  0  0  0  0  0  0  0  0  0  0
    8.9736   -4.3319   46.6582 C   0  0  0  0  0  0  0  0  0  0  0  0
    1.0753   -0.8703   41.6938 C   0  0  0  0  0  0  0  0  0  0  0  0
    8.4589   -2.0413   46.7997 C   0  0  0  0  0  0  0  0  0  0  0  0
    0.0453   -3.0796   41.6515 C   0  0  0  0  0  0  0  0  0  0  0  0
   10.2902   -4.1111   46.9907 C   0  0  0  0  0  0  0  0  0  0  0  0
   -0.9402   -2.7514   40.7309 O   0  0  0  0  0  0  0  0  0  0  0  0
   11.3121   -5.1400   47.0023 O   0  0  0  0  0  0  0  0  0  0  0  0
    9.7521   -1.7049   47.0574 C   0  0  0  0  0  0  0  0  0  0  0  0
    2.9643   -4.3651   44.4711 O   0  0  0  0  0  0  0  0  0  0  0  0
   11.0577   -6.1677   46.3459 C   0  0  0  0  0  0  0  0  0  0  0  0
    4.1773   -4.1848   44.8210 C   0  0  0  0  0  0  0  0  0  0  0  0
   -0.0585   -4.3080   42.3068 C   0  0  0  0  0  0  0  0  0  0  0  0
   10.8390   -2.7024   47.1511 C   0  0  0  0  0  0  0  0  0  0  0  0
    0.8421   -4.6698   43.2787 C   0  0  0  0  0  0  0  0  0  0  0  0
  1  2  2  0
  2  3  1  0
  3  4  1  0
  4  5  2  3
  3  6  2  0
  5  7  1  0
  1  8  1  0
  6  8  1  0
  8  9  1  0
  6 10  1  0
 10 11  2  0
  7 12  1  0
 10 13  1  0
 12 14  2  0
  9 15  2  0
 13 15  1  0
 12 16  1  0
 13 17  2  0
 14 18  1  0
 17 19  1  0
 18 20  1  0
 16 21  2  0
 11 22  1  0
 20 23  1  0
  4 24  1  0
 22 24  1  0
 17 25  1  0
 18 26  2  0
 21 26  1  0
 11 27  1  0
 25 27  2  0
M  END
$$$$
O14757_Pocket2Mol_idx-in-all-generaetd-967
     RDKit          3D

 48 56  0  0  0  0  0  0  0  0999 V2000
    5.3420    0.2589   42.8836 O   0  0  0  0  0  0  0  0  0  0  0  0
    5.1627   -0.7554   43.4753 C   0  0  0  0  0  0  0  0  0  0  0  0
    4.0509   -1.4657   43.4177 N   0  0  0  0  0  0  0  0  0  0  0  0
    5.9969   -1.2317   44.6840 C   0  0  0  0  0  0  0  0  0  0  0  0
    2.9618   -1.1021   42.5918 C   0  0  1  0  0  0  0  0  0  0  0  0
    7.3392   -0.8596   44.8412 C   0  0  0  0  0  0  0  0  0  0  0  0
    1.9754   -2.0820   42.2741 C   0  0  0  0  0  0  0  0  0  0  0  0
    5.5910   -2.4282   45.3439 C   0  0  0  0  0  0  0  0  0  0  0  0
    6.5874   -2.9636   46.1581 C   0  0  0  0  0  0  0  0  0  0  0  0
    4.2763   -3.0680   45.0493 N   0  0  0  0  0  0  0  0  0  0  0  0
    3.6188   -2.5886   44.2024 C   0  0  0  0  0  0  0  0  0  0  0  0
    8.1921   -1.4071   45.7505 C   0  0  0  0  0  0  0  0  0  0  0  0
    1.0154   -1.8839   41.2980 C   0  0  0  0  0  0  0  0  0  0  0  0
    2.5720   -3.3564   43.9063 C   0  0  0  0  0  0  0  0  0  0  0  0
    0.2502   -2.8976   41.0751 C   0  0  0  0  0  0  0  0  0  0  0  0
    6.1761   -4.1775   47.0209 C   0  0  0  0  0  0  0  0  0  0  0  0
    1.7266   -3.1047   43.0115 C   0  0  2  0  0  0  0  0  0  0  0  0
    2.3696   -4.5367   44.7536 N   0  0  0  0  0  0  0  0  0  0  0  0
    1.2264   -5.2346   44.4693 C   0  0  0  0  0  0  0  0  0  0  0  0
    0.7187   -3.8955   42.5465 C   0  0  0  0  0  0  0  0  0  0  0  0
    9.4576   -0.8949   46.0327 N   0  0  0  0  0  0  0  0  0  0  0  0
    0.8625   -6.3901   45.2462 C   0  0  0  0  0  0  0  0  0  0  0  0
    7.6467   -2.5139   46.4892 C   0  0  0  0  0  0  0  0  0  0  0  0
   10.4908   -1.5336   45.8242 C   0  0  0  0  0  0  0  0  0  0  0  0
    0.3057   -4.9299   43.2909 C   0  0  0  0  0  0  0  0  0  0  0  0
   11.5916   -1.4291   46.7436 C   0  0  0  0  0  0  0  0  0  0  0  0
   10.5566   -2.3672   44.8649 O   0  0  0  0  0  0  0  0  0  0  0  0
    2.4730    0.2084   42.8389 O   0  0  0  0  0  0  0  0  0  0  0  0
   11.6027   -2.2081   47.7725 N   0  0  0  0  0  0  0  0  0  0  0  0
   12.6189   -0.5862   46.5415 C   0  0  0  0  0  0  0  0  0  0  0  0
   13.6413   -0.4484   47.4129 C   0  0  0  0  0  0  0  0  0  0  0  0
   10.4764   -3.1097   48.1134 C   0  0  0  0  0  0  0  0  0  0  0  0
    9.5762   -2.4717   49.0753 C   0  0  0  0  0  0  0  0  0  0  0  0
    9.7761   -1.2394   49.5167 C   0  0  0  0  0  0  0  0  0  0  0  0
    8.6397   -3.3252   49.7339 C   0  0  0  0  0  0  0  0  0  0  0  0
    8.9861   -0.7034   50.5819 C   0  0  0  0  0  0  0  0  0  0  0  0
   14.7137    0.5128   47.0925 C   0  0  0  0  0  0  0  0  0  0  0  0
    8.1815   -1.5423   51.2387 C   0  0  0  0  0  0  0  0  0  0  0  0
    8.4156   -4.7176   49.2102 O   0  0  0  0  0  0  0  0  0  0  0  0
   13.6915   -1.2597   48.4795 C   0  0  0  0  0  0  0  0  0  0  0  0
   14.7842   -1.1839   49.3622 C   0  0  0  0  0  0  0  0  0  0  0  0
   12.5774   -2.1710   48.6835 C   0  0  0  0  0  0  0  0  0  0  0  0
   14.8423   -1.9939   50.5370 O   0  0  0  0  0  0  0  0  0  0  0  0
   15.7346    0.5935   47.9963 C   0  0  0  0  0  0  0  0  0  0  0  0
    7.9706   -2.9009   50.8137 C   0  0  0  0  0  0  0  0  0  0  0  0
   15.8432   -0.2550   49.2080 C   0  0  0  0  0  0  0  0  0  0  0  0
    7.1862   -5.2245   49.3857 C   0  0  0  0  0  0  0  0  0  0  0  0
    7.0705   -4.9416   47.7220 C   0  0  0  0  0  0  0  0  0  0  0  0
  1  2  2  0
  2  3  1  0
  2  4  1  0
  3  5  1  0
  4  6  2  0
  5  7  1  0
  4  8  1  0
  8  9  2  0
  8 10  1  0
  3 11  1  0
 10 11  2  0
  6 12  1  0
  7 13  2  0
 11 14  1  0
 13 15  1  0
  9 16  1  0
 17  7  1  6
 14 17  1  0
 14 18  2  0
 18 19  1  0
 15 20  2  0
 17 20  1  0
 12 21  1  0
 19 22  1  0
  9 23  1  0
 12 23  2  0
 21 24  1  0
 19 25  2  0
 20 25  1  0
 24 26  1  0
 24 27  2  0
  5 28  1  1
 26 29  1  0
 26 30  2  0
 30 31  1  0
 29 32  1  0
 32 33  1  0
 33 34  1  0
 33 35  2  0
 34 36  2  0
 31 37  2  0
 36 38  1  0
 35 39  1  0
 31 40  1  0
 40 41  2  0
 29 42  1  0
 40 42  1  0
 41 43  1  0
 37 44  1  0
 35 45  1  0
 38 45  2  0
 41 46  1  0
 44 46  2  0
 39 47  1  0
 16 48  1  0
 47 48  1  0
M  END
$$$$
O14757_Pocket2Mol_idx-in-all-generaetd-968
     RDKit          3D

 45 54  0  0  0  0  0  0  0  0999 V2000
    1.5482   -0.3111   41.9233 C   0  0  0  0  0  0  0  0  0  0  0  0
    2.7284    0.2018   42.1525 N   0  0  0  0  0  0  0  0  0  0  0  0
    3.7893   -0.3016   42.7005 C   0  0  0  0  0  0  0  0  0  0  0  0
    3.3781   -1.7350   43.0000 C   0  0  0  0  0  0  0  0  0  0  0  0
    2.0339   -1.9619   42.6217 C   0  0  0  0  0  0  0  0  0  0  0  0
    4.1166   -2.4997   43.8458 C   0  0  0  0  0  0  0  0  0  0  0  0
    1.1731   -3.0051   42.5773 C   0  0  0  0  0  0  0  0  0  0  0  0
    0.4701   -3.2344   41.4901 C   0  0  0  0  0  0  0  0  0  0  0  0
    5.3799   -1.7814   44.2691 C   0  0  0  0  0  0  0  0  0  0  0  0
    5.0159   -0.0180   43.1201 N   0  0  0  0  0  0  0  0  0  0  0  0
    5.7693   -0.6937   43.8418 C   0  0  0  0  0  0  0  0  0  0  0  0
    0.8078   -3.6166   43.6782 C   0  0  0  0  0  0  0  0  0  0  0  0
    0.0663   -4.7011   43.7415 N   0  0  0  0  0  0  0  0  0  0  0  0
    6.2223   -2.6843   45.1565 C   0  0  0  0  0  0  0  0  0  0  0  0
    6.9599   -0.2351   44.2608 N   0  0  0  0  0  0  0  0  0  0  0  0
    5.9065   -3.9037   45.7499 N   0  0  0  0  0  0  0  0  0  0  0  0
   -0.5459   -5.1185   42.5870 C   0  0  0  0  0  0  0  0  0  0  0  0
    5.7480   -4.0340   46.9810 C   0  0  0  0  0  0  0  0  0  0  0  0
    7.4448   -1.8511   45.4198 C   0  0  0  0  0  0  0  0  0  0  0  0
    7.7572   -0.7827   45.0128 C   0  0  0  0  0  0  0  0  0  0  0  0
    8.4076   -2.7217   46.4541 C   0  0  0  0  0  0  0  0  0  0  0  0
    9.3167   -2.0988   47.1049 N   0  0  0  0  0  0  0  0  0  0  0  0
   -0.4719   -4.3893   41.5406 C   0  0  0  0  0  0  0  0  0  0  0  0
    8.3667   -4.0284   46.5743 N   0  0  0  0  0  0  0  0  0  0  0  0
    9.5309   -4.3147   47.3094 C   0  0  0  0  0  0  0  0  0  0  0  0
    5.3113   -3.3789   47.8005 O   0  0  0  0  0  0  0  0  0  0  0  0
    9.9022   -5.6301   47.7684 C   0  0  0  0  0  0  0  0  0  0  0  0
    5.4470   -5.5868   47.2096 C   0  0  0  0  0  0  0  0  0  0  0  0
   11.2254   -5.8679   48.0402 C   0  0  0  0  0  0  0  0  0  0  0  0
    8.9736   -6.6532   47.8548 C   0  0  0  0  0  0  0  0  0  0  0  0
   10.0616   -3.0670   47.6360 C   0  0  0  0  0  0  0  0  0  0  0  0
    7.5566   -6.3564   47.5477 N   0  0  0  0  0  0  0  0  0  0  0  0
    6.4157   -6.1721   48.0913 C   0  0  0  0  0  0  0  0  0  0  0  0
   12.3275   -4.8510   47.9324 C   0  0  2  0  0  0  0  0  0  0  0  0
    9.4585   -7.9662   48.0726 C   0  0  0  0  0  0  0  0  0  0  0  0
   11.5288   -2.7910   48.1740 C   0  0  0  0  0  0  0  0  0  0  0  0
   13.6010   -5.5179   48.0202 O   0  0  0  0  0  0  0  0  0  0  0  0
   11.6306   -7.1387   48.1870 C   0  0  0  0  0  0  0  0  0  0  0  0
   12.2455   -3.5875   48.1245 C   0  0  0  0  0  0  0  0  0  0  0  0
   10.7336   -8.1673   48.3382 C   0  0  0  0  0  0  0  0  0  0  0  0
   13.6593   -3.2418   48.5146 C   0  0  0  0  0  0  0  0  0  0  0  0
   14.5336   -4.3365   48.2739 C   0  0  0  0  0  0  0  0  0  0  0  0
   11.8136   -1.3576   48.2754 C   0  0  0  0  0  0  0  0  0  0  0  0
   13.9595   -1.8987   48.6921 C   0  0  0  0  0  0  0  0  0  0  0  0
   12.9542   -0.9867   48.6510 C   0  0  0  0  0  0  0  0  0  0  0  0
  1  2  1  0
  2  3  2  0
  3  4  1  0
  1  5  2  0
  4  5  1  0
  4  6  2  0
  5  7  1  0
  7  8  2  0
  6  9  1  0
  3 10  1  0
  9 11  2  0
 10 11  1  0
  7 12  1  0
 12 13  2  0
  9 14  1  0
 11 15  1  0
 14 16  1  0
 13 17  1  0
 16 18  1  0
 14 19  2  0
 15 20  2  0
 19 20  1  0
 19 21  1  0
 21 22  2  0
  8 23  1  0
 17 23  2  0
 21 24  1  0
 24 25  1  0
 18 26  2  0
 25 27  1  0
 18 28  1  0
 27 29  2  0
 27 30  1  0
 22 31  1  0
 25 31  2  0
 30 32  1  0
 28 33  1  0
 32 33  1  0
 29 34  1  0
 30 35  2  0
 31 36  1  0
 34 37  1  1
 29 38  1  0
 34 39  1  0
 36 39  2  0
 35 40  1  0
 38 40  2  0
 39 41  1  0
 37 42  1  0
 41 42  1  0
 36 43  1  0
 41 44  2  0
 43 45  2  0
 44 45  1  0
M  END
$$$$
O14757_Pocket2Mol_idx-in-all-generaetd-969
     RDKit          3D

 45 53  0  0  0  0  0  0  0  0999 V2000
    1.5482   -0.3111   41.9233 C   0  0  0  0  0  0  0  0  0  0  0  0
    2.7284    0.2018   42.1525 N   0  0  0  0  0  0  0  0  0  0  0  0
    3.7893   -0.3016   42.7005 C   0  0  0  0  0  0  0  0  0  0  0  0
    3.3781   -1.7350   43.0000 C   0  0  0  0  0  0  0  0  0  0  0  0
    2.0339   -1.9619   42.6217 C   0  0  0  0  0  0  0  0  0  0  0  0
    5.0090    0.1219   42.9340 N   0  0  0  0  0  0  0  0  0  0  0  0
    4.2895   -2.4979   43.6707 C   0  0  0  0  0  0  0  0  0  0  0  0
    5.8391   -0.6675   43.6343 C   0  0  0  0  0  0  0  0  0  0  0  0
    6.9849   -0.2377   44.0028 N   0  0  0  0  0  0  0  0  0  0  0  0
    4.0426   -3.8794   44.0832 C   0  0  0  0  0  0  0  0  0  0  0  0
    7.6796   -0.8734   44.9326 C   0  0  0  0  0  0  0  0  0  0  0  0
    1.1064   -2.9576   42.4211 C   0  0  0  0  0  0  0  0  0  0  0  0
    5.5298   -1.9496   44.0315 C   0  0  0  0  0  0  0  0  0  0  0  0
    3.8954   -4.1817   45.4718 C   0  0  0  0  0  0  0  0  0  0  0  0
    0.6765   -3.5480   43.4006 C   0  0  1  0  0  0  0  0  0  0  0  0
    0.5804   -3.2191   41.1635 C   0  0  0  0  0  0  0  0  0  0  0  0
    2.8083   -4.8227   45.9203 N   0  0  0  0  0  0  0  0  0  0  0  0
   -0.1574   -4.5754   42.9329 N   0  0  0  0  0  0  0  0  0  0  0  0
    6.5271   -2.5531   44.9677 C   0  0  0  0  0  0  0  0  0  0  0  0
   -0.2272   -4.3703   41.5137 C   0  0  0  0  0  0  0  0  0  0  0  0
    7.5095   -2.0029   45.3993 C   0  0  0  0  0  0  0  0  0  0  0  0
    8.2550   -2.6982   46.3988 C   0  0  2  0  0  0  0  0  0  0  0  0
    8.8975   -0.3029   45.3267 O   0  0  0  0  0  0  0  0  0  0  0  0
    4.8299   -4.4637   46.4212 C   0  0  0  0  0  0  0  0  0  0  0  0
    4.2707   -4.9248   47.6295 N   0  0  0  0  0  0  0  0  0  0  0  0
    3.2045   -5.2092   47.1521 C   0  0  0  0  0  0  0  0  0  0  0  0
    1.4482   -4.6186   45.4134 C   0  0  2  0  0  0  0  0  0  0  0  0
    1.2398   -3.5043   44.6236 O   0  0  0  0  0  0  0  0  0  0  0  0
    6.3317   -3.9297   46.0870 C   0  0  2  0  0  0  0  0  0  0  0  0
    9.5296   -2.5449   46.9776 C   0  0  0  0  0  0  0  0  0  0  0  0
    9.7921   -1.7530   47.9018 O   0  0  0  0  0  0  0  0  0  0  0  0
    7.4454   -3.8344   46.8035 C   0  0  0  0  0  0  0  0  0  0  0  0
   10.5010   -3.0847   46.3190 O   0  0  0  0  0  0  0  0  0  0  0  0
    0.5569   -4.7693   46.5649 C   0  0  0  0  0  0  0  0  0  0  0  0
   11.7452   -2.8462   46.6234 C   0  0  0  0  0  0  0  0  0  0  0  0
   12.4344   -1.8951   45.7393 C   0  0  0  0  0  0  0  0  0  0  0  0
   12.4612   -3.5429   47.5581 C   0  0  0  0  0  0  0  0  0  0  0  0
   11.7737   -4.5216   48.4115 C   0  0  0  0  0  0  0  0  0  0  0  0
   11.7935   -5.7538   48.0263 C   0  0  0  0  0  0  0  0  0  0  0  0
   13.8063   -3.2053   47.6588 C   0  0  0  0  0  0  0  0  0  0  0  0
   13.7637   -1.6546   45.8843 C   0  0  0  0  0  0  0  0  0  0  0  0
   14.4667   -2.3219   46.9169 C   0  0  0  0  0  0  0  0  0  0  0  0
   10.6306   -6.4983   47.9875 C   0  0  0  0  0  0  0  0  0  0  0  0
   10.2054   -6.8426   46.5916 C   0  0  0  0  0  0  0  0  0  0  0  0
    9.8195   -8.1302   46.3108 C   0  0  0  0  0  0  0  0  0  0  0  0
  1  2  1  0
  2  3  2  0
  3  4  1  0
  1  5  2  0
  4  5  1  0
  3  6  1  0
  4  7  2  0
  6  8  1  0
  8  9  1  0
  7 10  1  0
  9 11  1  0
  5 12  1  0
  7 13  1  0
  8 13  2  0
 10 14  1  0
 12 15  1  0
 12 16  2  0
 14 17  1  0
 15 18  1  0
 13 19  1  0
 16 20  1  0
 18 20  2  0
 11 21  1  0
 19 21  2  0
 21 22  1  0
 11 23  2  0
 14 24  2  0
 24 25  1  0
 17 26  1  0
 25 26  2  0
 17 27  1  0
 15 28  1  6
 27 28  1  0
 19 29  1  0
 24 29  1  0
 22 30  1  6
 30 31  2  0
 22 32  1  0
 29 32  1  1
 30 33  1  0
 27 34  1  1
 33 35  1  0
 35 36  2  0
 35 37  1  0
 37 38  1  0
 38 39  1  0
 37 40  2  0
 36 41  1  0
 40 42  1  0
 41 42  2  0
 39 43  1  0
 43 44  1  0
 44 45  1  0
M  END
$$$$
O14757_Pocket2Mol_idx-in-all-generaetd-970
     RDKit          3D

 34 40  0  0  0  0  0  0  0  0999 V2000
    4.8173    0.2791   42.6993 N   0  0  0  0  0  0  0  0  0  0  0  0
    5.3297   -0.7477   43.3688 C   0  0  0  0  0  0  0  0  0  0  0  0
    3.4732   -0.2235   42.4530 C   0  0  0  0  0  0  0  0  0  0  0  0
    4.4984   -1.7876   43.6214 C   0  0  0  0  0  0  0  0  0  0  0  0
    3.3438   -1.5190   42.9379 C   0  0  0  0  0  0  0  0  0  0  0  0
    2.1381   -2.3401   42.8254 C   0  0  0  0  0  0  0  0  0  0  0  0
    2.3894    0.3572   41.9843 N   0  0  0  0  0  0  0  0  0  0  0  0
    4.9180   -3.0430   44.3829 C   0  0  0  0  0  0  0  0  0  0  0  0
    5.9444   -2.9314   45.3934 C   0  0  0  0  0  0  0  0  0  0  0  0
    4.2808   -4.1329   44.3252 C   0  0  0  0  0  0  0  0  0  0  0  0
    3.1588   -4.4221   43.4852 O   0  0  0  0  0  0  0  0  0  0  0  0
    4.5704   -5.2518   45.1995 C   0  0  0  0  0  0  0  0  0  0  0  0
    1.9853   -3.6792   43.3495 C   0  0  0  0  0  0  0  0  0  0  0  0
    0.9181   -4.3294   43.4638 C   0  0  0  0  0  0  0  0  0  0  0  0
    6.7403   -1.6226   45.5272 C   0  0  2  0  0  0  0  0  0  0  0  0
    0.9752   -1.7845   42.3366 C   0  0  0  0  0  0  0  0  0  0  0  0
    6.2516   -3.7287   46.2722 C   0  0  0  0  0  0  0  0  0  0  0  0
   -0.2404   -2.4179   42.2529 C   0  0  0  0  0  0  0  0  0  0  0  0
   -1.3835   -1.8904   41.6559 N   0  0  0  0  0  0  0  0  0  0  0  0
    3.8706   -6.4216   45.1394 O   0  0  0  0  0  0  0  0  0  0  0  0
    0.9456   -0.2789   41.7649 C   0  0  0  0  0  0  0  0  0  0  0  0
   -0.2678   -3.6969   42.7575 C   0  0  0  0  0  0  0  0  0  0  0  0
    6.3913   -0.7000   44.3807 N   0  0  0  0  0  0  0  0  0  0  0  0
    7.9391   -1.5867   46.0069 C   0  0  0  0  0  0  0  0  0  0  0  0
    8.7787   -0.4879   45.9761 O   0  0  0  0  0  0  0  0  0  0  0  0
    5.3853   -5.1216   46.3780 C   0  0  0  0  0  0  0  0  0  0  0  0
    8.4504   -2.7517   46.6262 N   0  0  0  0  0  0  0  0  0  0  0  0
    7.4807   -3.7374   47.0380 C   0  0  0  0  0  0  0  0  0  0  0  0
    9.7861   -2.6616   47.2863 C   0  0  1  0  0  0  0  0  0  0  0  0
   10.0358   -3.7697   48.0129 C   0  0  0  0  0  0  0  0  0  0  0  0
   10.6922   -2.7497   46.0290 C   0  0  0  0  0  0  0  0  0  0  0  0
   11.7880   -1.7651   46.0522 C   0  0  0  0  0  0  0  0  0  0  0  0
   11.9598   -1.1104   47.1203 O   0  0  0  0  0  0  0  0  0  0  0  0
   12.6065   -1.6214   45.0491 O   0  0  0  0  0  0  0  0  0  0  0  0
  1  2  2  0
  1  3  1  0
  2  4  1  0
  3  5  1  0
  4  5  2  0
  5  6  1  0
  3  7  2  0
  4  8  1  0
  8  9  1  0
  8 10  2  0
 10 11  1  0
 10 12  1  0
  6 13  1  0
 11 13  1  0
 13 14  2  0
  9 15  1  0
  6 16  2  0
  9 17  2  0
 16 18  1  0
 18 19  1  0
 12 20  1  0
  7 21  1  0
 16 21  1  0
 14 22  1  0
 18 22  2  0
  2 23  1  0
 15 23  1  6
 15 24  1  0
 24 25  2  0
 12 26  2  0
 17 26  1  0
 24 27  1  0
 17 28  1  0
 27 28  1  0
 27 29  1  0
 29 30  1  1
 29 31  1  0
 31 32  1  0
 32 33  1  0
 32 34  2  0
M  END
$$$$
O14757_Pocket2Mol_idx-in-all-generaetd-971
     RDKit          3D

 45 53  0  0  0  0  0  0  0  0999 V2000
    1.5482   -0.3111   41.9233 C   0  0  0  0  0  0  0  0  0  0  0  0
    2.7284    0.2018   42.1525 N   0  0  0  0  0  0  0  0  0  0  0  0
    3.7893   -0.3016   42.7005 C   0  0  0  0  0  0  0  0  0  0  0  0
    3.3781   -1.7350   43.0000 C   0  0  0  0  0  0  0  0  0  0  0  0
    2.0339   -1.9619   42.6217 C   0  0  0  0  0  0  0  0  0  0  0  0
    5.0090    0.1219   42.9340 N   0  0  0  0  0  0  0  0  0  0  0  0
    4.2895   -2.4979   43.6707 C   0  0  0  0  0  0  0  0  0  0  0  0
    5.8391   -0.6675   43.6343 C   0  0  0  0  0  0  0  0  0  0  0  0
    6.9849   -0.2377   44.0028 N   0  0  0  0  0  0  0  0  0  0  0  0
    4.0426   -3.8794   44.0832 C   0  0  0  0  0  0  0  0  0  0  0  0
    7.6796   -0.8734   44.9326 C   0  0  0  0  0  0  0  0  0  0  0  0
    1.1064   -2.9576   42.4211 C   0  0  0  0  0  0  0  0  0  0  0  0
    5.5298   -1.9496   44.0315 C   0  0  0  0  0  0  0  0  0  0  0  0
    3.8954   -4.1817   45.4718 C   0  0  0  0  0  0  0  0  0  0  0  0
    0.6765   -3.5480   43.4006 C   0  0  1  0  0  0  0  0  0  0  0  0
    0.5804   -3.2191   41.1635 C   0  0  0  0  0  0  0  0  0  0  0  0
    2.8083   -4.8227   45.9203 N   0  0  0  0  0  0  0  0  0  0  0  0
   -0.1574   -4.5754   42.9329 N   0  0  0  0  0  0  0  0  0  0  0  0
    6.5271   -2.5531   44.9677 C   0  0  0  0  0  0  0  0  0  0  0  0
   -0.2272   -4.3703   41.5137 C   0  0  0  0  0  0  0  0  0  0  0  0
    7.5095   -2.0029   45.3993 C   0  0  0  0  0  0  0  0  0  0  0  0
    8.2550   -2.6982   46.3988 C   0  0  2  0  0  0  0  0  0  0  0  0
    8.8975   -0.3029   45.3267 O   0  0  0  0  0  0  0  0  0  0  0  0
    4.8299   -4.4637   46.4212 C   0  0  0  0  0  0  0  0  0  0  0  0
    4.2707   -4.9248   47.6295 N   0  0  0  0  0  0  0  0  0  0  0  0
    3.2045   -5.2092   47.1521 C   0  0  0  0  0  0  0  0  0  0  0  0
    1.4482   -4.6186   45.4134 C   0  0  2  0  0  0  0  0  0  0  0  0
    1.2398   -3.5043   44.6236 O   0  0  0  0  0  0  0  0  0  0  0  0
    6.3317   -3.9297   46.0870 C   0  0  2  0  0  0  0  0  0  0  0  0
    9.5296   -2.5449   46.9776 C   0  0  0  0  0  0  0  0  0  0  0  0
    9.7921   -1.7530   47.9018 O   0  0  0  0  0  0  0  0  0  0  0  0
    7.4454   -3.8344   46.8035 C   0  0  0  0  0  0  0  0  0  0  0  0
   10.5010   -3.0847   46.3190 O   0  0  0  0  0  0  0  0  0  0  0  0
    0.5569   -4.7693   46.5649 C   0  0  0  0  0  0  0  0  0  0  0  0
   11.7452   -2.8462   46.6234 C   0  0  0  0  0  0  0  0  0  0  0  0
   12.4344   -1.8951   45.7393 C   0  0  0  0  0  0  0  0  0  0  0  0
   12.4612   -3.5429   47.5581 C   0  0  0  0  0  0  0  0  0  0  0  0
   11.7737   -4.5216   48.4115 C   0  0  0  0  0  0  0  0  0  0  0  0
   11.7935   -5.7538   48.0263 C   0  0  0  0  0  0  0  0  0  0  0  0
   13.8063   -3.2053   47.6588 C   0  0  0  0  0  0  0  0  0  0  0  0
   14.5455   -3.8533   48.7682 O   0  0  0  0  0  0  0  0  0  0  0  0
   14.5099   -2.3004   46.9090 C   0  0  0  0  0  0  0  0  0  0  0  0
   13.7603   -1.6475   45.9199 C   0  0  0  0  0  0  0  0  0  0  0  0
   10.5728   -6.4202   47.7163 C   0  0  0  0  0  0  0  0  0  0  0  0
   10.5124   -7.0301   46.3751 C   0  0  0  0  0  0  0  0  0  0  0  0
  1  2  1  0
  2  3  2  0
  3  4  1  0
  1  5  2  0
  4  5  1  0
  3  6  1  0
  4  7  2  0
  6  8  1  0
  8  9  1  0
  7 10  1  0
  9 11  1  0
  5 12  1  0
  7 13  1  0
  8 13  2  0
 10 14  1  0
 12 15  1  0
 12 16  2  0
 14 17  1  0
 15 18  1  0
 13 19  1  0
 16 20  1  0
 18 20  2  0
 11 21  1  0
 19 21  2  0
 21 22  1  0
 11 23  2  0
 14 24  2  0
 24 25  1  0
 17 26  1  0
 25 26  2  0
 17 27  1  0
 15 28  1  6
 27 28  1  0
 19 29  1  0
 24 29  1  0
 22 30  1  6
 30 31  2  0
 22 32  1  0
 29 32  1  1
 30 33  1  0
 27 34  1  1
 33 35  1  0
 35 36  2  0
 35 37  1  0
 37 38  1  0
 38 39  1  0
 37 40  2  0
 40 41  1  0
 40 42  1  0
 36 43  1  0
 42 43  2  0
 39 44  1  0
 44 45  1  0
M  END
$$$$
O14757_Pocket2Mol_idx-in-all-generaetd-972
     RDKit          3D

 28 31  0  0  0  0  0  0  0  0999 V2000
    2.2608    0.0351   42.1039 C   0  0  0  0  0  0  0  0  0  0  0  0
    2.7906   -1.0673   42.3987 N   0  0  0  0  0  0  0  0  0  0  0  0
    3.1210    0.9973   42.3040 N   0  0  0  0  0  0  0  0  0  0  0  0
    4.0827   -0.7954   42.9700 C   0  0  0  0  0  0  0  0  0  0  0  0
    4.9955   -1.7234   43.5259 N   0  0  0  0  0  0  0  0  0  0  0  0
    4.5382   -2.7016   44.3398 C   0  0  0  0  0  0  0  0  0  0  0  0
    5.3738   -2.9294   45.5228 C   0  0  2  0  0  0  0  0  0  0  0  0
    6.6133   -2.1566   45.5018 C   0  0  0  0  0  0  0  0  0  0  0  0
    4.2841    0.3926   42.8877 N   0  0  0  0  0  0  0  0  0  0  0  0
    5.4441   -4.2364   45.9837 C   0  0  0  0  0  0  0  0  0  0  0  0
    1.9678   -2.2711   42.4114 C   0  0  0  0  0  0  0  0  0  0  0  0
    7.1399   -1.4316   44.7431 O   0  0  0  0  0  0  0  0  0  0  0  0
    7.4936   -2.5586   46.5441 N   0  0  0  0  0  0  0  0  0  0  0  0
    5.8242   -4.4706   47.3868 C   0  0  0  0  0  0  0  0  0  0  0  0
    1.0261   -2.3754   41.4347 C   0  0  0  0  0  0  0  0  0  0  0  0
    0.1189   -3.5468   41.4614 C   0  0  0  0  0  0  0  0  0  0  0  0
    2.2389   -3.3785   43.2951 C   0  0  0  0  0  0  0  0  0  0  0  0
    8.8204   -2.0489   46.8075 C   0  0  0  0  0  0  0  0  0  0  0  0
    0.3484   -4.5483   42.3997 C   0  0  0  0  0  0  0  0  0  0  0  0
   -0.4651   -5.6361   42.4743 O   0  0  0  0  0  0  0  0  0  0  0  0
    3.2198   -3.1033   44.3843 N   0  0  0  0  0  0  0  0  0  0  0  0
    7.1484   -3.7542   47.4585 C   0  0  0  0  0  0  0  0  0  0  0  0
    1.4134   -4.4113   43.3692 C   0  0  0  0  0  0  0  0  0  0  0  0
    9.7797   -2.5147   46.0126 C   0  0  0  0  0  0  0  0  0  0  0  0
    9.9089   -3.8671   45.9103 O   0  0  0  0  0  0  0  0  0  0  0  0
   11.1013   -4.5478   45.7780 C   0  0  0  0  0  0  0  0  0  0  0  0
   11.0113   -5.8492   45.5073 C   0  0  0  0  0  0  0  0  0  0  0  0
   12.1745   -3.9627   45.9524 O   0  0  0  0  0  0  0  0  0  0  0  0
  1  2  1  0
  1  3  2  0
  2  4  1  0
  4  5  1  0
  5  6  1  0
  7  6  1  6
  7  8  1  0
  3  9  1  0
  4  9  2  0
  7 10  1  0
  2 11  1  0
  8 12  2  0
  8 13  1  0
 10 14  1  0
 11 15  2  0
 15 16  1  0
 11 17  1  0
 13 18  1  0
 16 19  2  0
 19 20  1  0
  6 21  2  0
 17 21  1  0
 13 22  1  0
 14 22  1  0
 17 23  2  0
 19 23  1  0
 18 24  1  0
 24 25  1  0
 25 26  1  0
 26 27  1  0
 26 28  2  0
M  END
$$$$
O14757_Pocket2Mol_idx-in-all-generaetd-973
     RDKit          3D

 32 39  0  0  0  0  0  0  0  0999 V2000
    4.8173    0.2791   42.6993 N   0  0  0  0  0  0  0  0  0  0  0  0
    5.3297   -0.7477   43.3688 C   0  0  0  0  0  0  0  0  0  0  0  0
    3.4732   -0.2235   42.4530 C   0  0  0  0  0  0  0  0  0  0  0  0
    4.4984   -1.7876   43.6214 C   0  0  0  0  0  0  0  0  0  0  0  0
    3.3438   -1.5190   42.9379 C   0  0  0  0  0  0  0  0  0  0  0  0
    2.1381   -2.3401   42.8254 C   0  0  0  0  0  0  0  0  0  0  0  0
    2.3894    0.3572   41.9843 N   0  0  0  0  0  0  0  0  0  0  0  0
    4.9180   -3.0430   44.3829 C   0  0  0  0  0  0  0  0  0  0  0  0
    5.9444   -2.9314   45.3934 C   0  0  0  0  0  0  0  0  0  0  0  0
    4.2808   -4.1329   44.3252 C   0  0  0  0  0  0  0  0  0  0  0  0
    3.1588   -4.4221   43.4852 O   0  0  0  0  0  0  0  0  0  0  0  0
    4.5704   -5.2518   45.1995 C   0  0  0  0  0  0  0  0  0  0  0  0
    1.9853   -3.6792   43.3495 C   0  0  0  0  0  0  0  0  0  0  0  0
    0.9181   -4.3294   43.4638 C   0  0  0  0  0  0  0  0  0  0  0  0
    6.7403   -1.6226   45.5272 C   0  0  2  0  0  0  0  0  0  0  0  0
    0.9752   -1.7845   42.3366 C   0  0  0  0  0  0  0  0  0  0  0  0
    6.2516   -3.7287   46.2722 C   0  0  0  0  0  0  0  0  0  0  0  0
   -0.2404   -2.4179   42.2529 C   0  0  0  0  0  0  0  0  0  0  0  0
   -1.3835   -1.8904   41.6559 N   0  0  0  0  0  0  0  0  0  0  0  0
    3.8706   -6.4216   45.1394 O   0  0  0  0  0  0  0  0  0  0  0  0
    0.9456   -0.2789   41.7649 C   0  0  0  0  0  0  0  0  0  0  0  0
   -0.2678   -3.6969   42.7575 C   0  0  0  0  0  0  0  0  0  0  0  0
    6.3913   -0.7000   44.3807 N   0  0  0  0  0  0  0  0  0  0  0  0
    7.9391   -1.5867   46.0069 C   0  0  0  0  0  0  0  0  0  0  0  0
    7.1969   -3.5621   47.3287 C   0  0  0  0  0  0  0  0  0  0  0  0
    5.4958   -5.0534   46.2483 C   0  0  0  0  0  0  0  0  0  0  0  0
    8.7816   -0.5869   45.8733 O   0  0  0  0  0  0  0  0  0  0  0  0
    8.2141   -2.6365   46.9613 C   0  0  0  0  0  0  0  0  0  0  0  0
    9.3705   -2.4494   47.7448 C   0  0  0  0  0  0  0  0  0  0  0  0
    9.3414   -3.6654   48.6916 C   0  0  0  0  0  0  0  0  0  0  0  0
    8.5900   -4.6230   48.9508 C   0  0  0  0  0  0  0  0  0  0  0  0
    7.4204   -4.6714   48.1614 C   0  0  0  0  0  0  0  0  0  0  0  0
  1  2  2  0
  1  3  1  0
  2  4  1  0
  3  5  1  0
  4  5  2  0
  5  6  1  0
  3  7  2  0
  4  8  1  0
  8  9  1  0
  8 10  2  0
 10 11  1  0
 10 12  1  0
  6 13  1  0
 11 13  1  0
 13 14  2  0
  9 15  1  0
  6 16  2  0
  9 17  2  0
 16 18  1  0
 18 19  1  0
 12 20  1  0
  7 21  1  0
 16 21  1  0
 14 22  1  0
 18 22  2  0
  2 23  1  0
 15 23  1  6
 15 24  1  0
 17 25  1  0
 12 26  2  0
 17 26  1  0
 24 27  2  0
 24 28  1  0
 25 28  2  0
 28 29  1  0
 29 30  2  0
 30 31  1  0
 25 32  1  0
 31 32  2  0
M  END
$$$$
O14757_Pocket2Mol_idx-in-all-generaetd-974
     RDKit          3D

 31 36  0  0  0  0  0  0  0  0999 V2000
    4.5156    0.0550   42.9895 N   0  0  0  0  0  0  0  0  0  0  0  0
    5.0618   -0.8645   43.5295 C   0  0  0  0  0  0  0  0  0  0  0  0
    4.4350   -2.0604   43.7783 C   0  0  0  0  0  0  0  0  0  0  0  0
    4.9987   -3.0994   44.5839 C   0  0  0  0  0  0  0  0  0  0  0  0
    3.2714   -1.8664   43.0632 C   0  0  0  0  0  0  0  0  0  0  0  0
    6.4064   -0.5942   44.3204 N   0  0  0  0  0  0  0  0  0  0  0  0
    4.3422   -4.3256   44.7203 C   0  0  0  0  0  0  0  0  0  0  0  0
    2.1845   -2.6668   42.8270 N   0  0  0  0  0  0  0  0  0  0  0  0
    3.3305   -0.5395   42.5465 N   0  0  0  0  0  0  0  0  0  0  0  0
    1.9502   -3.8972   43.4076 C   0  0  0  0  0  0  0  0  0  0  0  0
    2.7156   -4.1184   44.6954 N   0  0  0  0  0  0  0  0  0  0  0  0
    6.8581   -1.5862   45.1101 C   0  0  0  0  0  0  0  0  0  0  0  0
    6.1801   -2.8430   45.2383 C   0  0  0  0  0  0  0  0  0  0  0  0
    2.1454   -5.1901   45.5771 C   0  0  0  0  0  0  0  0  0  0  0  0
    8.0137   -1.3946   45.8526 C   0  0  0  0  0  0  0  0  0  0  0  0
    0.9733   -4.5725   43.2066 O   0  0  0  0  0  0  0  0  0  0  0  0
    2.2437    0.0035   41.8733 C   0  0  0  0  0  0  0  0  0  0  0  0
    1.3210   -2.2077   41.7009 C   0  0  0  0  0  0  0  0  0  0  0  0
    8.6047   -2.2876   46.6923 C   0  0  0  0  0  0  0  0  0  0  0  0
    7.9141   -3.5157   46.8869 C   0  0  0  0  0  0  0  0  0  0  0  0
    1.0501   -0.8658   41.6612 C   0  0  0  0  0  0  0  0  0  0  0  0
    6.7278   -3.7718   46.2525 C   0  0  0  0  0  0  0  0  0  0  0  0
    9.8280   -2.0492   47.3361 C   0  0  0  0  0  0  0  0  0  0  0  0
    9.8262   -1.5735   48.5432 C   0  0  0  0  0  0  0  0  0  0  0  0
   11.0745   -2.0905   46.6735 C   0  0  0  0  0  0  0  0  0  0  0  0
   11.0505   -1.3803   49.1784 C   0  0  0  0  0  0  0  0  0  0  0  0
   12.2424   -1.8502   47.2362 C   0  0  0  0  0  0  0  0  0  0  0  0
   12.2609   -1.5242   48.5559 C   0  0  0  0  0  0  0  0  0  0  0  0
   13.4675   -2.0249   46.4205 C   0  0  0  0  0  0  0  0  0  0  0  0
   14.3629   -2.7989   46.7802 O   0  0  0  0  0  0  0  0  0  0  0  0
   13.6242   -1.3846   45.3259 O   0  0  0  0  0  0  0  0  0  0  0  0
  1  2  2  0
  2  3  1  0
  3  4  1  0
  3  5  2  0
  2  6  1  0
  4  7  1  0
  5  8  1  0
  1  9  1  0
  5  9  1  0
  8 10  1  0
  7 11  1  0
 10 11  1  0
  6 12  2  0
  4 13  2  0
 12 13  1  0
 11 14  1  0
 12 15  1  0
 10 16  2  0
  9 17  1  0
  8 18  1  0
 15 19  2  0
 19 20  1  0
 17 21  1  0
 18 21  1  0
 13 22  1  0
 20 22  2  0
 19 23  1  0
 23 24  2  0
 23 25  1  0
 24 26  1  0
 25 27  2  0
 26 28  2  0
 27 28  1  0
 27 29  1  0
 29 30  1  0
 29 31  2  0
M  END
$$$$
O14757_Pocket2Mol_idx-in-all-generaetd-975
     RDKit          3D

 34 38  0  0  0  0  0  0  0  0999 V2000
    4.5156    0.0550   42.9895 N   0  0  0  0  0  0  0  0  0  0  0  0
    5.0618   -0.8645   43.5295 C   0  0  0  0  0  0  0  0  0  0  0  0
    4.4350   -2.0604   43.7783 C   0  0  0  0  0  0  0  0  0  0  0  0
    4.9987   -3.0994   44.5839 C   0  0  0  0  0  0  0  0  0  0  0  0
    3.2714   -1.8664   43.0632 C   0  0  0  0  0  0  0  0  0  0  0  0
    6.4064   -0.5942   44.3204 N   0  0  0  0  0  0  0  0  0  0  0  0
    4.3422   -4.3256   44.7203 C   0  0  0  0  0  0  0  0  0  0  0  0
    2.1845   -2.6668   42.8270 N   0  0  0  0  0  0  0  0  0  0  0  0
    6.7872   -1.6740   45.1626 C   0  0  0  0  0  0  0  0  0  0  0  0
    3.3364   -0.5682   42.5216 C   0  0  0  0  0  0  0  0  0  0  0  0
    6.0794   -2.8367   45.2418 C   0  0  0  0  0  0  0  0  0  0  0  0
    2.2080   -0.0040   41.8105 N   0  0  0  0  0  0  0  0  0  0  0  0
    3.5122   -4.5717   45.8882 C   0  0  0  0  0  0  0  0  0  0  0  0
    8.0343   -1.3439   45.8176 C   0  0  0  0  0  0  0  0  0  0  0  0
    8.5676   -2.2678   46.6666 C   0  0  0  0  0  0  0  0  0  0  0  0
    1.2034   -0.9715   41.7505 C   0  0  0  0  0  0  0  0  0  0  0  0
    9.7543   -2.0263   47.4257 C   0  0  1  0  0  0  0  0  0  0  0  0
   10.9435   -2.3462   46.8726 C   0  0  0  0  0  0  0  0  0  0  0  0
    2.0759   -4.8825   45.5393 N   0  0  0  0  0  0  0  0  0  0  0  0
    1.2148   -2.2334   42.1576 C   0  0  0  0  0  0  0  0  0  0  0  0
    9.6982   -0.8148   48.0427 O   0  0  0  0  0  0  0  0  0  0  0  0
   11.0881   -3.3882   46.0717 O   0  0  0  0  0  0  0  0  0  0  0  0
    7.6623   -3.4449   46.9706 C   0  0  0  0  0  0  0  0  0  0  0  0
    6.5323   -3.6370   46.2770 C   0  0  0  0  0  0  0  0  0  0  0  0
    0.0607   -3.1280   41.9172 C   0  0  0  0  0  0  0  0  0  0  0  0
   12.3311   -3.5802   45.4279 C   0  0  0  0  0  0  0  0  0  0  0  0
   11.7186   -1.3261   46.7020 C   0  0  0  0  0  0  0  0  0  0  0  0
   12.9544   -1.4993   46.1478 C   0  0  0  0  0  0  0  0  0  0  0  0
   13.3025   -2.6449   45.5125 C   0  0  0  0  0  0  0  0  0  0  0  0
   13.8832   -0.4878   46.1646 O   0  0  0  0  0  0  0  0  0  0  0  0
   -0.3845   -3.3726   40.6953 O   0  0  0  0  0  0  0  0  0  0  0  0
    1.7882   -5.8011   44.8926 C   0  0  0  0  0  0  0  0  0  0  0  0
    1.2123   -3.7449   45.4496 C   0  0  0  0  0  0  0  0  0  0  0  0
   -0.4359   -3.7415   42.9107 O   0  0  0  0  0  0  0  0  0  0  0  0
  1  2  2  0
  2  3  1  0
  3  4  1  0
  3  5  2  0
  2  6  1  0
  4  7  1  0
  5  8  1  0
  6  9  2  0
  1 10  1  0
  5 10  1  0
  4 11  2  0
  9 11  1  0
 10 12  2  0
  7 13  1  0
  9 14  1  0
 14 15  2  0
 12 16  1  0
 15 17  1  0
 17 18  1  0
 13 19  1  0
  8 20  2  0
 16 20  1  0
 17 21  1  6
 18 22  1  0
 15 23  1  0
 11 24  1  0
 23 24  2  0
 20 25  1  0
 22 26  1  0
 18 27  2  0
 27 28  1  0
 26 29  1  0
 28 29  1  0
 28 30  2  0
 25 31  2  0
 19 32  1  0
 19 33  1  0
 25 34  1  0
M  END
$$$$
O14757_Pocket2Mol_idx-in-all-generaetd-976
     RDKit          3D

 31 37  0  0  0  0  0  0  0  0999 V2000
    4.8173    0.2791   42.6993 N   0  0  0  0  0  0  0  0  0  0  0  0
    5.3297   -0.7477   43.3688 C   0  0  0  0  0  0  0  0  0  0  0  0
    3.4732   -0.2235   42.4530 C   0  0  0  0  0  0  0  0  0  0  0  0
    4.4984   -1.7876   43.6214 C   0  0  0  0  0  0  0  0  0  0  0  0
    3.3438   -1.5190   42.9379 C   0  0  0  0  0  0  0  0  0  0  0  0
    2.1381   -2.3401   42.8254 C   0  0  0  0  0  0  0  0  0  0  0  0
    2.3894    0.3572   41.9843 N   0  0  0  0  0  0  0  0  0  0  0  0
    4.9180   -3.0430   44.3829 C   0  0  0  0  0  0  0  0  0  0  0  0
    5.9444   -2.9314   45.3934 C   0  0  0  0  0  0  0  0  0  0  0  0
    4.2808   -4.1329   44.3252 C   0  0  0  0  0  0  0  0  0  0  0  0
    3.1588   -4.4221   43.4852 O   0  0  0  0  0  0  0  0  0  0  0  0
    4.5704   -5.2518   45.1995 C   0  0  0  0  0  0  0  0  0  0  0  0
    1.9853   -3.6792   43.3495 C   0  0  0  0  0  0  0  0  0  0  0  0
    0.9181   -4.3294   43.4638 C   0  0  0  0  0  0  0  0  0  0  0  0
    6.7403   -1.6226   45.5272 C   0  0  2  0  0  0  0  0  0  0  0  0
    0.9752   -1.7845   42.3366 C   0  0  0  0  0  0  0  0  0  0  0  0
    6.2516   -3.7287   46.2722 C   0  0  0  0  0  0  0  0  0  0  0  0
   -0.2404   -2.4179   42.2529 C   0  0  0  0  0  0  0  0  0  0  0  0
   -1.3835   -1.8904   41.6559 N   0  0  0  0  0  0  0  0  0  0  0  0
    3.8706   -6.4216   45.1394 O   0  0  0  0  0  0  0  0  0  0  0  0
    0.9456   -0.2789   41.7649 C   0  0  0  0  0  0  0  0  0  0  0  0
   -0.2678   -3.6969   42.7575 C   0  0  0  0  0  0  0  0  0  0  0  0
    6.3913   -0.7000   44.3807 N   0  0  0  0  0  0  0  0  0  0  0  0
    7.9391   -1.5867   46.0069 C   0  0  0  0  0  0  0  0  0  0  0  0
    7.1969   -3.5621   47.3287 C   0  0  0  0  0  0  0  0  0  0  0  0
    5.4958   -5.0534   46.2483 C   0  0  0  0  0  0  0  0  0  0  0  0
    7.4872   -4.5338   48.2539 O   0  0  0  0  0  0  0  0  0  0  0  0
    8.1281   -2.5304   47.0986 C   0  0  1  0  0  0  0  0  0  0  0  0
    8.7872   -0.5908   45.9403 O   0  0  0  0  0  0  0  0  0  0  0  0
    9.4892   -2.5717   47.7347 C   0  0  0  0  0  0  0  0  0  0  0  0
    9.6177   -1.6692   48.6912 O   0  0  0  0  0  0  0  0  0  0  0  0
  1  2  2  0
  1  3  1  0
  2  4  1  0
  3  5  1  0
  4  5  2  0
  5  6  1  0
  3  7  2  0
  4  8  1  0
  8  9  1  0
  8 10  2  0
 10 11  1  0
 10 12  1  0
  6 13  1  0
 11 13  1  0
 13 14  2  0
  9 15  1  0
  6 16  2  0
  9 17  2  0
 16 18  1  0
 18 19  1  0
 12 20  1  0
  7 21  1  0
 16 21  1  0
 14 22  1  0
 18 22  2  0
  2 23  1  0
 15 23  1  6
 15 24  1  0
 17 25  1  0
 12 26  2  0
 17 26  1  0
 25 27  2  0
 24 28  1  0
 25 28  1  0
 24 29  2  0
 28 30  1  6
 30 31  1  0
M  END
$$$$
O14757_Pocket2Mol_idx-in-all-generaetd-977
     RDKit          3D

 33 38  0  0  0  0  0  0  0  0999 V2000
    1.5482   -0.3111   41.9233 C   0  0  0  0  0  0  0  0  0  0  0  0
    2.7284    0.2018   42.1525 N   0  0  0  0  0  0  0  0  0  0  0  0
    3.7893   -0.3016   42.7005 C   0  0  0  0  0  0  0  0  0  0  0  0
    3.3781   -1.7350   43.0000 C   0  0  0  0  0  0  0  0  0  0  0  0
    2.0339   -1.9619   42.6217 C   0  0  0  0  0  0  0  0  0  0  0  0
    4.1166   -2.4997   43.8458 C   0  0  0  0  0  0  0  0  0  0  0  0
    1.1731   -3.0051   42.5773 C   0  0  0  0  0  0  0  0  0  0  0  0
    0.4701   -3.2344   41.4901 C   0  0  0  0  0  0  0  0  0  0  0  0
    5.3799   -1.7814   44.2691 C   0  0  0  0  0  0  0  0  0  0  0  0
    5.0159   -0.0180   43.1201 N   0  0  0  0  0  0  0  0  0  0  0  0
    5.7693   -0.6937   43.8418 C   0  0  0  0  0  0  0  0  0  0  0  0
    0.8078   -3.6166   43.6782 C   0  0  0  0  0  0  0  0  0  0  0  0
    0.0663   -4.7011   43.7415 N   0  0  0  0  0  0  0  0  0  0  0  0
    6.2223   -2.6843   45.1565 C   0  0  0  0  0  0  0  0  0  0  0  0
    6.9599   -0.2351   44.2608 N   0  0  0  0  0  0  0  0  0  0  0  0
    5.9065   -3.9037   45.7499 N   0  0  0  0  0  0  0  0  0  0  0  0
   -0.5459   -5.1185   42.5870 C   0  0  0  0  0  0  0  0  0  0  0  0
    5.7480   -4.0340   46.9810 C   0  0  0  0  0  0  0  0  0  0  0  0
    7.4448   -1.8511   45.4198 C   0  0  0  0  0  0  0  0  0  0  0  0
    7.7572   -0.7827   45.0128 C   0  0  0  0  0  0  0  0  0  0  0  0
    8.4076   -2.7217   46.4541 C   0  0  0  0  0  0  0  0  0  0  0  0
    9.3167   -2.0988   47.1049 N   0  0  0  0  0  0  0  0  0  0  0  0
   -0.4719   -4.3893   41.5406 C   0  0  0  0  0  0  0  0  0  0  0  0
    8.3667   -4.0284   46.5743 N   0  0  0  0  0  0  0  0  0  0  0  0
   10.1532   -2.5726   47.9567 C   0  0  0  0  0  0  0  0  0  0  0  0
   11.0726   -1.7892   48.6998 C   0  0  0  0  0  0  0  0  0  0  0  0
   10.4886   -0.9372   49.4584 C   0  0  0  0  0  0  0  0  0  0  0  0
    8.9772   -4.5617   47.6013 C   0  0  0  0  0  0  0  0  0  0  0  0
    9.9765   -3.9922   48.2636 C   0  0  0  0  0  0  0  0  0  0  0  0
   11.3393   -0.1462   50.3539 C   0  0  0  0  0  0  0  0  0  0  0  0
   12.4892   -1.8956   48.4941 C   0  0  0  0  0  0  0  0  0  0  0  0
   12.7088   -0.2330   50.1805 C   0  0  0  0  0  0  0  0  0  0  0  0
   13.2575   -1.1204   49.2374 C   0  0  0  0  0  0  0  0  0  0  0  0
  1  2  1  0
  2  3  2  0
  3  4  1  0
  1  5  2  0
  4  5  1  0
  4  6  2  0
  5  7  1  0
  7  8  2  0
  6  9  1  0
  3 10  1  0
  9 11  2  0
 10 11  1  0
  7 12  1  0
 12 13  2  0
  9 14  1  0
 11 15  1  0
 14 16  1  0
 13 17  1  0
 16 18  1  0
 14 19  2  0
 15 20  2  0
 19 20  1  0
 19 21  1  0
 21 22  2  0
  8 23  1  0
 17 23  2  0
 21 24  1  0
 22 25  1  0
 25 26  1  0
 26 27  2  0
 24 28  2  0
 25 29  2  0
 28 29  1  0
 27 30  1  0
 26 31  1  0
 30 32  2  0
 31 33  2  0
 32 33  1  0
M  END
$$$$
O14757_Pocket2Mol_idx-in-all-generaetd-978
     RDKit          3D

 24 26  0  0  0  0  0  0  0  0999 V2000
    3.7044    0.1389   42.5158 N   0  0  0  0  0  0  0  0  0  0  0  0
    3.0206   -1.0018   42.4929 C   0  0  0  0  0  0  0  0  0  0  0  0
    3.4791   -2.0817   43.2077 C   0  0  0  0  0  0  0  0  0  0  0  0
    4.8540    0.3862   43.0582 N   0  0  0  0  0  0  0  0  0  0  0  0
    5.1377   -0.9552   43.7144 C   0  0  0  0  0  0  0  0  0  0  0  0
    1.5846   -1.0753   41.7644 C   0  0  0  0  0  0  0  0  0  0  0  0
    4.6026   -2.0358   43.8129 C   0  0  0  0  0  0  0  0  0  0  0  0
    5.1584   -3.1511   44.6069 C   0  0  0  0  0  0  0  0  0  0  0  0
    6.6094   -0.7911   44.3696 N   0  0  0  0  0  0  0  0  0  0  0  0
    4.4744   -4.3270   44.8472 C   0  0  0  0  0  0  0  0  0  0  0  0
    6.9275   -1.8713   45.2437 C   0  0  0  0  0  0  0  0  0  0  0  0
    8.2702   -1.7750   45.8768 C   0  0  0  0  0  0  0  0  0  0  0  0
    0.9365   -0.0867   41.7346 O   0  0  0  0  0  0  0  0  0  0  0  0
    6.2322   -3.0484   45.3118 C   0  0  0  0  0  0  0  0  0  0  0  0
    6.7747   -4.0433   46.1202 N   0  0  0  0  0  0  0  0  0  0  0  0
    1.1986   -2.3207   41.2898 C   0  0  0  0  0  0  0  0  0  0  0  0
    9.0384   -0.5677   45.9104 O   0  0  0  0  0  0  0  0  0  0  0  0
    8.7520   -2.8331   46.6526 N   0  0  0  0  0  0  0  0  0  0  0  0
    7.9500   -3.8887   46.7437 C   0  0  0  0  0  0  0  0  0  0  0  0
    8.5431   -5.0323   47.6675 C   0  0  0  0  0  0  0  0  0  0  0  0
   10.0112   -2.6622   47.4390 C   0  0  0  0  0  0  0  0  0  0  0  0
   10.9554   -3.4854   46.7244 C   0  0  0  0  0  0  0  0  0  0  0  0
   10.7695   -4.4381   46.0541 O   0  0  0  0  0  0  0  0  0  0  0  0
   12.2410   -2.9578   46.8905 O   0  0  0  0  0  0  0  0  0  0  0  0
  1  2  2  0
  2  3  1  0
  1  4  1  0
  4  5  2  0
  2  6  1  0
  3  7  2  0
  5  7  1  0
  7  8  1  0
  5  9  1  0
  8 10  1  0
  9 11  2  0
 11 12  1  0
  6 13  2  0
  8 14  2  0
 11 14  1  0
 14 15  1  0
  6 16  1  0
 12 17  2  0
 12 18  1  0
 15 19  2  0
 18 19  1  0
 19 20  1  0
 18 21  1  0
 21 22  1  0
 22 23  2  0
 22 24  1  0
M  END
$$$$
O14757_Pocket2Mol_idx-in-all-generaetd-979
     RDKit          3D

 30 35  0  0  0  0  0  0  0  0999 V2000
    5.3420    0.2589   42.8836 N   0  0  0  0  0  0  0  0  0  0  0  0
    5.6740   -0.8311   43.5645 C   0  0  0  0  0  0  0  0  0  0  0  0
    4.6589   -1.7043   43.6799 C   0  0  0  0  0  0  0  0  0  0  0  0
    3.6286   -1.0900   42.8577 C   0  0  0  0  0  0  0  0  0  0  0  0
    4.0610    0.1743   42.5227 N   0  0  0  0  0  0  0  0  0  0  0  0
    2.2711   -1.4200   42.4728 C   0  0  0  0  0  0  0  0  0  0  0  0
    4.3843   -2.8218   44.3745 C   0  0  0  0  0  0  0  0  0  0  0  0
    1.4505   -0.5265   41.9137 C   0  0  0  0  0  0  0  0  0  0  0  0
    1.9236   -2.8327   42.4366 C   0  0  0  0  0  0  0  0  0  0  0  0
    0.5317   -2.7729   41.9287 C   0  0  0  0  0  0  0  0  0  0  0  0
    6.8587   -1.2119   44.3293 C   0  0  0  0  0  0  0  0  0  0  0  0
    0.2175   -1.3031   41.4860 C   0  0  0  0  0  0  0  0  0  0  0  0
   -0.3459   -3.9057   41.6978 C   0  0  0  0  0  0  0  0  0  0  0  0
    7.8877   -0.5486   44.6088 N   0  0  0  0  0  0  0  0  0  0  0  0
    6.7301   -2.3898   45.2144 C   0  0  0  0  0  0  0  0  0  0  0  0
    5.5335   -3.2051   45.1511 C   0  0  0  0  0  0  0  0  0  0  0  0
    7.9111   -2.4568   45.9191 C   0  0  0  0  0  0  0  0  0  0  0  0
    8.6956   -1.2139   45.6145 C   0  0  0  0  0  0  0  0  0  0  0  0
    8.4387   -3.4065   46.9399 C   0  0  0  0  0  0  0  0  0  0  0  0
    9.6434   -3.2081   47.4488 C   0  0  0  0  0  0  0  0  0  0  0  0
   10.1454   -4.1698   48.4457 C   0  0  0  0  0  0  0  0  0  0  0  0
    9.9571   -1.0853   46.2999 C   0  0  0  0  0  0  0  0  0  0  0  0
   10.3696   -2.0115   47.1904 C   0  0  0  0  0  0  0  0  0  0  0  0
   10.5141   -5.3875   47.9390 N   0  0  0  0  0  0  0  0  0  0  0  0
   11.5759   -5.4913   47.1327 C   0  0  0  0  0  0  0  0  0  0  0  0
    9.7709   -6.5250   48.2414 C   0  0  0  0  0  0  0  0  0  0  0  0
   11.3326   -5.8221   45.7860 C   0  0  0  0  0  0  0  0  0  0  0  0
    8.9138   -6.6554   49.0519 O   0  0  0  0  0  0  0  0  0  0  0  0
    9.7592   -7.6085   47.1837 C   0  0  0  0  0  0  0  0  0  0  0  0
   10.6866   -7.3500   45.9667 N   0  0  0  0  0  0  0  0  0  0  0  0
  1  2  2  0
  2  3  1  0
  3  4  2  0
  1  5  1  0
  4  5  1  0
  4  6  1  0
  3  7  1  0
  6  8  2  0
  6  9  1  0
  9 10  2  0
  2 11  1  0
  8 12  1  0
 10 12  1  0
 10 13  1  0
 11 14  1  0
 11 15  2  0
  7 16  2  0
 15 16  1  0
 15 17  1  0
 14 18  1  0
 17 18  2  0
 17 19  1  0
 19 20  2  0
 20 21  1  0
 18 22  1  0
 20 23  1  0
 22 23  2  0
 21 24  1  0
 24 25  1  0
 24 26  1  0
 25 27  1  0
 26 28  2  0
 26 29  1  0
 27 30  1  0
 29 30  1  0
M  END
$$$$
O14757_Pocket2Mol_idx-in-all-generaetd-980
     RDKit          3D

 33 38  0  0  0  0  0  0  0  0999 V2000
    5.3420    0.2589   42.8836 O   0  0  0  0  0  0  0  0  0  0  0  0
    5.1627   -0.7554   43.4753 C   0  0  0  0  0  0  0  0  0  0  0  0
    4.0509   -1.4657   43.4177 N   0  0  0  0  0  0  0  0  0  0  0  0
    5.9969   -1.2317   44.6840 C   0  0  0  0  0  0  0  0  0  0  0  0
    2.9618   -1.1021   42.5918 C   0  0  0  0  0  0  0  0  0  0  0  0
    7.3392   -0.8596   44.8412 C   0  0  0  0  0  0  0  0  0  0  0  0
    1.9754   -2.0820   42.2741 C   0  0  0  0  0  0  0  0  0  0  0  0
    5.5910   -2.4282   45.3439 C   0  0  0  0  0  0  0  0  0  0  0  0
    6.5874   -2.9636   46.1581 C   0  0  0  0  0  0  0  0  0  0  0  0
    4.2763   -3.0680   45.0493 N   0  0  0  0  0  0  0  0  0  0  0  0
    3.6188   -2.5886   44.2024 C   0  0  0  0  0  0  0  0  0  0  0  0
    8.1921   -1.4071   45.7505 C   0  0  0  0  0  0  0  0  0  0  0  0
    1.0154   -1.8839   41.2980 C   0  0  0  0  0  0  0  0  0  0  0  0
    2.5720   -3.3564   43.9063 C   0  0  0  0  0  0  0  0  0  0  0  0
    0.2502   -2.8976   41.0751 C   0  0  0  0  0  0  0  0  0  0  0  0
    6.1761   -4.1775   47.0209 C   0  0  0  0  0  0  0  0  0  0  0  0
    1.7266   -3.1047   43.0115 C   0  0  2  0  0  0  0  0  0  0  0  0
    2.3696   -4.5367   44.7536 N   0  0  0  0  0  0  0  0  0  0  0  0
    1.2264   -5.2346   44.4693 C   0  0  0  0  0  0  0  0  0  0  0  0
    0.7187   -3.8955   42.5465 C   0  0  0  0  0  0  0  0  0  0  0  0
    9.4576   -0.8949   46.0327 N   0  0  0  0  0  0  0  0  0  0  0  0
    0.8625   -6.3901   45.2462 C   0  0  0  0  0  0  0  0  0  0  0  0
    7.6467   -2.5139   46.4892 C   0  0  0  0  0  0  0  0  0  0  0  0
   10.4908   -1.5336   45.8242 C   0  0  0  0  0  0  0  0  0  0  0  0
    0.3057   -4.9299   43.2909 C   0  0  0  0  0  0  0  0  0  0  0  0
   11.5916   -1.4291   46.7436 C   0  0  0  0  0  0  0  0  0  0  0  0
   10.5566   -2.3672   44.8649 O   0  0  0  0  0  0  0  0  0  0  0  0
   12.8421   -1.9355   46.2823 C   0  0  0  0  0  0  0  0  0  0  0  0
   13.4833   -2.8582   46.9841 C   0  0  0  0  0  0  0  0  0  0  0  0
   13.2717   -2.8931   48.3731 C   0  0  0  0  0  0  0  0  0  0  0  0
    3.0200    0.0729   42.0596 O   0  0  0  0  0  0  0  0  0  0  0  0
   12.2799   -2.3796   48.7643 C   0  0  0  0  0  0  0  0  0  0  0  0
   11.2473   -1.6735   48.0273 C   0  0  0  0  0  0  0  0  0  0  0  0
  1  2  2  0
  2  3  1  0
  2  4  1  0
  3  5  1  0
  4  6  2  0
  5  7  1  0
  4  8  1  0
  8  9  2  0
  8 10  1  0
  3 11  1  0
 10 11  2  0
  6 12  1  0
  7 13  2  0
 11 14  1  0
 13 15  1  0
  9 16  1  0
 17  7  1  6
 14 17  1  0
 14 18  2  0
 18 19  1  0
 15 20  2  0
 17 20  1  0
 12 21  1  0
 19 22  1  0
  9 23  1  0
 12 23  2  0
 21 24  1  0
 19 25  2  0
 20 25  1  0
 24 26  1  0
 24 27  2  0
 26 28  2  0
 28 29  1  0
 29 30  2  0
  5 31  2  0
 30 32  1  0
 26 33  1  0
 32 33  2  0
M  END
$$$$
O14757_Pocket2Mol_idx-in-all-generaetd-981
     RDKit          3D

 21 23  0  0  0  0  0  0  0  0999 V2000
    5.3420    0.2589   42.8836 N   0  0  0  0  0  0  0  0  0  0  0  0
    5.6740   -0.8311   43.5645 C   0  0  0  0  0  0  0  0  0  0  0  0
    3.9899   -0.0458   42.5141 N   0  0  0  0  0  0  0  0  0  0  0  0
    4.6606   -1.7163   43.6337 C   0  0  0  0  0  0  0  0  0  0  0  0
    3.6244   -1.2025   42.8928 C   0  0  0  0  0  0  0  0  0  0  0  0
    2.3780   -1.7713   42.6359 C   0  0  0  0  0  0  0  0  0  0  0  0
    4.5721   -3.0267   44.2590 C   0  0  0  0  0  0  0  0  0  0  0  0
    1.3110   -1.1954   41.9273 C   0  0  0  0  0  0  0  0  0  0  0  0
    2.2543   -3.0870   43.2441 C   0  0  0  0  0  0  0  0  0  0  0  0
    3.1715   -3.6328   44.0301 C   0  0  0  0  0  0  0  0  0  0  0  0
    6.9681   -1.0792   44.3218 C   0  0  0  0  0  0  0  0  0  0  0  0
    0.2874   -1.9049   41.5221 C   0  0  0  0  0  0  0  0  0  0  0  0
    7.0391   -1.0722   45.7447 C   0  0  0  0  0  0  0  0  0  0  0  0
    1.0976   -3.7968   42.8954 C   0  0  0  0  0  0  0  0  0  0  0  0
    8.2678   -0.6661   46.3412 N   0  0  0  0  0  0  0  0  0  0  0  0
    0.1187   -3.1920   42.0706 C   0  0  0  0  0  0  0  0  0  0  0  0
    6.1347   -1.6031   46.4802 O   0  0  0  0  0  0  0  0  0  0  0  0
    9.4748   -0.8352   45.7240 C   0  0  0  0  0  0  0  0  0  0  0  0
   10.4351   -1.4234   46.7144 C   0  0  0  0  0  0  0  0  0  0  0  0
    9.9708   -2.5113   47.3461 O   0  0  0  0  0  0  0  0  0  0  0  0
    9.7223   -3.6401   46.6054 C   0  0  0  0  0  0  0  0  0  0  0  0
  1  2  2  0
  1  3  1  0
  2  4  1  0
  3  5  1  0
  4  5  2  0
  5  6  1  0
  4  7  1  0
  6  8  2  0
  6  9  1  0
  7 10  2  0
  9 10  1  0
  2 11  1  0
  8 12  1  0
 11 13  1  0
  9 14  2  0
 13 15  1  0
 12 16  2  0
 14 16  1  0
 13 17  2  0
 15 18  1  0
 18 19  1  0
 19 20  1  0
 20 21  1  0
M  END
$$$$
O14757_Pocket2Mol_idx-in-all-generaetd-982
     RDKit          3D

 33 39  0  0  0  0  0  0  0  0999 V2000
    4.8173    0.2791   42.6993 N   0  0  0  0  0  0  0  0  0  0  0  0
    5.3297   -0.7477   43.3688 C   0  0  0  0  0  0  0  0  0  0  0  0
    3.4732   -0.2235   42.4530 C   0  0  0  0  0  0  0  0  0  0  0  0
    4.4984   -1.7876   43.6214 C   0  0  0  0  0  0  0  0  0  0  0  0
    3.3438   -1.5190   42.9379 C   0  0  0  0  0  0  0  0  0  0  0  0
    2.1381   -2.3401   42.8254 C   0  0  0  0  0  0  0  0  0  0  0  0
    2.3894    0.3572   41.9843 N   0  0  0  0  0  0  0  0  0  0  0  0
    4.9180   -3.0430   44.3829 C   0  0  0  0  0  0  0  0  0  0  0  0
    5.9444   -2.9314   45.3934 C   0  0  0  0  0  0  0  0  0  0  0  0
    4.2808   -4.1329   44.3252 C   0  0  0  0  0  0  0  0  0  0  0  0
    3.1588   -4.4221   43.4852 O   0  0  0  0  0  0  0  0  0  0  0  0
    4.5704   -5.2518   45.1995 C   0  0  0  0  0  0  0  0  0  0  0  0
    1.9853   -3.6792   43.3495 C   0  0  0  0  0  0  0  0  0  0  0  0
    0.9181   -4.3294   43.4638 C   0  0  0  0  0  0  0  0  0  0  0  0
    6.7403   -1.6226   45.5272 C   0  0  0  0  0  0  0  0  0  0  0  0
    0.9752   -1.7845   42.3366 C   0  0  0  0  0  0  0  0  0  0  0  0
    6.2516   -3.7287   46.2722 C   0  0  0  0  0  0  0  0  0  0  0  0
    7.2567   -3.6098   47.2134 C   0  0  0  0  0  0  0  0  0  0  0  0
    5.3220   -4.9461   46.1208 C   0  0  0  0  0  0  0  0  0  0  0  0
    7.8604   -1.5907   46.3326 C   0  0  0  0  0  0  0  0  0  0  0  0
    0.9986   -0.4089   41.6951 C   0  0  0  0  0  0  0  0  0  0  0  0
   -0.2195   -2.3895   42.2855 C   0  0  0  0  0  0  0  0  0  0  0  0
   -0.2661   -3.6763   42.8028 C   0  0  0  0  0  0  0  0  0  0  0  0
    8.0637   -2.6796   47.2569 C   0  0  0  0  0  0  0  0  0  0  0  0
    9.1531   -2.5404   48.1681 C   0  0  0  0  0  0  0  0  0  0  0  0
   10.4001   -2.5703   47.7508 N   0  0  0  0  0  0  0  0  0  0  0  0
    9.0393   -2.9432   49.4354 O   0  0  0  0  0  0  0  0  0  0  0  0
   11.6039   -2.5309   48.5453 C   0  0  0  0  0  0  0  0  0  0  0  0
   10.6209   -1.8823   46.4116 C   0  0  0  0  0  0  0  0  0  0  0  0
   11.4734   -0.8121   46.4236 C   0  0  0  0  0  0  0  0  0  0  0  0
   12.3712   -1.3058   48.5626 C   0  0  0  0  0  0  0  0  0  0  0  0
   12.6020   -0.8315   47.2424 N   0  0  0  0  0  0  0  0  0  0  0  0
   13.4141    0.4356   47.2386 C   0  0  0  0  0  0  0  0  0  0  0  0
  1  2  2  0
  1  3  1  0
  2  4  1  0
  3  5  1  0
  4  5  2  0
  5  6  1  0
  3  7  2  0
  4  8  1  0
  8  9  1  0
  8 10  2  0
 10 11  1  0
 10 12  1  0
  6 13  1  0
 11 13  1  0
 13 14  2  0
  9 15  2  0
  6 16  2  0
  9 17  1  0
 17 18  2  0
 12 19  2  0
 17 19  1  0
 15 20  1  0
  7 21  1  0
 16 21  1  0
 16 22  1  0
 14 23  1  0
 22 23  2  0
 18 24  1  0
 20 24  2  0
 24 25  1  0
 25 26  1  0
 25 27  2  0
 26 28  1  0
 26 29  1  0
 29 30  1  0
 28 31  1  0
 30 32  1  0
 31 32  1  0
 32 33  1  0
M  END
$$$$
O14757_Pocket2Mol_idx-in-all-generaetd-983
     RDKit          3D

 44 52  0  0  0  0  0  0  0  0999 V2000
    1.5482   -0.3111   41.9233 C   0  0  0  0  0  0  0  0  0  0  0  0
    2.7284    0.2018   42.1525 N   0  0  0  0  0  0  0  0  0  0  0  0
    3.7893   -0.3016   42.7005 C   0  0  0  0  0  0  0  0  0  0  0  0
    3.3781   -1.7350   43.0000 C   0  0  0  0  0  0  0  0  0  0  0  0
    2.0339   -1.9619   42.6217 C   0  0  0  0  0  0  0  0  0  0  0  0
    5.0090    0.1219   42.9340 N   0  0  0  0  0  0  0  0  0  0  0  0
    4.2895   -2.4979   43.6707 C   0  0  0  0  0  0  0  0  0  0  0  0
    5.8391   -0.6675   43.6343 C   0  0  0  0  0  0  0  0  0  0  0  0
    6.9849   -0.2377   44.0028 N   0  0  0  0  0  0  0  0  0  0  0  0
    4.0426   -3.8794   44.0832 C   0  0  0  0  0  0  0  0  0  0  0  0
    7.6796   -0.8734   44.9326 C   0  0  0  0  0  0  0  0  0  0  0  0
    1.1064   -2.9576   42.4211 C   0  0  0  0  0  0  0  0  0  0  0  0
    5.5298   -1.9496   44.0315 C   0  0  0  0  0  0  0  0  0  0  0  0
    3.8954   -4.1817   45.4718 C   0  0  0  0  0  0  0  0  0  0  0  0
    0.6765   -3.5480   43.4006 C   0  0  1  0  0  0  0  0  0  0  0  0
    0.5804   -3.2191   41.1635 C   0  0  0  0  0  0  0  0  0  0  0  0
    2.8083   -4.8227   45.9203 N   0  0  0  0  0  0  0  0  0  0  0  0
   -0.1574   -4.5754   42.9329 N   0  0  0  0  0  0  0  0  0  0  0  0
    6.5271   -2.5531   44.9677 C   0  0  0  0  0  0  0  0  0  0  0  0
   -0.2272   -4.3703   41.5137 C   0  0  0  0  0  0  0  0  0  0  0  0
    7.5095   -2.0029   45.3993 C   0  0  0  0  0  0  0  0  0  0  0  0
    8.2550   -2.6982   46.3988 C   0  0  1  0  0  0  0  0  0  0  0  0
    8.8975   -0.3029   45.3267 O   0  0  0  0  0  0  0  0  0  0  0  0
    4.8299   -4.4637   46.4212 C   0  0  0  0  0  0  0  0  0  0  0  0
    4.2707   -4.9248   47.6295 N   0  0  0  0  0  0  0  0  0  0  0  0
    3.2045   -5.2092   47.1521 C   0  0  0  0  0  0  0  0  0  0  0  0
    1.4482   -4.6186   45.4134 C   0  0  0  0  0  0  0  0  0  0  0  0
    1.3256   -3.7660   44.6394 N   0  0  0  0  0  0  0  0  0  0  0  0
    9.2816   -2.1418   47.1273 N   0  0  0  0  0  0  0  0  0  0  0  0
   10.0629   -3.1324   47.8508 C   0  0  0  0  0  0  0  0  0  0  0  0
    6.3491   -3.8960   46.0844 C   0  0  2  0  0  0  0  0  0  0  0  0
    7.4349   -3.5889   46.9054 C   0  0  0  0  0  0  0  0  0  0  0  0
   10.3145   -2.7271   49.0818 O   0  0  0  0  0  0  0  0  0  0  0  0
   11.0221   -3.8171   47.1052 C   0  0  0  0  0  0  0  0  0  0  0  0
    0.8710   -5.7412   45.2074 O   0  0  0  0  0  0  0  0  0  0  0  0
   12.1654   -3.3890   46.7468 C   0  0  0  0  0  0  0  0  0  0  0  0
   10.8862   -5.2442   47.2797 C   0  0  0  0  0  0  0  0  0  0  0  0
   11.6445   -5.8923   46.6301 C   0  0  0  0  0  0  0  0  0  0  0  0
   11.5586   -7.4203   46.6373 O   0  0  0  0  0  0  0  0  0  0  0  0
   12.9082   -5.4386   46.1277 C   0  0  0  0  0  0  0  0  0  0  0  0
   10.7116   -7.8562   45.6664 C   0  0  0  0  0  0  0  0  0  0  0  0
   12.3824   -1.8399   46.7896 O   0  0  0  0  0  0  0  0  0  0  0  0
   13.1043   -4.0606   46.1947 C   0  0  0  0  0  0  0  0  0  0  0  0
   13.4242   -1.3499   46.0284 C   0  0  0  0  0  0  0  0  0  0  0  0
  1  2  1  0
  2  3  2  0
  3  4  1  0
  1  5  2  0
  4  5  1  0
  3  6  1  0
  4  7  2  0
  6  8  1  0
  8  9  1  0
  7 10  1  0
  9 11  1  0
  5 12  1  0
  7 13  1  0
  8 13  2  0
 10 14  1  0
 12 15  1  0
 12 16  2  0
 14 17  1  0
 15 18  1  0
 13 19  1  0
 16 20  1  0
 18 20  2  0
 11 21  1  0
 19 21  2  0
 21 22  1  0
 11 23  2  0
 14 24  2  0
 24 25  1  0
 17 26  1  0
 25 26  2  0
 17 27  1  0
 15 28  1  6
 27 28  1  0
 22 29  1  1
 29 30  1  0
 19 31  1  0
 24 31  1  0
 22 32  1  0
 31 32  1  1
 30 33  2  0
 30 34  1  0
 27 35  2  0
 34 36  2  0
 34 37  1  0
 37 38  2  0
 38 39  1  0
 38 40  1  0
 39 41  1  0
 36 42  1  0
 36 43  1  0
 40 43  2  0
 42 44  1  0
M  END
$$$$
O14757_Pocket2Mol_idx-in-all-generaetd-984
     RDKit          3D

 46 55  0  0  0  0  0  0  0  0999 V2000
    1.5482   -0.3111   41.9233 C   0  0  0  0  0  0  0  0  0  0  0  0
    2.7284    0.2018   42.1525 N   0  0  0  0  0  0  0  0  0  0  0  0
    3.7893   -0.3016   42.7005 C   0  0  0  0  0  0  0  0  0  0  0  0
    3.3781   -1.7350   43.0000 C   0  0  0  0  0  0  0  0  0  0  0  0
    2.0339   -1.9619   42.6217 C   0  0  0  0  0  0  0  0  0  0  0  0
    5.0090    0.1219   42.9340 N   0  0  0  0  0  0  0  0  0  0  0  0
    4.2895   -2.4979   43.6707 C   0  0  0  0  0  0  0  0  0  0  0  0
    5.8391   -0.6675   43.6343 C   0  0  0  0  0  0  0  0  0  0  0  0
    6.9849   -0.2377   44.0028 N   0  0  0  0  0  0  0  0  0  0  0  0
    4.0426   -3.8794   44.0832 C   0  0  0  0  0  0  0  0  0  0  0  0
    7.6796   -0.8734   44.9326 C   0  0  0  0  0  0  0  0  0  0  0  0
    1.1064   -2.9576   42.4211 C   0  0  0  0  0  0  0  0  0  0  0  0
    5.5298   -1.9496   44.0315 C   0  0  0  0  0  0  0  0  0  0  0  0
    3.8954   -4.1817   45.4718 C   0  0  0  0  0  0  0  0  0  0  0  0
    0.6765   -3.5480   43.4006 C   0  0  1  0  0  0  0  0  0  0  0  0
    0.5804   -3.2191   41.1635 C   0  0  0  0  0  0  0  0  0  0  0  0
    2.8083   -4.8227   45.9203 N   0  0  0  0  0  0  0  0  0  0  0  0
   -0.1574   -4.5754   42.9329 N   0  0  0  0  0  0  0  0  0  0  0  0
    6.5271   -2.5531   44.9677 C   0  0  0  0  0  0  0  0  0  0  0  0
   -0.2272   -4.3703   41.5137 C   0  0  0  0  0  0  0  0  0  0  0  0
    7.5095   -2.0029   45.3993 C   0  0  0  0  0  0  0  0  0  0  0  0
    8.2550   -2.6982   46.3988 C   0  0  2  0  0  0  0  0  0  0  0  0
    8.8975   -0.3029   45.3267 O   0  0  0  0  0  0  0  0  0  0  0  0
    4.8299   -4.4637   46.4212 C   0  0  0  0  0  0  0  0  0  0  0  0
    4.2707   -4.9248   47.6295 N   0  0  0  0  0  0  0  0  0  0  0  0
    3.2045   -5.2092   47.1521 C   0  0  0  0  0  0  0  0  0  0  0  0
    1.4482   -4.6186   45.4134 C   0  0  2  0  0  0  0  0  0  0  0  0
    1.2398   -3.5043   44.6236 O   0  0  0  0  0  0  0  0  0  0  0  0
    6.3317   -3.9297   46.0870 C   0  0  2  0  0  0  0  0  0  0  0  0
    9.5296   -2.5449   46.9776 C   0  0  0  0  0  0  0  0  0  0  0  0
    9.7921   -1.7530   47.9018 O   0  0  0  0  0  0  0  0  0  0  0  0
    7.4454   -3.8344   46.8035 C   0  0  0  0  0  0  0  0  0  0  0  0
   10.5010   -3.0847   46.3190 O   0  0  0  0  0  0  0  0  0  0  0  0
    0.5569   -4.7693   46.5649 C   0  0  0  0  0  0  0  0  0  0  0  0
   11.7452   -2.8462   46.6234 C   0  0  0  0  0  0  0  0  0  0  0  0
   12.4344   -1.8951   45.7393 C   0  0  0  0  0  0  0  0  0  0  0  0
   12.4612   -3.5429   47.5581 C   0  0  0  0  0  0  0  0  0  0  0  0
   11.7737   -4.5216   48.4115 C   0  0  0  0  0  0  0  0  0  0  0  0
   13.7761   -1.6251   45.9829 C   0  0  0  0  0  0  0  0  0  0  0  0
   13.7909   -3.1787   47.7950 C   0  0  0  0  0  0  0  0  0  0  0  0
   14.4374   -0.6496   45.1506 C   0  0  0  0  0  0  0  0  0  0  0  0
   14.5863   -3.8413   48.8675 C   0  0  0  0  0  0  0  0  0  0  0  0
   14.5257   -5.1567   48.7884 C   0  0  0  0  0  0  0  0  0  0  0  0
   12.3786   -5.7287   48.5898 C   0  0  0  0  0  0  0  0  0  0  0  0
   14.4363   -2.2407   46.9981 C   0  0  0  0  0  0  0  0  0  0  0  0
   13.5197   -5.8094   49.4730 N   0  0  0  0  0  0  0  0  0  0  0  0
  1  2  1  0
  2  3  2  0
  3  4  1  0
  1  5  2  0
  4  5  1  0
  3  6  1  0
  4  7  2  0
  6  8  1  0
  8  9  1  0
  7 10  1  0
  9 11  1  0
  5 12  1  0
  7 13  1  0
  8 13  2  0
 10 14  1  0
 12 15  1  0
 12 16  2  0
 14 17  1  0
 15 18  1  0
 13 19  1  0
 16 20  1  0
 18 20  2  0
 11 21  1  0
 19 21  2  0
 21 22  1  0
 11 23  2  0
 14 24  2  0
 24 25  1  0
 17 26  1  0
 25 26  2  0
 17 27  1  0
 15 28  1  6
 27 28  1  0
 19 29  1  0
 24 29  1  0
 22 30  1  6
 30 31  2  0
 22 32  1  0
 29 32  1  1
 30 33  1  0
 27 34  1  1
 33 35  1  0
 35 36  2  0
 35 37  1  0
 37 38  1  0
 36 39  1  0
 37 40  2  0
 39 41  1  0
 40 42  1  0
 42 43  1  0
 38 44  1  0
 39 45  2  0
 40 45  1  0
 43 46  1  0
 44 46  1  0
M  END
$$$$
O14757_Pocket2Mol_idx-in-all-generaetd-985
     RDKit          3D

 31 37  0  0  0  0  0  0  0  0999 V2000
    2.2608    0.0351   42.1039 C   0  0  0  0  0  0  0  0  0  0  0  0
    2.7906   -1.0673   42.3987 N   0  0  0  0  0  0  0  0  0  0  0  0
    3.1210    0.9973   42.3040 N   0  0  0  0  0  0  0  0  0  0  0  0
    4.0827   -0.7954   42.9700 C   0  0  0  0  0  0  0  0  0  0  0  0
    4.9955   -1.7234   43.5259 N   0  0  0  0  0  0  0  0  0  0  0  0
    4.5382   -2.7016   44.3398 C   0  0  1  0  0  0  0  0  0  0  0  0
    5.3738   -2.9294   45.5228 C   0  0  2  0  0  0  0  0  0  0  0  0
    6.6133   -2.1566   45.5018 C   0  0  0  0  0  0  0  0  0  0  0  0
    4.2841    0.3926   42.8877 N   0  0  0  0  0  0  0  0  0  0  0  0
    5.4441   -4.2364   45.9837 C   0  0  1  0  0  0  0  0  0  0  0  0
    1.9678   -2.2711   42.4114 C   0  0  0  0  0  0  0  0  0  0  0  0
    7.1399   -1.4316   44.7431 O   0  0  0  0  0  0  0  0  0  0  0  0
    7.4936   -2.5586   46.5441 N   0  0  0  0  0  0  0  0  0  0  0  0
    5.8242   -4.4706   47.3868 C   0  0  0  0  0  0  0  0  0  0  0  0
    1.0261   -2.3754   41.4347 C   0  0  0  0  0  0  0  0  0  0  0  0
    0.1189   -3.5468   41.4614 C   0  0  0  0  0  0  0  0  0  0  0  0
    2.2389   -3.3785   43.2951 C   0  0  0  0  0  0  0  0  0  0  0  0
    3.3150   -3.3216   44.2621 C   0  0  0  0  0  0  0  0  0  0  0  0
   -0.9323   -3.5979   40.4982 O   0  0  0  0  0  0  0  0  0  0  0  0
    8.8055   -2.0091   46.8034 C   0  0  1  0  0  0  0  0  0  0  0  0
    7.0119   -3.4413   47.6500 C   0  0  0  0  0  0  0  0  0  0  0  0
    0.3294   -4.4619   42.4220 C   0  0  0  0  0  0  0  0  0  0  0  0
    3.1995   -4.5605   45.1503 C   0  0  0  0  0  0  0  0  0  0  0  0
    9.6716   -2.6832   47.3986 C   0  0  0  0  0  0  0  0  0  0  0  0
    1.4145   -4.2960   43.3909 C   0  0  0  0  0  0  0  0  0  0  0  0
   10.8565   -2.8742   46.5972 C   0  0  1  0  0  0  0  0  0  0  0  0
    1.7707   -5.1617   44.5570 O   0  0  0  0  0  0  0  0  0  0  0  0
   11.3051   -4.1279   46.2181 C   0  0  0  0  0  0  0  0  0  0  0  0
    3.9860   -4.8892   46.1565 C   0  0  0  0  0  0  0  0  0  0  0  0
   10.7735   -2.0162   45.4698 C   0  0  0  0  0  0  0  0  0  0  0  0
    9.4119   -1.3803   45.6093 C   0  0  0  0  0  0  0  0  0  0  0  0
  1  2  1  0
  1  3  2  0
  2  4  1  0
  4  5  1  0
  6  5  1  1
  6  7  1  0
  7  8  1  6
  3  9  1  0
  4  9  2  0
  7 10  1  0
  2 11  1  0
  8 12  2  0
  8 13  1  0
 10 14  1  1
 11 15  2  0
 15 16  1  0
 11 17  1  0
  6 18  1  0
 17 18  1  0
 16 19  1  0
 20 13  1  6
 13 21  1  0
 14 21  1  0
 16 22  2  0
 18 23  2  0
 20 24  1  0
 17 25  2  0
 22 25  1  0
 24 26  1  0
 23 27  1  0
 25 27  1  0
 26 28  1  6
 10 29  1  0
 23 29  1  0
 26 30  1  0
 20 31  1  0
 30 31  1  0
M  END
$$$$
O14757_Pocket2Mol_idx-in-all-generaetd-986
     RDKit          3D

 49 56  0  0  0  0  0  0  0  0999 V2000
    5.3420    0.2589   42.8836 O   0  0  0  0  0  0  0  0  0  0  0  0
    5.1627   -0.7554   43.4753 C   0  0  0  0  0  0  0  0  0  0  0  0
    4.0509   -1.4657   43.4177 N   0  0  0  0  0  0  0  0  0  0  0  0
    5.9969   -1.2317   44.6840 C   0  0  0  0  0  0  0  0  0  0  0  0
    2.9618   -1.1021   42.5918 C   0  0  1  0  0  0  0  0  0  0  0  0
    7.3392   -0.8596   44.8412 C   0  0  0  0  0  0  0  0  0  0  0  0
    1.9754   -2.0820   42.2741 C   0  0  0  0  0  0  0  0  0  0  0  0
    5.5910   -2.4282   45.3439 C   0  0  0  0  0  0  0  0  0  0  0  0
    6.5874   -2.9636   46.1581 C   0  0  0  0  0  0  0  0  0  0  0  0
    4.2763   -3.0680   45.0493 N   0  0  0  0  0  0  0  0  0  0  0  0
    3.6188   -2.5886   44.2024 C   0  0  0  0  0  0  0  0  0  0  0  0
    8.1921   -1.4071   45.7505 C   0  0  0  0  0  0  0  0  0  0  0  0
    1.0154   -1.8839   41.2980 C   0  0  0  0  0  0  0  0  0  0  0  0
    2.5720   -3.3564   43.9063 C   0  0  0  0  0  0  0  0  0  0  0  0
    0.2502   -2.8976   41.0751 C   0  0  0  0  0  0  0  0  0  0  0  0
    6.1761   -4.1775   47.0209 C   0  0  0  0  0  0  0  0  0  0  0  0
    1.7266   -3.1047   43.0115 C   0  0  2  0  0  0  0  0  0  0  0  0
    2.3696   -4.5367   44.7536 N   0  0  0  0  0  0  0  0  0  0  0  0
    1.2264   -5.2346   44.4693 C   0  0  0  0  0  0  0  0  0  0  0  0
    0.7187   -3.8955   42.5465 C   0  0  0  0  0  0  0  0  0  0  0  0
    9.4576   -0.8949   46.0327 N   0  0  0  0  0  0  0  0  0  0  0  0
    0.8625   -6.3901   45.2462 C   0  0  0  0  0  0  0  0  0  0  0  0
    7.6467   -2.5139   46.4892 C   0  0  0  0  0  0  0  0  0  0  0  0
   10.4908   -1.5336   45.8242 C   0  0  0  0  0  0  0  0  0  0  0  0
    0.3057   -4.9299   43.2909 C   0  0  0  0  0  0  0  0  0  0  0  0
   11.5916   -1.4291   46.7436 C   0  0  0  0  0  0  0  0  0  0  0  0
   10.5566   -2.3672   44.8649 O   0  0  0  0  0  0  0  0  0  0  0  0
   12.8421   -1.9355   46.2823 C   0  0  0  0  0  0  0  0  0  0  0  0
   13.4833   -2.8582   46.9841 C   0  0  0  0  0  0  0  0  0  0  0  0
   11.4002   -1.1447   48.0540 C   0  0  0  0  0  0  0  0  0  0  0  0
   10.2867   -0.4569   48.4999 O   0  0  0  0  0  0  0  0  0  0  0  0
   12.3327   -1.4798   48.9564 C   0  0  1  0  0  0  0  0  0  0  0  0
   14.7901   -3.3162   46.6439 C   0  0  0  0  0  0  0  0  0  0  0  0
   12.1651   -1.3050   50.3239 O   0  0  0  0  0  0  0  0  0  0  0  0
   15.6765   -2.5740   46.0979 C   0  0  0  0  0  0  0  0  0  0  0  0
    2.4608    0.2106   42.8512 C   0  0  0  0  0  0  0  0  0  0  0  0
   15.5213   -1.2590   45.7606 C   0  0  0  0  0  0  0  0  0  0  0  0
   14.5349   -0.8899   44.8574 C   0  0  0  0  0  0  0  0  0  0  0  0
   12.9775   -3.3460   48.2127 C   0  0  0  0  0  0  0  0  0  0  0  0
   14.7129   -0.1943   43.8652 C   0  0  0  0  0  0  0  0  0  0  0  0
   13.1163   -1.3789   45.0490 O   0  0  0  0  0  0  0  0  0  0  0  0
   12.7443   -2.7596   49.2688 C   0  0  0  0  0  0  0  0  0  0  0  0
   15.8145    0.5028   43.5830 C   0  0  0  0  0  0  0  0  0  0  0  0
   15.9344    1.4629   42.4540 O   0  0  0  0  0  0  0  0  0  0  0  0
   16.8047    0.2791   44.2836 C   0  0  0  0  0  0  0  0  0  0  0  0
   18.1264    0.9445   44.0834 O   0  0  0  0  0  0  0  0  0  0  0  0
   16.8299   -0.6620   45.3103 C   0  0  0  0  0  0  0  0  0  0  0  0
   15.4852    1.2542   41.3123 C   0  0  0  0  0  0  0  0  0  0  0  0
   12.8527   -3.2636   50.4072 O   0  0  0  0  0  0  0  0  0  0  0  0
  1  2  2  0
  2  3  1  0
  2  4  1  0
  3  5  1  0
  4  6  2  0
  5  7  1  0
  4  8  1  0
  8  9  2  0
  8 10  1  0
  3 11  1  0
 10 11  2  0
  6 12  1  0
  7 13  2  0
 11 14  1  0
 13 15  1  0
  9 16  1  0
 17  7  1  6
 14 17  1  0
 14 18  2  0
 18 19  1  0
 15 20  2  0
 17 20  1  0
 12 21  1  0
 19 22  1  0
  9 23  1  0
 12 23  2  0
 21 24  1  0
 19 25  2  0
 20 25  1  0
 24 26  1  0
 24 27  2  0
 26 28  1  0
 28 29  2  0
 26 30  2  0
 30 31  1  0
 30 32  1  0
 29 33  1  0
 32 34  1  1
 33 35  2  0
  5 36  1  1
 35 37  1  0
 37 38  2  0
 29 39  1  0
 38 40  1  0
 28 41  1  0
 38 41  1  0
 32 42  1  0
 39 42  1  0
 40 43  2  0
 43 44  1  0
 43 45  1  0
 45 46  1  0
 37 47  1  0
 45 47  2  0
 44 48  1  0
 42 49  2  0
M  END
$$$$
O14757_Pocket2Mol_idx-in-all-generaetd-987
     RDKit          3D

 30 34  0  0  0  0  0  0  0  0999 V2000
    1.5482   -0.3111   41.9233 C   0  0  0  0  0  0  0  0  0  0  0  0
    2.7284    0.2018   42.1525 N   0  0  0  0  0  0  0  0  0  0  0  0
    3.7893   -0.3016   42.7005 C   0  0  0  0  0  0  0  0  0  0  0  0
    3.3781   -1.7350   43.0000 C   0  0  0  0  0  0  0  0  0  0  0  0
    2.0339   -1.9619   42.6217 C   0  0  0  0  0  0  0  0  0  0  0  0
    5.0090    0.1219   42.9340 N   0  0  0  0  0  0  0  0  0  0  0  0
    4.2895   -2.4979   43.6707 C   0  0  0  0  0  0  0  0  0  0  0  0
    5.8391   -0.6675   43.6343 C   0  0  0  0  0  0  0  0  0  0  0  0
    6.9849   -0.2377   44.0028 N   0  0  0  0  0  0  0  0  0  0  0  0
    4.0426   -3.8794   44.0832 C   0  0  0  0  0  0  0  0  0  0  0  0
    7.6796   -0.8734   44.9326 C   0  0  0  0  0  0  0  0  0  0  0  0
    1.1064   -2.9576   42.4211 C   0  0  0  0  0  0  0  0  0  0  0  0
    5.5298   -1.9496   44.0315 C   0  0  0  0  0  0  0  0  0  0  0  0
    3.8954   -4.1817   45.4718 C   0  0  0  0  0  0  0  0  0  0  0  0
    0.6765   -3.5480   43.4006 C   0  0  0  0  0  0  0  0  0  0  0  0
    0.5804   -3.2191   41.1635 C   0  0  0  0  0  0  0  0  0  0  0  0
    2.8083   -4.8227   45.9203 N   0  0  0  0  0  0  0  0  0  0  0  0
   -0.1574   -4.5754   42.9329 N   0  0  0  0  0  0  0  0  0  0  0  0
    6.5271   -2.5531   44.9677 C   0  0  0  0  0  0  0  0  0  0  0  0
   -0.2272   -4.3703   41.5137 C   0  0  0  0  0  0  0  0  0  0  0  0
    7.5095   -2.0029   45.3993 C   0  0  0  0  0  0  0  0  0  0  0  0
    8.2550   -2.6982   46.3988 C   0  0  0  0  0  0  0  0  0  0  0  0
    4.4030   -3.3432   46.3770 O   0  0  0  0  0  0  0  0  0  0  0  0
    8.9249   -0.3105   45.3298 O   0  0  0  0  0  0  0  0  0  0  0  0
    8.2469   -4.0750   46.4982 C   0  0  0  0  0  0  0  0  0  0  0  0
    9.1605   -1.9818   47.2689 C   0  0  0  0  0  0  0  0  0  0  0  0
    9.8317   -2.6406   48.1547 C   0  0  0  0  0  0  0  0  0  0  0  0
    9.7715   -4.0522   48.3337 C   0  0  0  0  0  0  0  0  0  0  0  0
    2.2421   -5.9771   45.3533 C   0  0  0  0  0  0  0  0  0  0  0  0
    8.9371   -4.7252   47.5634 C   0  0  0  0  0  0  0  0  0  0  0  0
  1  2  1  0
  2  3  2  0
  3  4  1  0
  1  5  2  0
  4  5  1  0
  3  6  1  0
  4  7  2  0
  6  8  1  0
  8  9  1  0
  7 10  1  0
  9 11  1  0
  5 12  1  0
  7 13  1  0
  8 13  2  0
 10 14  1  0
 12 15  1  0
 12 16  2  0
 14 17  1  0
 15 18  1  0
 13 19  1  0
 16 20  1  0
 18 20  2  0
 11 21  1  0
 19 21  2  0
 21 22  1  0
 14 23  2  0
 11 24  2  0
 22 25  2  0
 22 26  1  0
 26 27  2  0
 27 28  1  0
 17 29  1  0
 25 30  1  0
 28 30  2  0
M  END
$$$$
O14757_Pocket2Mol_idx-in-all-generaetd-988
     RDKit          3D

 47 54  0  0  0  0  0  0  0  0999 V2000
    5.3420    0.2589   42.8836 O   0  0  0  0  0  0  0  0  0  0  0  0
    5.1627   -0.7554   43.4753 C   0  0  0  0  0  0  0  0  0  0  0  0
    4.0509   -1.4657   43.4177 N   0  0  0  0  0  0  0  0  0  0  0  0
    5.9969   -1.2317   44.6840 C   0  0  0  0  0  0  0  0  0  0  0  0
    2.9618   -1.1021   42.5918 C   0  0  1  0  0  0  0  0  0  0  0  0
    7.3392   -0.8596   44.8412 C   0  0  0  0  0  0  0  0  0  0  0  0
    1.9754   -2.0820   42.2741 C   0  0  0  0  0  0  0  0  0  0  0  0
    5.5910   -2.4282   45.3439 C   0  0  0  0  0  0  0  0  0  0  0  0
    6.5874   -2.9636   46.1581 C   0  0  0  0  0  0  0  0  0  0  0  0
    4.2763   -3.0680   45.0493 N   0  0  0  0  0  0  0  0  0  0  0  0
    3.6188   -2.5886   44.2024 C   0  0  0  0  0  0  0  0  0  0  0  0
    8.1921   -1.4071   45.7505 C   0  0  0  0  0  0  0  0  0  0  0  0
    1.0154   -1.8839   41.2980 C   0  0  0  0  0  0  0  0  0  0  0  0
    2.5720   -3.3564   43.9063 C   0  0  0  0  0  0  0  0  0  0  0  0
    0.2502   -2.8976   41.0751 C   0  0  0  0  0  0  0  0  0  0  0  0
    6.1761   -4.1775   47.0209 C   0  0  0  0  0  0  0  0  0  0  0  0
    1.7266   -3.1047   43.0115 C   0  0  2  0  0  0  0  0  0  0  0  0
    2.3696   -4.5367   44.7536 N   0  0  0  0  0  0  0  0  0  0  0  0
    1.2264   -5.2346   44.4693 C   0  0  0  0  0  0  0  0  0  0  0  0
    0.7187   -3.8955   42.5465 C   0  0  0  0  0  0  0  0  0  0  0  0
    9.4576   -0.8949   46.0327 N   0  0  0  0  0  0  0  0  0  0  0  0
    0.8625   -6.3901   45.2462 C   0  0  0  0  0  0  0  0  0  0  0  0
    7.6467   -2.5139   46.4892 C   0  0  0  0  0  0  0  0  0  0  0  0
   10.4908   -1.5336   45.8242 C   0  0  0  0  0  0  0  0  0  0  0  0
    0.3057   -4.9299   43.2909 C   0  0  0  0  0  0  0  0  0  0  0  0
   11.5916   -1.4291   46.7436 C   0  0  0  0  0  0  0  0  0  0  0  0
   10.5566   -2.3672   44.8649 O   0  0  0  0  0  0  0  0  0  0  0  0
   12.8421   -1.9355   46.2823 C   0  0  0  0  0  0  0  0  0  0  0  0
   13.4833   -2.8582   46.9841 C   0  0  0  0  0  0  0  0  0  0  0  0
   11.4002   -1.1447   48.0540 C   0  0  0  0  0  0  0  0  0  0  0  0
   10.2867   -0.4569   48.4999 O   0  0  0  0  0  0  0  0  0  0  0  0
   12.3327   -1.4798   48.9564 C   0  0  1  0  0  0  0  0  0  0  0  0
   14.7901   -3.3162   46.6439 C   0  0  0  0  0  0  0  0  0  0  0  0
   12.1651   -1.3050   50.3239 O   0  0  0  0  0  0  0  0  0  0  0  0
   15.6765   -2.5740   46.0979 C   0  0  0  0  0  0  0  0  0  0  0  0
    2.4608    0.2106   42.8512 C   0  0  0  0  0  0  0  0  0  0  0  0
   15.5213   -1.2590   45.7606 C   0  0  0  0  0  0  0  0  0  0  0  0
   14.5349   -0.8899   44.8574 C   0  0  0  0  0  0  0  0  0  0  0  0
   12.9775   -3.3460   48.2127 C   0  0  0  0  0  0  0  0  0  0  0  0
   14.7129   -0.1943   43.8652 C   0  0  0  0  0  0  0  0  0  0  0  0
   13.1163   -1.3789   45.0490 O   0  0  0  0  0  0  0  0  0  0  0  0
   12.7443   -2.7596   49.2688 C   0  0  0  0  0  0  0  0  0  0  0  0
   15.8145    0.5028   43.5830 C   0  0  0  0  0  0  0  0  0  0  0  0
   16.8671   -0.7734   45.2329 C   0  0  0  0  0  0  0  0  0  0  0  0
   18.0530   -1.0233   46.0295 O   0  0  0  0  0  0  0  0  0  0  0  0
   15.8973    1.4927   42.4564 O   0  0  0  0  0  0  0  0  0  0  0  0
   17.0245    0.2919   44.2992 C   0  0  0  0  0  0  0  0  0  0  0  0
  1  2  2  0
  2  3  1  0
  2  4  1  0
  3  5  1  0
  4  6  2  0
  5  7  1  0
  4  8  1  0
  8  9  2  0
  8 10  1  0
  3 11  1  0
 10 11  2  0
  6 12  1  0
  7 13  2  0
 11 14  1  0
 13 15  1  0
  9 16  1  0
 17  7  1  6
 14 17  1  0
 14 18  2  0
 18 19  1  0
 15 20  2  0
 17 20  1  0
 12 21  1  0
 19 22  1  0
  9 23  1  0
 12 23  2  0
 21 24  1  0
 19 25  2  0
 20 25  1  0
 24 26  1  0
 24 27  2  0
 26 28  1  0
 28 29  2  0
 26 30  2  0
 30 31  1  0
 30 32  1  0
 29 33  1  0
 32 34  1  1
 33 35  2  0
  5 36  1  1
 35 37  1  0
 37 38  2  0
 29 39  1  0
 38 40  1  0
 28 41  1  0
 38 41  1  0
 32 42  1  0
 39 42  1  0
 40 43  2  0
 37 44  1  0
 44 45  1  0
 43 46  1  0
 43 47  1  0
 44 47  2  0
M  END
$$$$
O14757_Pocket2Mol_idx-in-all-generaetd-989
     RDKit          3D

 30 35  0  0  0  0  0  0  0  0999 V2000
    4.5156    0.0550   42.9895 N   0  0  0  0  0  0  0  0  0  0  0  0
    5.0618   -0.8645   43.5295 C   0  0  0  0  0  0  0  0  0  0  0  0
    4.4350   -2.0604   43.7783 C   0  0  0  0  0  0  0  0  0  0  0  0
    4.9987   -3.0994   44.5839 C   0  0  0  0  0  0  0  0  0  0  0  0
    3.2714   -1.8664   43.0632 C   0  0  0  0  0  0  0  0  0  0  0  0
    6.4064   -0.5942   44.3204 N   0  0  0  0  0  0  0  0  0  0  0  0
    4.3422   -4.3256   44.7203 C   0  0  0  0  0  0  0  0  0  0  0  0
    2.1845   -2.6668   42.8270 N   0  0  0  0  0  0  0  0  0  0  0  0
    3.3305   -0.5395   42.5465 N   0  0  0  0  0  0  0  0  0  0  0  0
    1.9502   -3.8972   43.4076 C   0  0  0  0  0  0  0  0  0  0  0  0
    2.7156   -4.1184   44.6954 N   0  0  0  0  0  0  0  0  0  0  0  0
    6.8581   -1.5862   45.1101 C   0  0  0  0  0  0  0  0  0  0  0  0
    6.1801   -2.8430   45.2383 C   0  0  0  0  0  0  0  0  0  0  0  0
    2.1454   -5.1901   45.5771 C   0  0  0  0  0  0  0  0  0  0  0  0
    8.0137   -1.3946   45.8526 C   0  0  0  0  0  0  0  0  0  0  0  0
    0.9733   -4.5725   43.2066 O   0  0  0  0  0  0  0  0  0  0  0  0
    2.2437    0.0035   41.8733 C   0  0  0  0  0  0  0  0  0  0  0  0
    1.3210   -2.2077   41.7009 C   0  0  0  0  0  0  0  0  0  0  0  0
    8.6047   -2.2876   46.6923 C   0  0  0  0  0  0  0  0  0  0  0  0
    7.9141   -3.5157   46.8869 C   0  0  0  0  0  0  0  0  0  0  0  0
    1.0501   -0.8658   41.6612 C   0  0  0  0  0  0  0  0  0  0  0  0
    6.7473   -3.8283   46.2372 C   0  0  0  0  0  0  0  0  0  0  0  0
    1.0568   -4.5170   46.3522 C   0  0  0  0  0  0  0  0  0  0  0  0
    9.8008   -2.0643   47.3760 C   0  0  0  0  0  0  0  0  0  0  0  0
   10.9776   -2.0111   46.7028 N   0  0  0  0  0  0  0  0  0  0  0  0
   12.1432   -1.7842   47.1175 C   0  0  0  0  0  0  0  0  0  0  0  0
   10.8292   -1.7400   45.2065 C   0  0  0  0  0  0  0  0  0  0  0  0
   12.4868   -1.9192   48.3115 O   0  0  0  0  0  0  0  0  0  0  0  0
   13.1919   -1.9533   46.0664 C   0  0  0  0  0  0  0  0  0  0  0  0
   12.4059   -1.8184   44.8332 C   0  0  0  0  0  0  0  0  0  0  0  0
  1  2  2  0
  2  3  1  0
  3  4  1  0
  3  5  2  0
  2  6  1  0
  4  7  1  0
  5  8  1  0
  1  9  1  0
  5  9  1  0
  8 10  1  0
  7 11  1  0
 10 11  1  0
  6 12  2  0
  4 13  2  0
 12 13  1  0
 11 14  1  0
 12 15  1  0
 10 16  2  0
  9 17  1  0
  8 18  1  0
 15 19  2  0
 19 20  1  0
 17 21  1  0
 18 21  1  0
 13 22  1  0
 20 22  2  0
 14 23  1  0
 19 24  1  0
 24 25  1  0
 25 26  1  0
 25 27  1  0
 26 28  2  0
 26 29  1  0
 27 30  1  0
 29 30  1  0
M  END
$$$$
O14757_Pocket2Mol_idx-in-all-generaetd-990
     RDKit          3D

 40 46  0  0  0  0  0  0  0  0999 V2000
    1.5482   -0.3111   41.9233 C   0  0  0  0  0  0  0  0  0  0  0  0
    2.7284    0.2018   42.1525 N   0  0  0  0  0  0  0  0  0  0  0  0
    3.7893   -0.3016   42.7005 C   0  0  0  0  0  0  0  0  0  0  0  0
    3.3781   -1.7350   43.0000 C   0  0  0  0  0  0  0  0  0  0  0  0
    2.0339   -1.9619   42.6217 C   0  0  0  0  0  0  0  0  0  0  0  0
    4.1166   -2.4997   43.8458 C   0  0  0  0  0  0  0  0  0  0  0  0
    1.1731   -3.0051   42.5773 C   0  0  0  0  0  0  0  0  0  0  0  0
    0.4701   -3.2344   41.4901 C   0  0  0  0  0  0  0  0  0  0  0  0
    5.3799   -1.7814   44.2691 C   0  0  0  0  0  0  0  0  0  0  0  0
    5.0159   -0.0180   43.1201 N   0  0  0  0  0  0  0  0  0  0  0  0
    5.7693   -0.6937   43.8418 C   0  0  0  0  0  0  0  0  0  0  0  0
    0.8078   -3.6166   43.6782 C   0  0  0  0  0  0  0  0  0  0  0  0
    0.0663   -4.7011   43.7415 N   0  0  0  0  0  0  0  0  0  0  0  0
    6.2223   -2.6843   45.1565 C   0  0  0  0  0  0  0  0  0  0  0  0
    6.9599   -0.2351   44.2608 N   0  0  0  0  0  0  0  0  0  0  0  0
    5.9065   -3.9037   45.7499 N   0  0  0  0  0  0  0  0  0  0  0  0
   -0.5459   -5.1185   42.5870 C   0  0  0  0  0  0  0  0  0  0  0  0
    5.7480   -4.0340   46.9810 C   0  0  0  0  0  0  0  0  0  0  0  0
    7.4448   -1.8511   45.4198 C   0  0  0  0  0  0  0  0  0  0  0  0
    7.7572   -0.7827   45.0128 C   0  0  0  0  0  0  0  0  0  0  0  0
    8.4076   -2.7217   46.4541 C   0  0  0  0  0  0  0  0  0  0  0  0
    9.3167   -2.0988   47.1049 N   0  0  0  0  0  0  0  0  0  0  0  0
   -0.4719   -4.3893   41.5406 C   0  0  0  0  0  0  0  0  0  0  0  0
    8.3667   -4.0284   46.5743 N   0  0  0  0  0  0  0  0  0  0  0  0
    9.5309   -4.3147   47.3094 C   0  0  0  0  0  0  0  0  0  0  0  0
    5.3113   -3.3789   47.8005 O   0  0  0  0  0  0  0  0  0  0  0  0
    9.9022   -5.6301   47.7684 C   0  0  0  0  0  0  0  0  0  0  0  0
    5.4470   -5.5868   47.2096 C   0  0  0  0  0  0  0  0  0  0  0  0
   11.2254   -5.8679   48.0402 C   0  0  0  0  0  0  0  0  0  0  0  0
    8.9736   -6.6532   47.8548 C   0  0  0  0  0  0  0  0  0  0  0  0
   10.0616   -3.0670   47.6360 C   0  0  0  0  0  0  0  0  0  0  0  0
    7.5566   -6.3564   47.5477 N   0  0  0  0  0  0  0  0  0  0  0  0
    6.4157   -6.1721   48.0913 C   0  0  0  0  0  0  0  0  0  0  0  0
    9.3646   -7.8782   48.1671 C   0  0  0  0  0  0  0  0  0  0  0  0
   12.3073   -4.8526   47.9155 O   0  0  0  0  0  0  0  0  0  0  0  0
    8.3867   -8.9995   48.3228 O   0  0  0  0  0  0  0  0  0  0  0  0
   11.6317   -7.0760   48.3359 C   0  0  0  0  0  0  0  0  0  0  0  0
   12.8193   -4.6830   46.6638 C   0  0  0  0  0  0  0  0  0  0  0  0
    8.2880   -9.5895   49.4470 C   0  0  0  0  0  0  0  0  0  0  0  0
   10.7288   -8.1580   48.5005 C   0  0  0  0  0  0  0  0  0  0  0  0
  1  2  1  0
  2  3  2  0
  3  4  1  0
  1  5  2  0
  4  5  1  0
  4  6  2  0
  5  7  1  0
  7  8  2  0
  6  9  1  0
  3 10  1  0
  9 11  2  0
 10 11  1  0
  7 12  1  0
 12 13  2  0
  9 14  1  0
 11 15  1  0
 14 16  1  0
 13 17  1  0
 16 18  1  0
 14 19  2  0
 15 20  2  0
 19 20  1  0
 19 21  1  0
 21 22  2  0
  8 23  1  0
 17 23  2  0
 21 24  1  0
 24 25  1  0
 18 26  2  0
 25 27  1  0
 18 28  1  0
 27 29  2  0
 27 30  1  0
 22 31  1  0
 25 31  2  0
 30 32  1  0
 28 33  1  0
 32 33  1  0
 30 34  2  0
 29 35  1  0
 34 36  1  0
 29 37  1  0
 35 38  1  0
 36 39  1  0
 34 40  1  0
 37 40  2  0
M  END
$$$$
O14757_Pocket2Mol_idx-in-all-generaetd-991
     RDKit          3D

 24 26  0  0  0  0  0  0  0  0999 V2000
    5.3420    0.2589   42.8836 N   0  0  0  0  0  0  0  0  0  0  0  0
    5.6740   -0.8311   43.5645 C   0  0  0  0  0  0  0  0  0  0  0  0
    3.9899   -0.0458   42.5141 N   0  0  0  0  0  0  0  0  0  0  0  0
    4.6606   -1.7163   43.6337 C   0  0  0  0  0  0  0  0  0  0  0  0
    3.6244   -1.2025   42.8928 C   0  0  0  0  0  0  0  0  0  0  0  0
    2.3780   -1.7713   42.6359 C   0  0  0  0  0  0  0  0  0  0  0  0
    4.5721   -3.0267   44.2590 C   0  0  0  0  0  0  0  0  0  0  0  0
    1.3110   -1.1954   41.9273 C   0  0  0  0  0  0  0  0  0  0  0  0
    2.2543   -3.0870   43.2441 C   0  0  0  0  0  0  0  0  0  0  0  0
    3.1715   -3.6328   44.0301 C   0  0  0  0  0  0  0  0  0  0  0  0
    6.9681   -1.0792   44.3218 C   0  0  0  0  0  0  0  0  0  0  0  0
    0.2874   -1.9049   41.5221 C   0  0  0  0  0  0  0  0  0  0  0  0
    7.0391   -1.0722   45.7447 C   0  0  0  0  0  0  0  0  0  0  0  0
    1.0976   -3.7968   42.8954 C   0  0  0  0  0  0  0  0  0  0  0  0
    8.2678   -0.6661   46.3412 N   0  0  0  0  0  0  0  0  0  0  0  0
    0.1187   -3.1920   42.0706 C   0  0  0  0  0  0  0  0  0  0  0  0
    6.1347   -1.6031   46.4802 O   0  0  0  0  0  0  0  0  0  0  0  0
    9.4748   -0.8352   45.7240 C   0  0  0  0  0  0  0  0  0  0  0  0
   10.4351   -1.4234   46.7144 C   0  0  1  0  0  0  0  0  0  0  0  0
    9.9708   -2.5113   47.3461 O   0  0  0  0  0  0  0  0  0  0  0  0
   11.7087   -1.8480   46.0447 C   0  0  0  0  0  0  0  0  0  0  0  0
   12.7535   -1.4164   46.1993 O   0  0  0  0  0  0  0  0  0  0  0  0
   11.7506   -2.7641   44.9856 O   0  0  0  0  0  0  0  0  0  0  0  0
   10.0678   -2.7388   48.7068 C   0  0  0  0  0  0  0  0  0  0  0  0
  1  2  2  0
  1  3  1  0
  2  4  1  0
  3  5  1  0
  4  5  2  0
  5  6  1  0
  4  7  1  0
  6  8  2  0
  6  9  1  0
  7 10  2  0
  9 10  1  0
  2 11  1  0
  8 12  1  0
 11 13  1  0
  9 14  2  0
 13 15  1  0
 12 16  2  0
 14 16  1  0
 13 17  2  0
 15 18  1  0
 19 18  1  6
 19 20  1  0
 19 21  1  0
 21 22  1  0
 21 23  2  0
 20 24  1  0
M  END
$$$$
O14757_Pocket2Mol_idx-in-all-generaetd-992
     RDKit          3D

 46 54  0  0  0  0  0  0  0  0999 V2000
    1.5482   -0.3111   41.9233 C   0  0  0  0  0  0  0  0  0  0  0  0
    2.7284    0.2018   42.1525 N   0  0  0  0  0  0  0  0  0  0  0  0
    3.7893   -0.3016   42.7005 C   0  0  0  0  0  0  0  0  0  0  0  0
    3.3781   -1.7350   43.0000 C   0  0  0  0  0  0  0  0  0  0  0  0
    2.0339   -1.9619   42.6217 C   0  0  0  0  0  0  0  0  0  0  0  0
    5.0090    0.1219   42.9340 N   0  0  0  0  0  0  0  0  0  0  0  0
    4.2895   -2.4979   43.6707 C   0  0  0  0  0  0  0  0  0  0  0  0
    5.8391   -0.6675   43.6343 C   0  0  0  0  0  0  0  0  0  0  0  0
    6.9849   -0.2377   44.0028 N   0  0  0  0  0  0  0  0  0  0  0  0
    4.0426   -3.8794   44.0832 C   0  0  0  0  0  0  0  0  0  0  0  0
    7.6796   -0.8734   44.9326 C   0  0  0  0  0  0  0  0  0  0  0  0
    1.1064   -2.9576   42.4211 C   0  0  0  0  0  0  0  0  0  0  0  0
    5.5298   -1.9496   44.0315 C   0  0  0  0  0  0  0  0  0  0  0  0
    3.8954   -4.1817   45.4718 C   0  0  0  0  0  0  0  0  0  0  0  0
    0.6765   -3.5480   43.4006 C   0  0  1  0  0  0  0  0  0  0  0  0
    0.5804   -3.2191   41.1635 C   0  0  0  0  0  0  0  0  0  0  0  0
    2.8083   -4.8227   45.9203 N   0  0  0  0  0  0  0  0  0  0  0  0
   -0.1574   -4.5754   42.9329 N   0  0  0  0  0  0  0  0  0  0  0  0
    6.5271   -2.5531   44.9677 C   0  0  0  0  0  0  0  0  0  0  0  0
   -0.2272   -4.3703   41.5137 C   0  0  0  0  0  0  0  0  0  0  0  0
    7.5095   -2.0029   45.3993 C   0  0  0  0  0  0  0  0  0  0  0  0
    8.2550   -2.6982   46.3988 C   0  0  1  0  0  0  0  0  0  0  0  0
    8.8975   -0.3029   45.3267 O   0  0  0  0  0  0  0  0  0  0  0  0
    4.8299   -4.4637   46.4212 C   0  0  0  0  0  0  0  0  0  0  0  0
    4.2707   -4.9248   47.6295 N   0  0  0  0  0  0  0  0  0  0  0  0
    3.2045   -5.2092   47.1521 C   0  0  0  0  0  0  0  0  0  0  0  0
    1.4482   -4.6186   45.4134 C   0  0  0  0  0  0  0  0  0  0  0  0
    1.3256   -3.7660   44.6394 N   0  0  0  0  0  0  0  0  0  0  0  0
    9.2816   -2.1418   47.1273 N   0  0  0  0  0  0  0  0  0  0  0  0
   10.0629   -3.1324   47.8508 C   0  0  0  0  0  0  0  0  0  0  0  0
    6.3491   -3.8960   46.0844 C   0  0  2  0  0  0  0  0  0  0  0  0
    7.4349   -3.5889   46.9054 C   0  0  0  0  0  0  0  0  0  0  0  0
   10.3145   -2.7271   49.0818 O   0  0  0  0  0  0  0  0  0  0  0  0
    0.6213   -5.4445   45.7455 O   0  0  0  0  0  0  0  0  0  0  0  0
   11.0262   -3.8136   47.1050 C   0  0  0  0  0  0  0  0  0  0  0  0
   12.1704   -3.3854   46.7547 C   0  0  0  0  0  0  0  0  0  0  0  0
   13.1080   -4.1111   46.0053 C   0  0  0  0  0  0  0  0  0  0  0  0
   14.3489   -3.5966   45.7888 C   0  0  1  0  0  0  0  0  0  0  0  0
   12.7430   -5.2725   45.5056 C   0  0  0  0  0  0  0  0  0  0  0  0
   14.6935   -2.2816   45.3353 C   0  0  0  0  0  0  0  0  0  0  0  0
   10.5583   -5.1175   46.7236 C   0  0  0  0  0  0  0  0  0  0  0  0
   15.1396   -3.9030   46.8732 O   0  0  0  0  0  0  0  0  0  0  0  0
    9.3183   -5.6747   46.9390 O   0  0  0  0  0  0  0  0  0  0  0  0
   11.3417   -5.8780   45.7667 C   0  0  0  0  0  0  0  0  0  0  0  0
   13.6917   -1.5118   45.2296 O   0  0  0  0  0  0  0  0  0  0  0  0
   15.8293   -2.0184   44.9544 O   0  0  0  0  0  0  0  0  0  0  0  0
  1  2  1  0
  2  3  2  0
  3  4  1  0
  1  5  2  0
  4  5  1  0
  3  6  1  0
  4  7  2  0
  6  8  1  0
  8  9  1  0
  7 10  1  0
  9 11  1  0
  5 12  1  0
  7 13  1  0
  8 13  2  0
 10 14  1  0
 12 15  1  0
 12 16  2  0
 14 17  1  0
 15 18  1  0
 13 19  1  0
 16 20  1  0
 18 20  2  0
 11 21  1  0
 19 21  2  0
 21 22  1  0
 11 23  2  0
 14 24  2  0
 24 25  1  0
 17 26  1  0
 25 26  2  0
 17 27  1  0
 15 28  1  6
 27 28  1  0
 22 29  1  1
 29 30  1  0
 19 31  1  0
 24 31  1  0
 22 32  1  0
 31 32  1  1
 30 33  2  0
 27 34  2  0
 30 35  1  0
 35 36  2  0
 36 37  1  0
 37 38  1  0
 37 39  2  0
 38 40  1  0
 35 41  1  0
 38 42  1  1
 41 43  1  0
 39 44  1  0
 41 44  2  0
 40 45  2  0
 40 46  1  0
M  END
$$$$
O14757_Pocket2Mol_idx-in-all-generaetd-993
     RDKit          3D

 32 35  0  0  0  0  0  0  0  0999 V2000
    3.7044    0.1389   42.5158 N   0  0  0  0  0  0  0  0  0  0  0  0
    3.0206   -1.0018   42.4929 C   0  0  0  0  0  0  0  0  0  0  0  0
    3.4791   -2.0817   43.2077 C   0  0  0  0  0  0  0  0  0  0  0  0
    4.8540    0.3862   43.0582 N   0  0  0  0  0  0  0  0  0  0  0  0
    5.1377   -0.9552   43.7144 C   0  0  0  0  0  0  0  0  0  0  0  0
    1.5846   -1.0753   41.7644 C   0  0  0  0  0  0  0  0  0  0  0  0
    4.6026   -2.0358   43.8129 C   0  0  0  0  0  0  0  0  0  0  0  0
    5.1584   -3.1511   44.6069 C   0  0  0  0  0  0  0  0  0  0  0  0
    6.6094   -0.7911   44.3696 N   0  0  0  0  0  0  0  0  0  0  0  0
    4.4744   -4.3270   44.8472 C   0  0  0  0  0  0  0  0  0  0  0  0
    6.9275   -1.8713   45.2437 C   0  0  0  0  0  0  0  0  0  0  0  0
    8.2702   -1.7750   45.8768 C   0  0  0  0  0  0  0  0  0  0  0  0
    0.9365   -0.0867   41.7346 O   0  0  0  0  0  0  0  0  0  0  0  0
    6.2322   -3.0484   45.3118 C   0  0  0  0  0  0  0  0  0  0  0  0
    6.7747   -4.0433   46.1202 N   0  0  0  0  0  0  0  0  0  0  0  0
    1.2161   -2.2739   41.2518 N   0  0  0  0  0  0  0  0  0  0  0  0
    9.0373   -0.5649   45.9132 O   0  0  0  0  0  0  0  0  0  0  0  0
    3.8907   -5.0906   43.9511 O   0  0  0  0  0  0  0  0  0  0  0  0
    4.3454   -4.8388   46.1621 N   0  0  0  0  0  0  0  0  0  0  0  0
    3.4531   -5.8952   46.4159 C   0  0  0  0  0  0  0  0  0  0  0  0
    8.6904   -2.8983   46.6073 N   0  0  0  0  0  0  0  0  0  0  0  0
    7.9257   -3.9393   46.7384 C   0  0  0  0  0  0  0  0  0  0  0  0
    8.4765   -4.8975   47.5307 O   0  0  0  0  0  0  0  0  0  0  0  0
   10.0100   -2.6771   47.3464 C   0  0  0  0  0  0  0  0  0  0  0  0
   10.0326   -1.8380   48.3764 C   0  0  0  0  0  0  0  0  0  0  0  0
   11.1123   -3.0851   46.6870 C   0  0  0  0  0  0  0  0  0  0  0  0
   11.1072   -3.8213   45.4597 C   0  0  0  0  0  0  0  0  0  0  0  0
   11.0296   -5.0092   45.4509 C   0  0  0  0  0  0  0  0  0  0  0  0
   12.3326   -2.5048   47.0028 C   0  0  0  0  0  0  0  0  0  0  0  0
   11.2651   -1.5297   48.9347 C   0  0  0  0  0  0  0  0  0  0  0  0
   11.1419   -5.9062   44.4986 C   0  0  0  0  0  0  0  0  0  0  0  0
   12.4036   -1.8560   48.3055 C   0  0  0  0  0  0  0  0  0  0  0  0
  1  2  2  0
  2  3  1  0
  1  4  1  0
  4  5  2  0
  2  6  1  0
  3  7  2  0
  5  7  1  0
  7  8  1  0
  5  9  1  0
  8 10  1  0
  9 11  2  0
 11 12  1  0
  6 13  2  0
  8 14  2  0
 11 14  1  0
 14 15  1  0
  6 16  1  0
 12 17  2  0
 10 18  2  0
 10 19  1  0
 19 20  1  0
 12 21  1  0
 15 22  1  0
 21 22  1  0
 22 23  2  0
 21 24  1  0
 24 25  2  0
 24 26  1  0
 26 27  1  0
 27 28  2  3
 26 29  2  0
 25 30  1  0
 28 31  1  0
 29 32  1  0
 30 32  2  0
M  END
$$$$
O14757_Pocket2Mol_idx-in-all-generaetd-994
     RDKit          3D

 49 58  0  0  0  0  0  0  0  0999 V2000
    1.5482   -0.3111   41.9233 C   0  0  0  0  0  0  0  0  0  0  0  0
    2.7284    0.2018   42.1525 N   0  0  0  0  0  0  0  0  0  0  0  0
    3.7893   -0.3016   42.7005 C   0  0  0  0  0  0  0  0  0  0  0  0
    3.3781   -1.7350   43.0000 C   0  0  0  0  0  0  0  0  0  0  0  0
    2.0339   -1.9619   42.6217 C   0  0  0  0  0  0  0  0  0  0  0  0
    5.0090    0.1219   42.9340 N   0  0  0  0  0  0  0  0  0  0  0  0
    4.2895   -2.4979   43.6707 C   0  0  0  0  0  0  0  0  0  0  0  0
    5.8391   -0.6675   43.6343 C   0  0  0  0  0  0  0  0  0  0  0  0
    6.9849   -0.2377   44.0028 N   0  0  0  0  0  0  0  0  0  0  0  0
    4.0426   -3.8794   44.0832 C   0  0  0  0  0  0  0  0  0  0  0  0
    7.6796   -0.8734   44.9326 C   0  0  0  0  0  0  0  0  0  0  0  0
    1.1064   -2.9576   42.4211 C   0  0  0  0  0  0  0  0  0  0  0  0
    5.5298   -1.9496   44.0315 C   0  0  0  0  0  0  0  0  0  0  0  0
    3.8954   -4.1817   45.4718 C   0  0  0  0  0  0  0  0  0  0  0  0
    0.6765   -3.5480   43.4006 C   0  0  1  0  0  0  0  0  0  0  0  0
    0.5804   -3.2191   41.1635 C   0  0  0  0  0  0  0  0  0  0  0  0
    2.8083   -4.8227   45.9203 N   0  0  0  0  0  0  0  0  0  0  0  0
   -0.1574   -4.5754   42.9329 N   0  0  0  0  0  0  0  0  0  0  0  0
    6.5271   -2.5531   44.9677 C   0  0  0  0  0  0  0  0  0  0  0  0
   -0.2272   -4.3703   41.5137 C   0  0  0  0  0  0  0  0  0  0  0  0
    7.5095   -2.0029   45.3993 C   0  0  0  0  0  0  0  0  0  0  0  0
    8.2550   -2.6982   46.3988 C   0  0  0  0  0  0  0  0  0  0  0  0
    8.8975   -0.3029   45.3267 O   0  0  0  0  0  0  0  0  0  0  0  0
    4.8299   -4.4637   46.4212 C   0  0  0  0  0  0  0  0  0  0  0  0
    4.2707   -4.9248   47.6295 N   0  0  0  0  0  0  0  0  0  0  0  0
    3.2045   -5.2092   47.1521 C   0  0  0  0  0  0  0  0  0  0  0  0
    1.4482   -4.6186   45.4134 C   0  0  1  0  0  0  0  0  0  0  0  0
    1.2398   -3.5043   44.6236 O   0  0  0  0  0  0  0  0  0  0  0  0
    7.8521   -3.9584   46.8773 C   0  0  0  0  0  0  0  0  0  0  0  0
    8.4079   -4.7553   47.7407 C   0  0  0  0  0  0  0  0  0  0  0  0
    5.9516   -3.8110   45.9146 C   0  0  0  0  0  0  0  0  0  0  0  0
    6.6436   -4.3892   46.6649 C   0  0  0  0  0  0  0  0  0  0  0  0
    9.5111   -5.5246   47.2994 O   0  0  0  0  0  0  0  0  0  0  0  0
   10.6238   -5.0197   46.8534 C   0  0  0  0  0  0  0  0  0  0  0  0
   11.5866   -4.7361   47.6189 C   0  0  0  0  0  0  0  0  0  0  0  0
    1.2153   -5.7944   44.5753 C   0  0  0  0  0  0  0  0  0  0  0  0
   10.7023   -4.6532   45.4361 C   0  0  0  0  0  0  0  0  0  0  0  0
   12.8078   -4.2193   47.0828 C   0  0  0  0  0  0  0  0  0  0  0  0
   11.7380   -4.2754   44.9534 C   0  0  0  0  0  0  0  0  0  0  0  0
   12.8684   -3.9910   45.7319 C   0  0  0  0  0  0  0  0  0  0  0  0
   14.2116   -3.3329   45.2244 C   0  0  0  0  0  0  0  0  0  0  0  0
   14.0022   -2.1177   44.7208 C   0  0  0  0  0  0  0  0  0  0  0  0
   15.0837   -1.5164   44.2726 C   0  0  0  0  0  0  0  0  0  0  0  0
   15.3109   -3.8707   45.4449 C   0  0  0  0  0  0  0  0  0  0  0  0
   15.5305   -5.1460   46.0716 O   0  0  0  0  0  0  0  0  0  0  0  0
   14.9448   -0.1315   43.6082 C   0  0  0  0  0  0  0  0  0  0  0  0
   16.4497   -3.2044   45.0167 C   0  0  0  0  0  0  0  0  0  0  0  0
   17.7864   -3.8010   45.1663 O   0  0  0  0  0  0  0  0  0  0  0  0
   16.3758   -1.9877   44.4122 C   0  0  0  0  0  0  0  0  0  0  0  0
  1  2  1  0
  2  3  2  0
  3  4  1  0
  1  5  2  0
  4  5  1  0
  3  6  1  0
  4  7  2  0
  6  8  1  0
  8  9  1  0
  7 10  1  0
  9 11  1  0
  5 12  1  0
  7 13  1  0
  8 13  2  0
 10 14  1  0
 12 15  1  0
 12 16  2  0
 14 17  1  0
 15 18  1  0
 13 19  1  0
 16 20  1  0
 18 20  2  0
 11 21  1  0
 19 21  2  0
 21 22  1  0
 11 23  2  0
 14 24  2  0
 24 25  1  0
 17 26  1  0
 25 26  2  0
 17 27  1  0
 15 28  1  6
 27 28  1  0
 22 29  2  0
 29 30  1  0
 19 31  1  0
 24 31  1  0
 29 32  1  0
 31 32  2  0
 30 33  1  0
 33 34  1  0
 34 35  2  0
 27 36  1  6
 34 37  1  0
 35 38  1  0
 37 39  2  0
 38 40  2  0
 39 40  1  0
 40 41  1  0
 41 42  2  0
 42 43  1  0
 41 44  1  0
 44 45  1  0
 43 46  1  0
 44 47  2  0
 47 48  1  0
 43 49  2  0
 47 49  1  0
M  END
$$$$
O14757_Pocket2Mol_idx-in-all-generaetd-995
     RDKit          3D

 31 36  0  0  0  0  0  0  0  0999 V2000
    4.5156    0.0550   42.9895 N   0  0  0  0  0  0  0  0  0  0  0  0
    5.0618   -0.8645   43.5295 C   0  0  0  0  0  0  0  0  0  0  0  0
    4.4350   -2.0604   43.7783 C   0  0  0  0  0  0  0  0  0  0  0  0
    4.9987   -3.0994   44.5839 C   0  0  0  0  0  0  0  0  0  0  0  0
    3.2714   -1.8664   43.0632 C   0  0  0  0  0  0  0  0  0  0  0  0
    6.4064   -0.5942   44.3204 N   0  0  0  0  0  0  0  0  0  0  0  0
    4.3422   -4.3256   44.7203 C   0  0  0  0  0  0  0  0  0  0  0  0
    2.1845   -2.6668   42.8270 N   0  0  0  0  0  0  0  0  0  0  0  0
    3.3305   -0.5395   42.5465 N   0  0  0  0  0  0  0  0  0  0  0  0
    1.9502   -3.8972   43.4076 C   0  0  0  0  0  0  0  0  0  0  0  0
    2.7156   -4.1184   44.6954 N   0  0  0  0  0  0  0  0  0  0  0  0
    6.8581   -1.5862   45.1101 C   0  0  0  0  0  0  0  0  0  0  0  0
    6.1801   -2.8430   45.2383 C   0  0  0  0  0  0  0  0  0  0  0  0
    2.1454   -5.1901   45.5771 C   0  0  0  0  0  0  0  0  0  0  0  0
    8.0137   -1.3946   45.8526 C   0  0  0  0  0  0  0  0  0  0  0  0
    0.9733   -4.5725   43.2066 O   0  0  0  0  0  0  0  0  0  0  0  0
    2.2437    0.0035   41.8733 C   0  0  0  0  0  0  0  0  0  0  0  0
    1.3210   -2.2077   41.7009 C   0  0  0  0  0  0  0  0  0  0  0  0
    8.6047   -2.2876   46.6923 C   0  0  0  0  0  0  0  0  0  0  0  0
    7.9141   -3.5157   46.8869 C   0  0  0  0  0  0  0  0  0  0  0  0
    1.0501   -0.8658   41.6612 C   0  0  0  0  0  0  0  0  0  0  0  0
    6.7278   -3.7718   46.2525 C   0  0  0  0  0  0  0  0  0  0  0  0
    9.8280   -2.0492   47.3361 C   0  0  0  0  0  0  0  0  0  0  0  0
    9.8262   -1.5735   48.5432 C   0  0  0  0  0  0  0  0  0  0  0  0
   11.0745   -2.0905   46.6735 C   0  0  0  0  0  0  0  0  0  0  0  0
   11.1189   -2.5101   45.2315 C   0  0  0  0  0  0  0  0  0  0  0  0
   12.2489   -1.7755   47.2629 C   0  0  0  0  0  0  0  0  0  0  0  0
   11.2018   -3.6539   44.9133 O   0  0  0  0  0  0  0  0  0  0  0  0
   11.2916   -1.6083   44.2949 O   0  0  0  0  0  0  0  0  0  0  0  0
   12.2708   -1.4340   48.6019 C   0  0  0  0  0  0  0  0  0  0  0  0
   10.9564   -1.3276   49.2421 C   0  0  0  0  0  0  0  0  0  0  0  0
  1  2  2  0
  2  3  1  0
  3  4  1  0
  3  5  2  0
  2  6  1  0
  4  7  1  0
  5  8  1  0
  1  9  1  0
  5  9  1  0
  8 10  1  0
  7 11  1  0
 10 11  1  0
  6 12  2  0
  4 13  2  0
 12 13  1  0
 11 14  1  0
 12 15  1  0
 10 16  2  0
  9 17  1  0
  8 18  1  0
 15 19  2  0
 19 20  1  0
 17 21  1  0
 18 21  1  0
 13 22  1  0
 20 22  2  0
 19 23  1  0
 23 24  2  0
 23 25  1  0
 25 26  1  0
 25 27  2  0
 26 28  1  0
 26 29  2  0
 27 30  1  0
 24 31  1  0
 30 31  2  0
M  END
$$$$
O14757_Pocket2Mol_idx-in-all-generaetd-996
     RDKit          3D

 41 48  0  0  0  0  0  0  0  0999 V2000
    1.5482   -0.3111   41.9233 C   0  0  0  0  0  0  0  0  0  0  0  0
    2.7284    0.2018   42.1525 N   0  0  0  0  0  0  0  0  0  0  0  0
    3.7893   -0.3016   42.7005 C   0  0  0  0  0  0  0  0  0  0  0  0
    3.3781   -1.7350   43.0000 C   0  0  0  0  0  0  0  0  0  0  0  0
    2.0339   -1.9619   42.6217 C   0  0  0  0  0  0  0  0  0  0  0  0
    4.1166   -2.4997   43.8458 C   0  0  0  0  0  0  0  0  0  0  0  0
    1.1731   -3.0051   42.5773 C   0  0  0  0  0  0  0  0  0  0  0  0
    0.4701   -3.2344   41.4901 C   0  0  0  0  0  0  0  0  0  0  0  0
    5.3799   -1.7814   44.2691 C   0  0  0  0  0  0  0  0  0  0  0  0
    5.0159   -0.0180   43.1201 N   0  0  0  0  0  0  0  0  0  0  0  0
    5.7693   -0.6937   43.8418 C   0  0  0  0  0  0  0  0  0  0  0  0
    0.8078   -3.6166   43.6782 C   0  0  0  0  0  0  0  0  0  0  0  0
    0.0663   -4.7011   43.7415 N   0  0  0  0  0  0  0  0  0  0  0  0
    6.2223   -2.6843   45.1565 C   0  0  0  0  0  0  0  0  0  0  0  0
    6.9599   -0.2351   44.2608 N   0  0  0  0  0  0  0  0  0  0  0  0
    5.9065   -3.9037   45.7499 N   0  0  0  0  0  0  0  0  0  0  0  0
   -0.5459   -5.1185   42.5870 C   0  0  0  0  0  0  0  0  0  0  0  0
    5.7480   -4.0340   46.9810 C   0  0  0  0  0  0  0  0  0  0  0  0
    7.4448   -1.8511   45.4198 C   0  0  0  0  0  0  0  0  0  0  0  0
    7.7572   -0.7827   45.0128 C   0  0  0  0  0  0  0  0  0  0  0  0
    8.4076   -2.7217   46.4541 C   0  0  0  0  0  0  0  0  0  0  0  0
    9.3167   -2.0988   47.1049 N   0  0  0  0  0  0  0  0  0  0  0  0
   -0.4719   -4.3893   41.5406 C   0  0  0  0  0  0  0  0  0  0  0  0
    8.3667   -4.0284   46.5743 N   0  0  0  0  0  0  0  0  0  0  0  0
    9.5309   -4.3147   47.3094 C   0  0  0  0  0  0  0  0  0  0  0  0
    5.3113   -3.3789   47.8005 O   0  0  0  0  0  0  0  0  0  0  0  0
    9.9022   -5.6301   47.7684 C   0  0  0  0  0  0  0  0  0  0  0  0
    5.4470   -5.5868   47.2096 C   0  0  0  0  0  0  0  0  0  0  0  0
   11.2254   -5.8679   48.0402 C   0  0  0  0  0  0  0  0  0  0  0  0
    8.9736   -6.6532   47.8548 C   0  0  0  0  0  0  0  0  0  0  0  0
   10.0616   -3.0670   47.6360 C   0  0  0  0  0  0  0  0  0  0  0  0
    7.5566   -6.3564   47.5477 N   0  0  0  0  0  0  0  0  0  0  0  0
    6.4157   -6.1721   48.0913 C   0  0  0  0  0  0  0  0  0  0  0  0
   12.3275   -4.8510   47.9324 C   0  0  0  0  0  0  0  0  0  0  0  0
    9.4585   -7.9662   48.0726 C   0  0  0  0  0  0  0  0  0  0  0  0
   11.5288   -2.7910   48.1740 C   0  0  0  0  0  0  0  0  0  0  0  0
    8.4197   -9.0390   48.1809 O   0  0  0  0  0  0  0  0  0  0  0  0
   12.2735   -3.6817   48.6221 O   0  0  0  0  0  0  0  0  0  0  0  0
   10.6174   -8.4336   48.3746 C   0  0  0  0  0  0  0  0  0  0  0  0
   11.6800   -7.2449   48.3253 C   0  0  0  0  0  0  0  0  0  0  0  0
    8.8068  -10.2758   47.7348 C   0  0  0  0  0  0  0  0  0  0  0  0
  1  2  1  0
  2  3  2  0
  3  4  1  0
  1  5  2  0
  4  5  1  0
  4  6  2  0
  5  7  1  0
  7  8  2  0
  6  9  1  0
  3 10  1  0
  9 11  2  0
 10 11  1  0
  7 12  1  0
 12 13  2  0
  9 14  1  0
 11 15  1  0
 14 16  1  0
 13 17  1  0
 16 18  1  0
 14 19  2  0
 15 20  2  0
 19 20  1  0
 19 21  1  0
 21 22  2  0
  8 23  1  0
 17 23  2  0
 21 24  1  0
 24 25  1  0
 18 26  2  0
 25 27  1  0
 18 28  1  0
 27 29  2  0
 27 30  1  0
 22 31  1  0
 25 31  2  0
 30 32  1  0
 28 33  1  0
 32 33  1  0
 29 34  1  0
 30 35  2  0
 31 36  1  0
 35 37  1  0
 34 38  1  0
 36 38  1  0
 35 39  1  0
 29 40  1  0
 39 40  2  0
 37 41  1  0
M  END
$$$$
O14757_Pocket2Mol_idx-in-all-generaetd-997
     RDKit          3D

 37 44  0  0  0  0  0  0  0  0999 V2000
    4.8173    0.2791   42.6993 N   0  0  0  0  0  0  0  0  0  0  0  0
    5.3297   -0.7477   43.3688 C   0  0  0  0  0  0  0  0  0  0  0  0
    3.4732   -0.2235   42.4530 C   0  0  0  0  0  0  0  0  0  0  0  0
    4.4984   -1.7876   43.6214 C   0  0  0  0  0  0  0  0  0  0  0  0
    3.3438   -1.5190   42.9379 C   0  0  0  0  0  0  0  0  0  0  0  0
    2.1381   -2.3401   42.8254 C   0  0  0  0  0  0  0  0  0  0  0  0
    2.3894    0.3572   41.9843 N   0  0  0  0  0  0  0  0  0  0  0  0
    4.9180   -3.0430   44.3829 C   0  0  0  0  0  0  0  0  0  0  0  0
    5.9444   -2.9314   45.3934 C   0  0  0  0  0  0  0  0  0  0  0  0
    4.2808   -4.1329   44.3252 C   0  0  0  0  0  0  0  0  0  0  0  0
    3.1588   -4.4221   43.4852 O   0  0  0  0  0  0  0  0  0  0  0  0
    4.5704   -5.2518   45.1995 C   0  0  0  0  0  0  0  0  0  0  0  0
    1.9853   -3.6792   43.3495 C   0  0  0  0  0  0  0  0  0  0  0  0
    0.9181   -4.3294   43.4638 C   0  0  0  0  0  0  0  0  0  0  0  0
    6.7403   -1.6226   45.5272 C   0  0  2  0  0  0  0  0  0  0  0  0
    0.9752   -1.7845   42.3366 C   0  0  0  0  0  0  0  0  0  0  0  0
    6.2516   -3.7287   46.2722 C   0  0  0  0  0  0  0  0  0  0  0  0
   -0.2404   -2.4179   42.2529 C   0  0  0  0  0  0  0  0  0  0  0  0
   -1.3835   -1.8904   41.6559 N   0  0  0  0  0  0  0  0  0  0  0  0
    3.8706   -6.4216   45.1394 O   0  0  0  0  0  0  0  0  0  0  0  0
    0.9456   -0.2789   41.7649 C   0  0  0  0  0  0  0  0  0  0  0  0
   -0.2678   -3.6969   42.7575 C   0  0  0  0  0  0  0  0  0  0  0  0
    6.3913   -0.7000   44.3807 N   0  0  0  0  0  0  0  0  0  0  0  0
    7.9391   -1.5867   46.0069 C   0  0  0  0  0  0  0  0  0  0  0  0
    8.7787   -0.4879   45.9761 O   0  0  0  0  0  0  0  0  0  0  0  0
    5.3853   -5.1216   46.3780 C   0  0  0  0  0  0  0  0  0  0  0  0
    8.4504   -2.7517   46.6262 N   0  0  0  0  0  0  0  0  0  0  0  0
    7.4807   -3.7374   47.0380 C   0  0  0  0  0  0  0  0  0  0  0  0
    9.7261   -2.6138   47.3732 C   0  0  0  0  0  0  0  0  0  0  0  0
    9.9606   -3.7577   48.0581 C   0  0  0  0  0  0  0  0  0  0  0  0
   11.0999   -4.4648   47.7368 O   0  0  0  0  0  0  0  0  0  0  0  0
   10.9199   -5.0316   46.4526 C   0  0  0  0  0  0  0  0  0  0  0  0
   10.2272   -6.0822   46.3751 C   0  0  0  0  0  0  0  0  0  0  0  0
   11.3454   -4.3181   45.2884 C   0  0  0  0  0  0  0  0  0  0  0  0
   11.3250   -4.9698   44.1087 C   0  0  0  0  0  0  0  0  0  0  0  0
   10.7486   -6.2066   44.0240 C   0  0  0  0  0  0  0  0  0  0  0  0
   10.1967   -6.8095   45.0928 C   0  0  0  0  0  0  0  0  0  0  0  0
  1  2  2  0
  1  3  1  0
  2  4  1  0
  3  5  1  0
  4  5  2  0
  5  6  1  0
  3  7  2  0
  4  8  1  0
  8  9  1  0
  8 10  2  0
 10 11  1  0
 10 12  1  0
  6 13  1  0
 11 13  1  0
 13 14  2  0
  9 15  1  0
  6 16  2  0
  9 17  2  0
 16 18  1  0
 18 19  1  0
 12 20  1  0
  7 21  1  0
 16 21  1  0
 14 22  1  0
 18 22  2  0
  2 23  1  0
 15 23  1  6
 15 24  1  0
 24 25  2  0
 12 26  2  0
 17 26  1  0
 24 27  1  0
 17 28  1  0
 27 28  1  0
 27 29  1  0
 29 30  1  0
 30 31  1  0
 31 32  1  0
 32 33  2  0
 32 34  1  0
 34 35  2  0
 35 36  1  0
 33 37  1  0
 36 37  2  0
M  END
$$$$
O14757_Pocket2Mol_idx-in-all-generaetd-998
     RDKit          3D

 39 44  0  0  0  0  0  0  0  0999 V2000
    1.5482   -0.3111   41.9233 C   0  0  0  0  0  0  0  0  0  0  0  0
    2.7284    0.2018   42.1525 N   0  0  0  0  0  0  0  0  0  0  0  0
    3.7893   -0.3016   42.7005 C   0  0  0  0  0  0  0  0  0  0  0  0
    3.3781   -1.7350   43.0000 C   0  0  0  0  0  0  0  0  0  0  0  0
    2.0339   -1.9619   42.6217 C   0  0  0  0  0  0  0  0  0  0  0  0
    4.1166   -2.4997   43.8458 C   0  0  0  0  0  0  0  0  0  0  0  0
    1.1731   -3.0051   42.5773 C   0  0  0  0  0  0  0  0  0  0  0  0
    0.4701   -3.2344   41.4901 C   0  0  0  0  0  0  0  0  0  0  0  0
    5.3799   -1.7814   44.2691 C   0  0  0  0  0  0  0  0  0  0  0  0
    5.0159   -0.0180   43.1201 N   0  0  0  0  0  0  0  0  0  0  0  0
    5.7693   -0.6937   43.8418 C   0  0  0  0  0  0  0  0  0  0  0  0
    0.8078   -3.6166   43.6782 C   0  0  0  0  0  0  0  0  0  0  0  0
    0.0663   -4.7011   43.7415 N   0  0  0  0  0  0  0  0  0  0  0  0
    6.2223   -2.6843   45.1565 C   0  0  0  0  0  0  0  0  0  0  0  0
    6.9599   -0.2351   44.2608 N   0  0  0  0  0  0  0  0  0  0  0  0
    5.9065   -3.9037   45.7499 N   0  0  0  0  0  0  0  0  0  0  0  0
   -0.5459   -5.1185   42.5870 C   0  0  0  0  0  0  0  0  0  0  0  0
    5.7480   -4.0340   46.9810 C   0  0  0  0  0  0  0  0  0  0  0  0
    7.4448   -1.8511   45.4198 C   0  0  0  0  0  0  0  0  0  0  0  0
    7.7572   -0.7827   45.0128 C   0  0  0  0  0  0  0  0  0  0  0  0
    8.4076   -2.7217   46.4541 C   0  0  0  0  0  0  0  0  0  0  0  0
    9.3167   -2.0988   47.1049 N   0  0  0  0  0  0  0  0  0  0  0  0
   -0.4719   -4.3893   41.5406 C   0  0  0  0  0  0  0  0  0  0  0  0
    8.3667   -4.0284   46.5743 N   0  0  0  0  0  0  0  0  0  0  0  0
   10.1532   -2.5726   47.9567 C   0  0  0  0  0  0  0  0  0  0  0  0
   11.0726   -1.7892   48.6998 C   0  0  0  0  0  0  0  0  0  0  0  0
   10.4886   -0.9372   49.4584 C   0  0  0  0  0  0  0  0  0  0  0  0
   10.2139   -3.8947   48.0407 C   0  0  0  0  0  0  0  0  0  0  0  0
    6.6188   -4.9855   47.3969 N   0  0  0  0  0  0  0  0  0  0  0  0
    5.1401   -3.1961   47.7242 O   0  0  0  0  0  0  0  0  0  0  0  0
    9.2230   -4.6492   47.2923 C   0  0  0  0  0  0  0  0  0  0  0  0
   12.4306   -1.6942   48.6002 C   0  0  0  0  0  0  0  0  0  0  0  0
   13.1277   -2.5738   47.4657 C   0  0  0  0  0  0  0  0  0  0  0  0
   13.0390   -2.0905   46.2012 C   0  0  0  0  0  0  0  0  0  0  0  0
   13.1676   -1.0416   49.3094 C   0  0  0  0  0  0  0  0  0  0  0  0
   12.6094   -0.1882   50.3060 C   0  0  0  0  0  0  0  0  0  0  0  0
   11.1956   -0.1745   50.4275 C   0  0  0  0  0  0  0  0  0  0  0  0
   13.9569   -1.5792   45.6710 C   0  0  0  0  0  0  0  0  0  0  0  0
   13.8982   -1.0349   44.2472 C   0  0  0  0  0  0  0  0  0  0  0  0
  1  2  1  0
  2  3  2  0
  3  4  1  0
  1  5  2  0
  4  5  1  0
  4  6  2  0
  5  7  1  0
  7  8  2  0
  6  9  1  0
  3 10  1  0
  9 11  2  0
 10 11  1  0
  7 12  1  0
 12 13  2  0
  9 14  1  0
 11 15  1  0
 14 16  1  0
 13 17  1  0
 16 18  1  0
 14 19  2  0
 15 20  2  0
 19 20  1  0
 19 21  1  0
 21 22  2  0
  8 23  1  0
 17 23  2  0
 21 24  1  0
 22 25  1  0
 25 26  1  0
 26 27  2  0
 25 28  2  0
 18 29  1  0
 18 30  2  0
 24 31  2  0
 28 31  1  0
 26 32  1  0
 32 33  1  0
 33 34  1  0
 32 35  2  0
 35 36  1  0
 27 37  1  0
 36 37  2  0
 34 38  2  3
 38 39  1  0
M  END
$$$$
O14757_Pocket2Mol_idx-in-all-generaetd-999
     RDKit          3D

 31 36  0  0  0  0  0  0  0  0999 V2000
    5.5575   -0.4055   43.2321 N   0  0  0  0  0  0  0  0  0  0  0  0
    5.4916   -1.4617   44.0350 C   0  0  0  0  0  0  0  0  0  0  0  0
    4.3553   -0.1547   42.7099 N   0  0  0  0  0  0  0  0  0  0  0  0
    3.5224   -1.1568   42.9284 C   0  0  0  0  0  0  0  0  0  0  0  0
    2.1507   -1.3006   42.5845 C   0  0  0  0  0  0  0  0  0  0  0  0
    4.2124   -1.9924   43.9667 C   0  0  1  0  0  0  0  0  0  0  0  0
    3.6929   -3.2283   44.3876 C   0  0  0  0  0  0  0  0  0  0  0  0
    6.5651   -2.0426   44.8298 C   0  0  0  0  0  0  0  0  0  0  0  0
    7.6833   -1.2716   45.0970 C   0  0  0  0  0  0  0  0  0  0  0  0
    6.2468   -2.9038   45.8838 C   0  0  0  0  0  0  0  0  0  0  0  0
    1.4576   -2.4785   42.6650 C   0  0  1  0  0  0  0  0  0  0  0  0
    1.5384   -0.1297   42.0802 C   0  0  0  0  0  0  0  0  0  0  0  0
    2.6511   -3.8570   44.0676 C   0  0  0  0  0  0  0  0  0  0  0  0
    1.6090   -3.4980   43.1647 C   0  0  0  0  0  0  0  0  0  0  0  0
    0.6908   -4.5477   43.0875 N   0  0  0  0  0  0  0  0  0  0  0  0
    0.2168   -2.0759   41.9239 C   0  0  0  0  0  0  0  0  0  0  0  0
    7.5356   -3.1085   46.6525 C   0  0  0  0  0  0  0  0  0  0  0  0
    2.4864   -5.1883   44.6960 C   0  0  0  0  0  0  0  0  0  0  0  0
    8.4346   -1.9391   46.2039 N   0  0  0  0  0  0  0  0  0  0  0  0
    9.7431   -1.8109   46.6107 C   0  0  0  0  0  0  0  0  0  0  0  0
    0.2121   -0.5211   41.5014 C   0  0  0  0  0  0  0  0  0  0  0  0
    0.7918   -5.6770   43.8758 C   0  0  0  0  0  0  0  0  0  0  0  0
    7.7909   -3.8448   47.6035 O   0  0  0  0  0  0  0  0  0  0  0  0
    9.9621   -1.5791   47.8181 C   0  0  0  0  0  0  0  0  0  0  0  0
   11.4098   -1.3838   48.1705 C   0  0  0  0  0  0  0  0  0  0  0  0
   10.7771   -1.8248   45.6312 C   0  0  0  0  0  0  0  0  0  0  0  0
   10.4398   -2.0836   44.2690 O   0  0  0  0  0  0  0  0  0  0  0  0
   11.6623   -1.1819   49.6600 C   0  0  0  0  0  0  0  0  0  0  0  0
   12.0866   -1.7099   45.9841 C   0  0  0  0  0  0  0  0  0  0  0  0
   11.1197   -3.0580   43.6950 C   0  0  0  0  0  0  0  0  0  0  0  0
   12.3880   -1.4820   47.3595 C   0  0  0  0  0  0  0  0  0  0  0  0
  1  2  2  0
  1  3  1  0
  3  4  2  0
  4  5  1  0
  2  6  1  0
  4  6  1  0
  6  7  1  6
  2  8  1  0
  8  9  1  0
  8 10  2  0
  5 11  1  0
  5 12  2  0
  7 13  2  0
 11 14  1  0
 13 14  1  0
 14 15  2  0
 11 16  1  1
 10 17  1  0
 13 18  1  0
  9 19  1  0
 17 19  1  0
 19 20  1  0
 12 21  1  0
 16 21  2  0
 15 22  1  0
 18 22  2  0
 17 23  2  0
 20 24  2  0
 24 25  1  0
 20 26  1  0
 26 27  1  0
 25 28  1  0
 26 29  2  0
 27 30  1  0
 25 31  2  0
 29 31  1  0
M  END
$$$$
O14757_Pocket2Mol_idx-in-all-generaetd-1000
     RDKit          3D

 20 22  0  0  0  0  0  0  0  0999 V2000
    5.3420    0.2589   42.8836 N   0  0  0  0  0  0  0  0  0  0  0  0
    5.6740   -0.8311   43.5645 C   0  0  0  0  0  0  0  0  0  0  0  0
    3.9899   -0.0458   42.5141 N   0  0  0  0  0  0  0  0  0  0  0  0
    4.6606   -1.7163   43.6337 C   0  0  0  0  0  0  0  0  0  0  0  0
    3.6244   -1.2025   42.8928 C   0  0  0  0  0  0  0  0  0  0  0  0
    2.3780   -1.7713   42.6359 C   0  0  0  0  0  0  0  0  0  0  0  0
    4.5721   -3.0267   44.2590 C   0  0  0  0  0  0  0  0  0  0  0  0
    1.3110   -1.1954   41.9273 C   0  0  0  0  0  0  0  0  0  0  0  0
    2.2543   -3.0870   43.2441 C   0  0  0  0  0  0  0  0  0  0  0  0
    6.9740   -1.0607   44.3429 C   0  0  0  0  0  0  0  0  0  0  0  0
    7.0610   -1.7818   45.5894 C   0  0  0  0  0  0  0  0  0  0  0  0
    1.1168   -3.8699   43.0019 N   0  0  0  0  0  0  0  0  0  0  0  0
    0.2325   -3.4883   42.1009 C   0  0  1  0  0  0  0  0  0  0  0  0
    8.2535   -1.6908   46.3200 C   0  0  0  0  0  0  0  0  0  0  0  0
   -0.7490   -4.2125   41.7806 O   0  0  0  0  0  0  0  0  0  0  0  0
    8.6192   -2.7899   47.0278 C   0  0  0  0  0  0  0  0  0  0  0  0
    0.2629   -2.1046   41.6175 C   0  0  0  0  0  0  0  0  0  0  0  0
    3.2813   -3.7244   44.0732 C   0  0  0  0  0  0  0  0  0  0  0  0
    9.4760   -2.6346   48.0199 O   0  0  0  0  0  0  0  0  0  0  0  0
    8.1745   -3.9346   46.6801 O   0  0  0  0  0  0  0  0  0  0  0  0
  1  2  2  0
  1  3  1  0
  2  4  1  0
  3  5  1  0
  4  5  2  0
  5  6  1  0
  4  7  1  0
  6  8  1  0
  6  9  2  0
  2 10  1  0
 10 11  1  0
  9 12  1  0
 12 13  1  0
 11 14  1  0
 13 15  1  1
 14 16  1  0
  8 17  1  0
 13 17  1  0
  7 18  2  0
  9 18  1  0
 16 19  2  0
 16 20  1  0
M  END
$$$$
O14757_Pocket2Mol_idx-in-all-generaetd-1001
     RDKit          3D

 25 28  0  0  0  0  0  0  0  0999 V2000
    4.5142    0.3543   42.7132 N   0  0  0  0  0  0  0  0  0  0  0  0
    3.5107   -0.4860   42.6298 C   0  0  0  0  0  0  0  0  0  0  0  0
    3.5891   -1.7637   43.2512 N   0  0  0  0  0  0  0  0  0  0  0  0
    5.5470   -0.0112   43.3539 C   0  0  0  0  0  0  0  0  0  0  0  0
    2.1469   -0.1899   41.9512 C   0  0  0  0  0  0  0  0  0  0  0  0
    4.6725   -2.0734   43.8606 C   0  0  0  0  0  0  0  0  0  0  0  0
    5.7749   -1.1829   43.9325 C   0  0  0  0  0  0  0  0  0  0  0  0
    4.7150   -3.3068   44.6440 C   0  0  0  0  0  0  0  0  0  0  0  0
    6.9086   -1.5797   44.6919 C   0  0  0  0  0  0  0  0  0  0  0  0
    3.5691   -4.2517   44.6407 C   0  0  0  0  0  0  0  0  0  0  0  0
    2.3573   -4.0060   44.5430 C   0  0  0  0  0  0  0  0  0  0  0  0
    6.9170   -2.8018   45.4663 C   0  0  0  0  0  0  0  0  0  0  0  0
    5.8006   -3.6152   45.4297 C   0  0  0  0  0  0  0  0  0  0  0  0
    1.4121   -5.0069   44.5415 C   0  0  0  0  0  0  0  0  0  0  0  0
    3.7971   -5.7279   44.7344 C   0  0  0  0  0  0  0  0  0  0  0  0
    2.3987   -6.3703   44.6650 S   0  0  0  0  0  0  0  0  0  0  0  0
    8.1594   -3.0392   46.3481 C   0  0  0  0  0  0  0  0  0  0  0  0
    8.9239   -2.0940   46.8979 C   0  0  0  0  0  0  0  0  0  0  0  0
   -0.1377   -4.9421   44.5813 C   0  0  2  0  0  0  0  0  0  0  0  0
    8.4791   -4.2139   46.9383 C   0  0  0  0  0  0  0  0  0  0  0  0
    9.9638   -2.1758   47.7405 C   0  0  0  0  0  0  0  0  0  0  0  0
   10.1331   -3.7048   48.1687 C   0  0  0  0  0  0  0  0  0  0  0  0
   -0.5463   -4.9360   43.4533 O   0  0  0  0  0  0  0  0  0  0  0  0
   -0.3481   -3.7824   45.3637 C   0  0  0  0  0  0  0  0  0  0  0  0
    9.3576   -4.5614   47.9271 C   0  0  0  0  0  0  0  0  0  0  0  0
  1  2  2  0
  2  3  1  0
  1  4  1  0
  2  5  1  0
  3  6  2  0
  4  7  2  0
  6  7  1  0
  6  8  1  0
  7  9  1  0
  8 10  1  0
 10 11  1  0
  9 12  2  0
  8 13  2  0
 12 13  1  0
 11 14  2  0
 10 15  2  0
 14 16  1  0
 15 16  1  0
 12 17  1  0
 17 18  2  0
 14 19  1  0
 17 20  1  0
 18 21  1  0
 21 22  2  0
 19 23  1  0
 19 24  1  6
 20 25  2  0
 22 25  1  0
M  END
$$$$
O14757_Pocket2Mol_idx-in-all-generaetd-1002
     RDKit          3D

 36 43  0  0  0  0  0  0  0  0999 V2000
    4.8173    0.2791   42.6993 N   0  0  0  0  0  0  0  0  0  0  0  0
    5.3297   -0.7477   43.3688 C   0  0  0  0  0  0  0  0  0  0  0  0
    3.4732   -0.2235   42.4530 C   0  0  0  0  0  0  0  0  0  0  0  0
    4.4984   -1.7876   43.6214 C   0  0  0  0  0  0  0  0  0  0  0  0
    3.3438   -1.5190   42.9379 C   0  0  0  0  0  0  0  0  0  0  0  0
    2.1381   -2.3401   42.8254 C   0  0  0  0  0  0  0  0  0  0  0  0
    2.3894    0.3572   41.9843 N   0  0  0  0  0  0  0  0  0  0  0  0
    4.9180   -3.0430   44.3829 C   0  0  0  0  0  0  0  0  0  0  0  0
    5.9444   -2.9314   45.3934 C   0  0  0  0  0  0  0  0  0  0  0  0
    4.2808   -4.1329   44.3252 C   0  0  0  0  0  0  0  0  0  0  0  0
    3.1588   -4.4221   43.4852 O   0  0  0  0  0  0  0  0  0  0  0  0
    4.5704   -5.2518   45.1995 C   0  0  0  0  0  0  0  0  0  0  0  0
    1.9853   -3.6792   43.3495 C   0  0  0  0  0  0  0  0  0  0  0  0
    0.9181   -4.3294   43.4638 C   0  0  0  0  0  0  0  0  0  0  0  0
    6.7403   -1.6226   45.5272 C   0  0  0  0  0  0  0  0  0  0  0  0
    0.9752   -1.7845   42.3366 C   0  0  0  0  0  0  0  0  0  0  0  0
    5.5543   -5.1294   46.1078 C   0  0  0  0  0  0  0  0  0  0  0  0
    7.9772   -1.5901   46.1526 C   0  0  0  0  0  0  0  0  0  0  0  0
    8.6171   -2.7180   46.2255 N   0  0  0  0  0  0  0  0  0  0  0  0
    6.5160   -0.7262   44.3482 C   0  0  0  0  0  0  0  0  0  0  0  0
    5.8670   -6.1665   47.0241 O   0  0  0  0  0  0  0  0  0  0  0  0
   -0.2437   -2.4672   42.2827 C   0  0  0  0  0  0  0  0  0  0  0  0
   -0.2692   -3.7414   42.8178 C   0  0  0  0  0  0  0  0  0  0  0  0
    6.3047   -3.9815   46.2287 C   0  0  0  0  0  0  0  0  0  0  0  0
    8.0291   -3.5777   47.1715 C   0  0  0  0  0  0  0  0  0  0  0  0
    7.2074   -4.2766   47.0234 C   0  0  0  0  0  0  0  0  0  0  0  0
    1.1879   -0.4281   41.8692 C   0  0  0  0  0  0  0  0  0  0  0  0
   10.1009   -2.3306   46.5895 C   0  0  0  0  0  0  0  0  0  0  0  0
   10.5049   -1.2887   46.4663 O   0  0  0  0  0  0  0  0  0  0  0  0
   10.9104   -3.4150   47.1173 C   0  0  0  0  0  0  0  0  0  0  0  0
   11.1982   -4.4016   46.2515 C   0  0  0  0  0  0  0  0  0  0  0  0
   11.7101   -3.1924   48.2324 C   0  0  0  0  0  0  0  0  0  0  0  0
   12.5589   -4.2029   48.6532 C   0  0  0  0  0  0  0  0  0  0  0  0
   13.3013   -4.0735   49.9283 O   0  0  0  0  0  0  0  0  0  0  0  0
   12.1096   -5.3809   46.6342 C   0  0  0  0  0  0  0  0  0  0  0  0
   12.8023   -5.2694   47.8396 C   0  0  0  0  0  0  0  0  0  0  0  0
  1  2  2  0
  1  3  1  0
  2  4  1  0
  3  5  1  0
  4  5  2  0
  5  6  1  0
  3  7  2  0
  4  8  1  0
  8  9  2  0
  8 10  1  0
 10 11  1  0
 10 12  2  0
  6 13  2  0
 11 13  1  0
 13 14  1  0
  9 15  1  0
  6 16  1  0
 12 17  1  0
 15 18  1  0
 18 19  1  0
  2 20  1  0
 15 20  2  0
 17 21  1  0
 16 22  2  0
 14 23  2  0
 22 23  1  0
  9 24  1  0
 17 24  2  0
 19 25  1  0
 24 26  1  0
 25 26  2  0
  7 27  1  0
 16 27  1  0
 19 28  1  0
 28 29  2  0
 28 30  1  0
 30 31  2  0
 30 32  1  0
 32 33  2  0
 33 34  1  0
 31 35  1  0
 33 36  1  0
 35 36  2  0
M  END
$$$$
O14757_Pocket2Mol_idx-in-all-generaetd-1003
     RDKit          3D

 45 53  0  0  0  0  0  0  0  0999 V2000
    1.5482   -0.3111   41.9233 C   0  0  0  0  0  0  0  0  0  0  0  0
    2.7284    0.2018   42.1525 N   0  0  0  0  0  0  0  0  0  0  0  0
    3.7893   -0.3016   42.7005 C   0  0  0  0  0  0  0  0  0  0  0  0
    3.3781   -1.7350   43.0000 C   0  0  0  0  0  0  0  0  0  0  0  0
    2.0339   -1.9619   42.6217 C   0  0  0  0  0  0  0  0  0  0  0  0
    5.0090    0.1219   42.9340 N   0  0  0  0  0  0  0  0  0  0  0  0
    4.2895   -2.4979   43.6707 C   0  0  0  0  0  0  0  0  0  0  0  0
    5.8391   -0.6675   43.6343 C   0  0  0  0  0  0  0  0  0  0  0  0
    6.9849   -0.2377   44.0028 N   0  0  0  0  0  0  0  0  0  0  0  0
    4.0426   -3.8794   44.0832 C   0  0  0  0  0  0  0  0  0  0  0  0
    7.6796   -0.8734   44.9326 C   0  0  0  0  0  0  0  0  0  0  0  0
    1.1064   -2.9576   42.4211 C   0  0  0  0  0  0  0  0  0  0  0  0
    5.5298   -1.9496   44.0315 C   0  0  0  0  0  0  0  0  0  0  0  0
    3.8954   -4.1817   45.4718 C   0  0  0  0  0  0  0  0  0  0  0  0
    0.6765   -3.5480   43.4006 C   0  0  1  0  0  0  0  0  0  0  0  0
    0.5804   -3.2191   41.1635 C   0  0  0  0  0  0  0  0  0  0  0  0
    2.8083   -4.8227   45.9203 N   0  0  0  0  0  0  0  0  0  0  0  0
   -0.1574   -4.5754   42.9329 N   0  0  0  0  0  0  0  0  0  0  0  0
    6.5271   -2.5531   44.9677 C   0  0  0  0  0  0  0  0  0  0  0  0
   -0.2272   -4.3703   41.5137 C   0  0  0  0  0  0  0  0  0  0  0  0
    7.5095   -2.0029   45.3993 C   0  0  0  0  0  0  0  0  0  0  0  0
    8.2550   -2.6982   46.3988 C   0  0  2  0  0  0  0  0  0  0  0  0
    8.8975   -0.3029   45.3267 O   0  0  0  0  0  0  0  0  0  0  0  0
    4.8299   -4.4637   46.4212 C   0  0  0  0  0  0  0  0  0  0  0  0
    4.2707   -4.9248   47.6295 N   0  0  0  0  0  0  0  0  0  0  0  0
    3.2045   -5.2092   47.1521 C   0  0  0  0  0  0  0  0  0  0  0  0
    1.4482   -4.6186   45.4134 C   0  0  2  0  0  0  0  0  0  0  0  0
    1.2398   -3.5043   44.6236 O   0  0  0  0  0  0  0  0  0  0  0  0
    6.3317   -3.9297   46.0870 C   0  0  2  0  0  0  0  0  0  0  0  0
    9.5296   -2.5449   46.9776 C   0  0  0  0  0  0  0  0  0  0  0  0
    9.7921   -1.7530   47.9018 O   0  0  0  0  0  0  0  0  0  0  0  0
    7.4454   -3.8344   46.8035 C   0  0  0  0  0  0  0  0  0  0  0  0
   10.5010   -3.0847   46.3190 O   0  0  0  0  0  0  0  0  0  0  0  0
    0.5569   -4.7693   46.5649 C   0  0  0  0  0  0  0  0  0  0  0  0
   11.7452   -2.8462   46.6234 C   0  0  0  0  0  0  0  0  0  0  0  0
   12.4344   -1.8951   45.7393 C   0  0  0  0  0  0  0  0  0  0  0  0
   12.4612   -3.5429   47.5581 C   0  0  0  0  0  0  0  0  0  0  0  0
   11.7737   -4.5216   48.4115 C   0  0  0  0  0  0  0  0  0  0  0  0
   11.7935   -5.7538   48.0263 C   0  0  0  0  0  0  0  0  0  0  0  0
   13.8063   -3.2053   47.6588 C   0  0  0  0  0  0  0  0  0  0  0  0
   13.7637   -1.6546   45.8843 C   0  0  0  0  0  0  0  0  0  0  0  0
   14.4634   -2.3074   46.9030 C   0  0  0  0  0  0  0  0  0  0  0  0
   10.6311   -6.4978   47.9869 O   0  0  0  0  0  0  0  0  0  0  0  0
   12.8024   -6.6103   48.1424 O   0  0  0  0  0  0  0  0  0  0  0  0
   10.0943   -6.3660   46.6817 C   0  0  0  0  0  0  0  0  0  0  0  0
  1  2  1  0
  2  3  2  0
  3  4  1  0
  1  5  2  0
  4  5  1  0
  3  6  1  0
  4  7  2  0
  6  8  1  0
  8  9  1  0
  7 10  1  0
  9 11  1  0
  5 12  1  0
  7 13  1  0
  8 13  2  0
 10 14  1  0
 12 15  1  0
 12 16  2  0
 14 17  1  0
 15 18  1  0
 13 19  1  0
 16 20  1  0
 18 20  2  0
 11 21  1  0
 19 21  2  0
 21 22  1  0
 11 23  2  0
 14 24  2  0
 24 25  1  0
 17 26  1  0
 25 26  2  0
 17 27  1  0
 15 28  1  6
 27 28  1  0
 19 29  1  0
 24 29  1  0
 22 30  1  6
 30 31  2  0
 22 32  1  0
 29 32  1  1
 30 33  1  0
 27 34  1  1
 33 35  1  0
 35 36  2  0
 35 37  1  0
 37 38  1  0
 38 39  1  0
 37 40  2  0
 36 41  1  0
 40 42  1  0
 41 42  2  0
 39 43  1  0
 39 44  2  0
 43 45  1  0
M  END
$$$$
O14757_Pocket2Mol_idx-in-all-generaetd-1004
     RDKit          3D

 41 49  0  0  0  0  0  0  0  0999 V2000
    1.5482   -0.3111   41.9233 C   0  0  0  0  0  0  0  0  0  0  0  0
    2.7284    0.2018   42.1525 N   0  0  0  0  0  0  0  0  0  0  0  0
    3.7893   -0.3016   42.7005 C   0  0  0  0  0  0  0  0  0  0  0  0
    3.3781   -1.7350   43.0000 C   0  0  0  0  0  0  0  0  0  0  0  0
    2.0339   -1.9619   42.6217 C   0  0  0  0  0  0  0  0  0  0  0  0
    4.1166   -2.4997   43.8458 C   0  0  0  0  0  0  0  0  0  0  0  0
    1.1731   -3.0051   42.5773 C   0  0  0  0  0  0  0  0  0  0  0  0
    0.4701   -3.2344   41.4901 C   0  0  0  0  0  0  0  0  0  0  0  0
    5.3799   -1.7814   44.2691 C   0  0  0  0  0  0  0  0  0  0  0  0
    5.0159   -0.0180   43.1201 N   0  0  0  0  0  0  0  0  0  0  0  0
    5.7693   -0.6937   43.8418 C   0  0  0  0  0  0  0  0  0  0  0  0
    0.8078   -3.6166   43.6782 C   0  0  0  0  0  0  0  0  0  0  0  0
    0.0663   -4.7011   43.7415 N   0  0  0  0  0  0  0  0  0  0  0  0
    6.2223   -2.6843   45.1565 C   0  0  0  0  0  0  0  0  0  0  0  0
    6.9599   -0.2351   44.2608 N   0  0  0  0  0  0  0  0  0  0  0  0
    5.9065   -3.9037   45.7499 N   0  0  0  0  0  0  0  0  0  0  0  0
   -0.5459   -5.1185   42.5870 C   0  0  0  0  0  0  0  0  0  0  0  0
    5.7480   -4.0340   46.9810 C   0  0  0  0  0  0  0  0  0  0  0  0
    7.4448   -1.8511   45.4198 C   0  0  0  0  0  0  0  0  0  0  0  0
    7.7572   -0.7827   45.0128 C   0  0  0  0  0  0  0  0  0  0  0  0
    8.4076   -2.7217   46.4541 C   0  0  0  0  0  0  0  0  0  0  0  0
    9.3167   -2.0988   47.1049 N   0  0  0  0  0  0  0  0  0  0  0  0
   -0.4719   -4.3893   41.5406 C   0  0  0  0  0  0  0  0  0  0  0  0
    8.3667   -4.0284   46.5743 N   0  0  0  0  0  0  0  0  0  0  0  0
    9.5309   -4.3147   47.3094 C   0  0  0  0  0  0  0  0  0  0  0  0
    5.3113   -3.3789   47.8005 O   0  0  0  0  0  0  0  0  0  0  0  0
    9.9022   -5.6301   47.7684 C   0  0  0  0  0  0  0  0  0  0  0  0
    5.4470   -5.5868   47.2096 C   0  0  0  0  0  0  0  0  0  0  0  0
   11.2254   -5.8679   48.0402 C   0  0  0  0  0  0  0  0  0  0  0  0
    8.9736   -6.6532   47.8548 C   0  0  0  0  0  0  0  0  0  0  0  0
   10.0616   -3.0670   47.6360 C   0  0  0  0  0  0  0  0  0  0  0  0
    7.5566   -6.3564   47.5477 N   0  0  0  0  0  0  0  0  0  0  0  0
   12.3328   -4.8893   47.9268 C   0  0  2  0  0  0  0  0  0  0  0  0
   12.2085   -3.9673   46.9997 C   0  0  0  0  0  0  0  0  0  0  0  0
   11.5720   -2.8294   47.8112 C   0  0  0  0  0  0  0  0  0  0  0  0
   11.5497   -7.1871   48.4172 C   0  0  0  0  0  0  0  0  0  0  0  0
   13.5576   -5.8273   47.6737 C   0  0  0  0  0  0  0  0  0  0  0  0
   10.6555   -8.2234   48.5860 C   0  0  0  0  0  0  0  0  0  0  0  0
    6.3831   -6.1764   48.0883 C   0  0  0  0  0  0  0  0  0  0  0  0
    9.3119   -7.9320   48.2692 C   0  0  0  0  0  0  0  0  0  0  0  0
   13.1147   -7.1225   48.4683 O   0  0  0  0  0  0  0  0  0  0  0  0
  1  2  1  0
  2  3  2  0
  3  4  1  0
  1  5  2  0
  4  5  1  0
  4  6  2  0
  5  7  1  0
  7  8  2  0
  6  9  1  0
  3 10  1  0
  9 11  2  0
 10 11  1  0
  7 12  1  0
 12 13  2  0
  9 14  1  0
 11 15  1  0
 14 16  1  0
 13 17  1  0
 16 18  1  0
 14 19  2  0
 15 20  2  0
 19 20  1  0
 19 21  1  0
 21 22  2  0
  8 23  1  0
 17 23  2  0
 21 24  1  0
 24 25  1  0
 18 26  2  0
 25 27  1  0
 18 28  1  0
 27 29  2  0
 27 30  1  0
 22 31  1  0
 25 31  2  0
 30 32  1  0
 29 33  1  0
 33 34  1  6
 31 35  1  0
 34 35  1  0
 29 36  1  0
 33 37  1  0
 36 38  2  0
 28 39  1  0
 32 39  1  0
 30 40  2  0
 38 40  1  0
 36 41  1  0
 37 41  1  0
M  END
$$$$
O14757_Pocket2Mol_idx-in-all-generaetd-1005
     RDKit          3D

 38 44  0  0  0  0  0  0  0  0999 V2000
    1.5482   -0.3111   41.9233 C   0  0  0  0  0  0  0  0  0  0  0  0
    2.7284    0.2018   42.1525 N   0  0  0  0  0  0  0  0  0  0  0  0
    3.7893   -0.3016   42.7005 C   0  0  0  0  0  0  0  0  0  0  0  0
    3.3781   -1.7350   43.0000 C   0  0  0  0  0  0  0  0  0  0  0  0
    2.0339   -1.9619   42.6217 C   0  0  0  0  0  0  0  0  0  0  0  0
    4.1166   -2.4997   43.8458 C   0  0  0  0  0  0  0  0  0  0  0  0
    1.1731   -3.0051   42.5773 C   0  0  0  0  0  0  0  0  0  0  0  0
    0.4701   -3.2344   41.4901 C   0  0  0  0  0  0  0  0  0  0  0  0
    5.3799   -1.7814   44.2691 C   0  0  0  0  0  0  0  0  0  0  0  0
    5.0159   -0.0180   43.1201 N   0  0  0  0  0  0  0  0  0  0  0  0
    5.7693   -0.6937   43.8418 C   0  0  0  0  0  0  0  0  0  0  0  0
    0.8078   -3.6166   43.6782 C   0  0  0  0  0  0  0  0  0  0  0  0
    0.0663   -4.7011   43.7415 N   0  0  0  0  0  0  0  0  0  0  0  0
    6.2223   -2.6843   45.1565 C   0  0  0  0  0  0  0  0  0  0  0  0
    6.9599   -0.2351   44.2608 N   0  0  0  0  0  0  0  0  0  0  0  0
    5.9065   -3.9037   45.7499 N   0  0  0  0  0  0  0  0  0  0  0  0
   -0.5459   -5.1185   42.5870 C   0  0  0  0  0  0  0  0  0  0  0  0
    5.7480   -4.0340   46.9810 C   0  0  0  0  0  0  0  0  0  0  0  0
    7.4448   -1.8511   45.4198 C   0  0  0  0  0  0  0  0  0  0  0  0
    7.7572   -0.7827   45.0128 C   0  0  0  0  0  0  0  0  0  0  0  0
    8.4076   -2.7217   46.4541 C   0  0  0  0  0  0  0  0  0  0  0  0
    9.3167   -2.0988   47.1049 N   0  0  0  0  0  0  0  0  0  0  0  0
   -0.4719   -4.3893   41.5406 C   0  0  0  0  0  0  0  0  0  0  0  0
    8.3667   -4.0284   46.5743 N   0  0  0  0  0  0  0  0  0  0  0  0
    9.5309   -4.3147   47.3094 C   0  0  0  0  0  0  0  0  0  0  0  0
    5.3113   -3.3789   47.8005 O   0  0  0  0  0  0  0  0  0  0  0  0
    9.9022   -5.6301   47.7684 C   0  0  0  0  0  0  0  0  0  0  0  0
    5.4470   -5.5868   47.2096 C   0  0  0  0  0  0  0  0  0  0  0  0
   11.2254   -5.8679   48.0402 C   0  0  0  0  0  0  0  0  0  0  0  0
    8.9736   -6.6532   47.8548 C   0  0  0  0  0  0  0  0  0  0  0  0
   10.0616   -3.0670   47.6360 C   0  0  0  0  0  0  0  0  0  0  0  0
    7.5566   -6.3564   47.5477 N   0  0  0  0  0  0  0  0  0  0  0  0
    6.6446   -6.7176   48.4005 C   0  0  0  0  0  0  0  0  0  0  0  0
   11.6653   -7.1422   48.3512 C   0  0  0  0  0  0  0  0  0  0  0  0
    9.3831   -7.8679   48.1519 C   0  0  0  0  0  0  0  0  0  0  0  0
   10.6649   -8.1475   48.4476 C   0  0  0  0  0  0  0  0  0  0  0  0
    5.3937   -6.0252   48.4176 N   0  0  0  0  0  0  0  0  0  0  0  0
    6.7851   -7.5071   49.4277 O   0  0  0  0  0  0  0  0  0  0  0  0
  1  2  1  0
  2  3  2  0
  3  4  1  0
  1  5  2  0
  4  5  1  0
  4  6  2  0
  5  7  1  0
  7  8  2  0
  6  9  1  0
  3 10  1  0
  9 11  2  0
 10 11  1  0
  7 12  1  0
 12 13  2  0
  9 14  1  0
 11 15  1  0
 14 16  1  0
 13 17  1  0
 16 18  1  0
 14 19  2  0
 15 20  2  0
 19 20  1  0
 19 21  1  0
 21 22  2  0
  8 23  1  0
 17 23  2  0
 21 24  1  0
 24 25  1  0
 18 26  2  0
 25 27  1  0
 18 28  1  0
 27 29  2  0
 27 30  1  0
 22 31  1  0
 25 31  2  0
 30 32  1  0
 32 33  1  0
 29 34  1  0
 30 35  2  0
 34 36  2  0
 35 36  1  0
 28 37  1  0
 33 37  1  0
 33 38  2  0
M  END
$$$$
O14757_Pocket2Mol_idx-in-all-generaetd-1006
     RDKit          3D

 36 39  0  0  0  0  0  0  0  0999 V2000
    3.7044    0.1389   42.5158 N   0  0  0  0  0  0  0  0  0  0  0  0
    3.0206   -1.0018   42.4929 C   0  0  0  0  0  0  0  0  0  0  0  0
    3.4791   -2.0817   43.2077 C   0  0  0  0  0  0  0  0  0  0  0  0
    4.8540    0.3862   43.0582 N   0  0  0  0  0  0  0  0  0  0  0  0
    5.1377   -0.9552   43.7144 C   0  0  0  0  0  0  0  0  0  0  0  0
    1.5846   -1.0753   41.7644 C   0  0  0  0  0  0  0  0  0  0  0  0
    4.6026   -2.0358   43.8129 C   0  0  0  0  0  0  0  0  0  0  0  0
    5.1584   -3.1511   44.6069 C   0  0  0  0  0  0  0  0  0  0  0  0
    6.6094   -0.7911   44.3696 N   0  0  0  0  0  0  0  0  0  0  0  0
    4.4744   -4.3270   44.8472 C   0  0  0  0  0  0  0  0  0  0  0  0
    6.9275   -1.8713   45.2437 C   0  0  0  0  0  0  0  0  0  0  0  0
    8.2702   -1.7750   45.8768 C   0  0  0  0  0  0  0  0  0  0  0  0
    0.9365   -0.0867   41.7346 O   0  0  0  0  0  0  0  0  0  0  0  0
    6.2322   -3.0484   45.3118 C   0  0  0  0  0  0  0  0  0  0  0  0
    6.7747   -4.0433   46.1202 N   0  0  0  0  0  0  0  0  0  0  0  0
    1.2161   -2.2739   41.2518 N   0  0  0  0  0  0  0  0  0  0  0  0
    9.0373   -0.5649   45.9132 O   0  0  0  0  0  0  0  0  0  0  0  0
    3.8907   -5.0906   43.9511 O   0  0  0  0  0  0  0  0  0  0  0  0
    4.3454   -4.8388   46.1621 N   0  0  0  0  0  0  0  0  0  0  0  0
    3.4531   -5.8952   46.4159 C   0  0  0  0  0  0  0  0  0  0  0  0
    8.6904   -2.8983   46.6073 N   0  0  0  0  0  0  0  0  0  0  0  0
    7.9257   -3.9393   46.7384 C   0  0  0  0  0  0  0  0  0  0  0  0
    8.4765   -4.8975   47.5307 O   0  0  0  0  0  0  0  0  0  0  0  0
   10.0100   -2.6771   47.3464 C   0  0  0  0  0  0  0  0  0  0  0  0
   10.0326   -1.8380   48.3764 C   0  0  0  0  0  0  0  0  0  0  0  0
   11.1123   -3.0851   46.6870 C   0  0  0  0  0  0  0  0  0  0  0  0
   11.1072   -3.8213   45.4597 C   0  0  0  0  0  0  0  0  0  0  0  0
   11.0296   -5.0092   45.4509 C   0  0  0  0  0  0  0  0  0  0  0  0
   12.3326   -2.5048   47.0028 C   0  0  0  0  0  0  0  0  0  0  0  0
   11.2651   -1.5297   48.9347 C   0  0  0  0  0  0  0  0  0  0  0  0
   11.1419   -5.9062   44.4986 C   0  0  0  0  0  0  0  0  0  0  0  0
   13.5603   -2.8807   46.4031 C   0  0  0  0  0  0  0  0  0  0  0  0
   11.3044   -0.8406   50.2725 C   0  0  0  0  0  0  0  0  0  0  0  0
   14.4904   -1.9844   46.3447 O   0  0  0  0  0  0  0  0  0  0  0  0
   12.4157   -1.8603   48.2921 C   0  0  0  0  0  0  0  0  0  0  0  0
   13.7780   -4.0718   46.3134 O   0  0  0  0  0  0  0  0  0  0  0  0
  1  2  2  0
  2  3  1  0
  1  4  1  0
  4  5  2  0
  2  6  1  0
  3  7  2  0
  5  7  1  0
  7  8  1  0
  5  9  1  0
  8 10  1  0
  9 11  2  0
 11 12  1  0
  6 13  2  0
  8 14  2  0
 11 14  1  0
 14 15  1  0
  6 16  1  0
 12 17  2  0
 10 18  2  0
 10 19  1  0
 19 20  1  0
 12 21  1  0
 15 22  1  0
 21 22  1  0
 22 23  2  0
 21 24  1  0
 24 25  2  0
 24 26  1  0
 26 27  1  0
 27 28  2  3
 26 29  2  0
 25 30  1  0
 28 31  1  0
 29 32  1  0
 30 33  1  0
 32 34  2  0
 29 35  1  0
 30 35  2  0
 32 36  1  0
M  END
$$$$
O14757_Pocket2Mol_idx-in-all-generaetd-1007
     RDKit          3D

 29 32  0  0  0  0  0  0  0  0999 V2000
    1.5482   -0.3111   41.9233 C   0  0  0  0  0  0  0  0  0  0  0  0
    2.7284    0.2018   42.1525 N   0  0  0  0  0  0  0  0  0  0  0  0
    3.7893   -0.3016   42.7005 C   0  0  0  0  0  0  0  0  0  0  0  0
    3.3781   -1.7350   43.0000 C   0  0  0  0  0  0  0  0  0  0  0  0
    2.0339   -1.9619   42.6217 C   0  0  0  0  0  0  0  0  0  0  0  0
    4.1166   -2.4997   43.8458 C   0  0  0  0  0  0  0  0  0  0  0  0
    1.1731   -3.0051   42.5773 C   0  0  0  0  0  0  0  0  0  0  0  0
    0.4701   -3.2344   41.4901 C   0  0  0  0  0  0  0  0  0  0  0  0
    5.3799   -1.7814   44.2691 C   0  0  0  0  0  0  0  0  0  0  0  0
    5.0159   -0.0180   43.1201 N   0  0  0  0  0  0  0  0  0  0  0  0
    5.7693   -0.6937   43.8418 C   0  0  0  0  0  0  0  0  0  0  0  0
    0.8078   -3.6166   43.6782 C   0  0  0  0  0  0  0  0  0  0  0  0
    0.0663   -4.7011   43.7415 N   0  0  0  0  0  0  0  0  0  0  0  0
    6.2223   -2.6843   45.1565 C   0  0  0  0  0  0  0  0  0  0  0  0
    6.9599   -0.2351   44.2608 N   0  0  0  0  0  0  0  0  0  0  0  0
    5.9065   -3.9037   45.7499 N   0  0  0  0  0  0  0  0  0  0  0  0
   -0.5459   -5.1185   42.5870 C   0  0  0  0  0  0  0  0  0  0  0  0
    5.7480   -4.0340   46.9810 C   0  0  0  0  0  0  0  0  0  0  0  0
    7.4448   -1.8511   45.4198 C   0  0  0  0  0  0  0  0  0  0  0  0
    7.7572   -0.7827   45.0128 C   0  0  0  0  0  0  0  0  0  0  0  0
    8.4076   -2.7217   46.4541 C   0  0  0  0  0  0  0  0  0  0  0  0
   -0.4300   -4.3234   41.4332 C   0  0  0  0  0  0  0  0  0  0  0  0
    8.2931   -3.8590   46.7499 O   0  0  0  0  0  0  0  0  0  0  0  0
    9.4070   -1.9048   46.9627 O   0  0  0  0  0  0  0  0  0  0  0  0
   10.4233   -2.5420   47.5640 C   0  0  0  0  0  0  0  0  0  0  0  0
   11.5675   -2.4325   46.7003 C   0  0  0  0  0  0  0  0  0  0  0  0
   11.8262   -1.2794   46.1834 O   0  0  0  0  0  0  0  0  0  0  0  0
   12.3196   -3.4055   46.4162 O   0  0  0  0  0  0  0  0  0  0  0  0
   13.6095   -3.1389   46.0977 O   0  0  0  0  0  0  0  0  0  0  0  0
  1  2  1  0
  2  3  2  0
  3  4  1  0
  1  5  2  0
  4  5  1  0
  4  6  2  0
  5  7  1  0
  7  8  2  0
  6  9  1  0
  3 10  1  0
  9 11  2  0
 10 11  1  0
  7 12  1  0
 12 13  2  0
  9 14  1  0
 11 15  1  0
 14 16  1  0
 13 17  1  0
 16 18  1  0
 14 19  2  0
 15 20  2  0
 19 20  1  0
 19 21  1  0
  8 22  1  0
 17 22  2  0
 21 23  2  0
 21 24  1  0
 24 25  1  0
 25 26  1  0
 26 27  2  0
 26 28  1  0
 28 29  1  0
M  END
$$$$
O14757_Pocket2Mol_idx-in-all-generaetd-1008
     RDKit          3D

 47 55  0  0  0  0  0  0  0  0999 V2000
    1.5482   -0.3111   41.9233 C   0  0  0  0  0  0  0  0  0  0  0  0
    2.7284    0.2018   42.1525 N   0  0  0  0  0  0  0  0  0  0  0  0
    3.7893   -0.3016   42.7005 C   0  0  0  0  0  0  0  0  0  0  0  0
    3.3781   -1.7350   43.0000 C   0  0  0  0  0  0  0  0  0  0  0  0
    2.0339   -1.9619   42.6217 C   0  0  0  0  0  0  0  0  0  0  0  0
    5.0090    0.1219   42.9340 N   0  0  0  0  0  0  0  0  0  0  0  0
    4.2895   -2.4979   43.6707 C   0  0  0  0  0  0  0  0  0  0  0  0
    5.8391   -0.6675   43.6343 C   0  0  0  0  0  0  0  0  0  0  0  0
    6.9849   -0.2377   44.0028 N   0  0  0  0  0  0  0  0  0  0  0  0
    4.0426   -3.8794   44.0832 C   0  0  0  0  0  0  0  0  0  0  0  0
    7.6796   -0.8734   44.9326 C   0  0  0  0  0  0  0  0  0  0  0  0
    1.1064   -2.9576   42.4211 C   0  0  0  0  0  0  0  0  0  0  0  0
    5.5298   -1.9496   44.0315 C   0  0  0  0  0  0  0  0  0  0  0  0
    3.8954   -4.1817   45.4718 C   0  0  0  0  0  0  0  0  0  0  0  0
    0.6765   -3.5480   43.4006 C   0  0  1  0  0  0  0  0  0  0  0  0
    0.5804   -3.2191   41.1635 C   0  0  0  0  0  0  0  0  0  0  0  0
    2.8083   -4.8227   45.9203 N   0  0  0  0  0  0  0  0  0  0  0  0
   -0.1574   -4.5754   42.9329 N   0  0  0  0  0  0  0  0  0  0  0  0
    6.5271   -2.5531   44.9677 C   0  0  0  0  0  0  0  0  0  0  0  0
   -0.2272   -4.3703   41.5137 C   0  0  0  0  0  0  0  0  0  0  0  0
    7.5095   -2.0029   45.3993 C   0  0  0  0  0  0  0  0  0  0  0  0
    8.2550   -2.6982   46.3988 C   0  0  0  0  0  0  0  0  0  0  0  0
    8.8975   -0.3029   45.3267 O   0  0  0  0  0  0  0  0  0  0  0  0
    4.8299   -4.4637   46.4212 C   0  0  0  0  0  0  0  0  0  0  0  0
    4.2707   -4.9248   47.6295 N   0  0  0  0  0  0  0  0  0  0  0  0
    3.2045   -5.2092   47.1521 C   0  0  0  0  0  0  0  0  0  0  0  0
    1.4482   -4.6186   45.4134 C   0  0  1  0  0  0  0  0  0  0  0  0
    1.2398   -3.5043   44.6236 O   0  0  0  0  0  0  0  0  0  0  0  0
    6.3317   -3.9297   46.0870 C   0  0  2  0  0  0  0  0  0  0  0  0
    9.5296   -2.5449   46.9776 C   0  0  0  0  0  0  0  0  0  0  0  0
    9.7921   -1.7530   47.9018 O   0  0  0  0  0  0  0  0  0  0  0  0
    7.3972   -3.8130   46.7939 C   0  0  0  0  0  0  0  0  0  0  0  0
    1.2392   -5.7793   44.5610 C   0  0  0  0  0  0  0  0  0  0  0  0
   10.4982   -3.2564   46.4837 N   0  0  0  0  0  0  0  0  0  0  0  0
   10.3664   -4.3024   45.6489 C   0  0  0  0  0  0  0  0  0  0  0  0
   11.8563   -2.7253   46.7001 C   0  0  0  0  0  0  0  0  0  0  0  0
   12.5920   -2.4093   45.4967 C   0  0  0  0  0  0  0  0  0  0  0  0
   10.3017   -5.6302   46.4426 C   0  0  0  0  0  0  0  0  0  0  0  0
   13.9027   -1.9790   45.6656 C   0  0  0  0  0  0  0  0  0  0  0  0
   14.7333   -1.6417   44.4234 C   0  0  0  0  0  0  0  0  0  0  0  0
   14.3053   -1.7239   46.9264 C   0  0  0  0  0  0  0  0  0  0  0  0
   12.3313   -2.4719   47.9110 C   0  0  0  0  0  0  0  0  0  0  0  0
   11.6262   -2.7678   49.1275 O   0  0  0  0  0  0  0  0  0  0  0  0
   15.9140   -1.9348   44.3837 O   0  0  0  0  0  0  0  0  0  0  0  0
   14.1303   -1.1004   43.4631 O   0  0  0  0  0  0  0  0  0  0  0  0
   15.7029   -1.1953   47.0639 O   0  0  0  0  0  0  0  0  0  0  0  0
   13.6489   -1.9884   48.0685 C   0  0  0  0  0  0  0  0  0  0  0  0
  1  2  1  0
  2  3  2  0
  3  4  1  0
  1  5  2  0
  4  5  1  0
  3  6  1  0
  4  7  2  0
  6  8  1  0
  8  9  1  0
  7 10  1  0
  9 11  1  0
  5 12  1  0
  7 13  1  0
  8 13  2  0
 10 14  1  0
 12 15  1  0
 12 16  2  0
 14 17  1  0
 15 18  1  0
 13 19  1  0
 16 20  1  0
 18 20  2  0
 11 21  1  0
 19 21  2  0
 21 22  1  0
 11 23  2  0
 14 24  2  0
 24 25  1  0
 17 26  1  0
 25 26  2  0
 17 27  1  0
 15 28  1  6
 27 28  1  0
 19 29  1  0
 24 29  1  0
 22 30  1  0
 30 31  2  0
 22 32  2  0
 29 32  1  1
 27 33  1  6
 30 34  1  0
 34 35  1  0
 34 36  1  0
 36 37  2  0
 35 38  1  0
 37 39  1  0
 39 40  1  0
 39 41  2  0
 36 42  1  0
 42 43  1  0
 40 44  2  0
 40 45  1  0
 41 46  1  0
 41 47  1  0
 42 47  2  0
M  END
$$$$
O14757_Pocket2Mol_idx-in-all-generaetd-1009
     RDKit          3D

 28 31  0  0  0  0  0  0  0  0999 V2000
    1.5482   -0.3111   41.9233 C   0  0  0  0  0  0  0  0  0  0  0  0
    2.7284    0.2018   42.1525 N   0  0  0  0  0  0  0  0  0  0  0  0
    3.7893   -0.3016   42.7005 C   0  0  0  0  0  0  0  0  0  0  0  0
    3.3781   -1.7350   43.0000 C   0  0  0  0  0  0  0  0  0  0  0  0
    2.0339   -1.9619   42.6217 C   0  0  0  0  0  0  0  0  0  0  0  0
    5.0090    0.1219   42.9340 N   0  0  0  0  0  0  0  0  0  0  0  0
    4.2895   -2.4979   43.6707 C   0  0  0  0  0  0  0  0  0  0  0  0
    5.8391   -0.6675   43.6343 C   0  0  0  0  0  0  0  0  0  0  0  0
    6.9849   -0.2377   44.0028 N   0  0  0  0  0  0  0  0  0  0  0  0
    4.0426   -3.8794   44.0832 C   0  0  0  0  0  0  0  0  0  0  0  0
    7.6796   -0.8734   44.9326 C   0  0  0  0  0  0  0  0  0  0  0  0
    1.1064   -2.9576   42.4211 C   0  0  0  0  0  0  0  0  0  0  0  0
    5.5298   -1.9496   44.0315 C   0  0  0  0  0  0  0  0  0  0  0  0
    3.8954   -4.1817   45.4718 C   0  0  0  0  0  0  0  0  0  0  0  0
    0.6765   -3.5480   43.4006 C   0  0  0  0  0  0  0  0  0  0  0  0
    0.5804   -3.2191   41.1635 C   0  0  0  0  0  0  0  0  0  0  0  0
    2.8083   -4.8227   45.9203 N   0  0  0  0  0  0  0  0  0  0  0  0
   -0.1574   -4.5754   42.9329 N   0  0  0  0  0  0  0  0  0  0  0  0
    6.5271   -2.5531   44.9677 C   0  0  0  0  0  0  0  0  0  0  0  0
   -0.2272   -4.3703   41.5137 C   0  0  0  0  0  0  0  0  0  0  0  0
    7.5095   -2.0029   45.3993 C   0  0  0  0  0  0  0  0  0  0  0  0
    8.2550   -2.6982   46.3988 C   0  0  0  0  0  0  0  0  0  0  0  0
    4.4030   -3.3432   46.3770 O   0  0  0  0  0  0  0  0  0  0  0  0
    8.9249   -0.3105   45.3298 O   0  0  0  0  0  0  0  0  0  0  0  0
    9.0896   -2.1477   47.2341 O   0  0  0  0  0  0  0  0  0  0  0  0
    8.3325   -4.0713   46.4618 O   0  0  0  0  0  0  0  0  0  0  0  0
    9.7474   -2.9087   48.1318 C   0  0  0  0  0  0  0  0  0  0  0  0
    2.2759   -5.9969   45.3875 C   0  0  0  0  0  0  0  0  0  0  0  0
  1  2  1  0
  2  3  2  0
  3  4  1  0
  1  5  2  0
  4  5  1  0
  3  6  1  0
  4  7  2  0
  6  8  1  0
  8  9  1  0
  7 10  1  0
  9 11  1  0
  5 12  1  0
  7 13  1  0
  8 13  2  0
 10 14  1  0
 12 15  1  0
 12 16  2  0
 14 17  1  0
 15 18  1  0
 13 19  1  0
 16 20  1  0
 18 20  2  0
 11 21  1  0
 19 21  2  0
 21 22  1  0
 14 23  2  0
 11 24  2  0
 22 25  1  0
 22 26  2  0
 25 27  1  0
 17 28  1  0
M  END
$$$$
O14757_Pocket2Mol_idx-in-all-generaetd-1010
     RDKit          3D

 28 32  0  0  0  0  0  0  0  0999 V2000
    5.3420    0.2589   42.8836 N   0  0  0  0  0  0  0  0  0  0  0  0
    5.6740   -0.8311   43.5645 C   0  0  0  0  0  0  0  0  0  0  0  0
    6.8416   -0.9240   44.3627 N   0  0  0  0  0  0  0  0  0  0  0  0
    4.1141    0.2821   42.2689 C   0  0  0  0  0  0  0  0  0  0  0  0
    3.2237   -0.7484   42.3921 N   0  0  0  0  0  0  0  0  0  0  0  0
    6.8097   -1.9585   45.3182 C   0  0  0  0  0  0  0  0  0  0  0  0
    3.5007   -1.8060   43.1511 C   0  0  0  0  0  0  0  0  0  0  0  0
    4.7020   -1.8573   43.8328 C   0  0  0  0  0  0  0  0  0  0  0  0
    5.4887   -2.6670   44.9856 C   0  0  0  0  0  0  0  0  0  0  0  0
    2.5208   -2.8458   43.2671 C   0  0  0  0  0  0  0  0  0  0  0  0
    2.6558   -3.8570   44.2541 C   0  0  0  0  0  0  0  0  0  0  0  0
    7.6468   -2.3589   46.2854 C   0  0  0  0  0  0  0  0  0  0  0  0
    3.8579   -4.1296   44.9532 N   0  0  0  0  0  0  0  0  0  0  0  0
    1.3096   -2.7520   42.6410 C   0  0  0  0  0  0  0  0  0  0  0  0
    4.9776   -3.8402   45.4939 C   0  0  0  0  0  0  0  0  0  0  0  0
    8.7023   -1.6088   46.4743 C   0  0  0  0  0  0  0  0  0  0  0  0
    9.5984   -1.8433   47.5139 C   0  0  0  0  0  0  0  0  0  0  0  0
    7.3782   -3.4221   47.2077 C   0  0  0  0  0  0  0  0  0  0  0  0
    1.5977   -4.7338   44.4801 C   0  0  0  0  0  0  0  0  0  0  0  0
    1.0668   -1.7644   41.4981 C   0  0  0  0  0  0  0  0  0  0  0  0
   10.8175   -0.9959   47.6882 O   0  0  0  0  0  0  0  0  0  0  0  0
   11.6053   -1.2371   48.6095 C   0  0  0  0  0  0  0  0  0  0  0  0
   -0.3186   -1.6426   41.0215 C   0  0  0  0  0  0  0  0  0  0  0  0
    1.8584   -5.7454   45.4687 O   0  0  0  0  0  0  0  0  0  0  0  0
    0.3104   -3.7806   42.8947 C   0  0  0  0  0  0  0  0  0  0  0  0
    0.4680   -4.7734   43.7735 C   0  0  0  0  0  0  0  0  0  0  0  0
    9.4054   -2.8761   48.3286 C   0  0  0  0  0  0  0  0  0  0  0  0
    8.2884   -3.6566   48.2035 C   0  0  0  0  0  0  0  0  0  0  0  0
  1  2  2  0
  2  3  1  0
  1  4  1  0
  4  5  2  0
  3  6  1  0
  5  7  1  0
  2  8  1  0
  7  8  2  0
  6  9  2  0
  8  9  1  0
  7 10  1  0
 10 11  2  0
  6 12  1  0
 11 13  1  0
 10 14  1  0
  9 15  1  0
 13 15  1  0
 12 16  2  0
 16 17  1  0
 12 18  1  0
 11 19  1  0
 14 20  1  0
 17 21  1  0
 21 22  1  0
 20 23  1  0
 19 24  1  0
 14 25  2  0
 19 26  2  0
 25 26  1  0
 17 27  2  0
 18 28  2  0
 27 28  1  0
M  END
$$$$
O14757_Pocket2Mol_idx-in-all-generaetd-1011
     RDKit          3D

 35 41  0  0  0  0  0  0  0  0999 V2000
    4.8037   -0.1366   42.7100 N   0  0  0  0  0  0  0  0  0  0  0  0
    3.6577   -0.7759   42.7186 C   0  0  0  0  0  0  0  0  0  0  0  0
    3.6660   -1.8665   43.4760 C   0  0  0  0  0  0  0  0  0  0  0  0
    2.7271   -2.8718   43.6599 C   0  0  0  0  0  0  0  0  0  0  0  0
    2.4846   -0.2994   42.1254 N   0  0  0  0  0  0  0  0  0  0  0  0
    5.0524   -1.7697   43.9367 C   0  0  0  0  0  0  0  0  0  0  0  0
    1.4917   -2.9000   43.0914 C   0  0  0  0  0  0  0  0  0  0  0  0
    3.1274   -3.9503   44.5163 C   0  0  0  0  0  0  0  0  0  0  0  0
    1.0744   -1.9066   42.1491 C   0  0  2  0  0  0  0  0  0  0  0  0
    5.6624   -0.7003   43.4895 C   0  0  0  0  0  0  0  0  0  0  0  0
    5.5753   -2.5784   45.0324 C   0  0  0  0  0  0  0  0  0  0  0  0
    0.4030   -3.6297   43.4883 N   0  0  0  0  0  0  0  0  0  0  0  0
    1.5052   -0.8077   41.7519 C   0  0  0  0  0  0  0  0  0  0  0  0
   -0.5645   -3.4039   42.5585 N   0  0  0  0  0  0  0  0  0  0  0  0
    2.5059   -5.1012   44.7935 C   0  0  0  0  0  0  0  0  0  0  0  0
    4.4581   -3.8218   45.2947 C   0  0  0  0  0  0  0  0  0  0  0  0
   -0.3089   -2.3979   41.8128 C   0  0  0  0  0  0  0  0  0  0  0  0
    6.6435   -2.6577   45.6991 C   0  0  0  0  0  0  0  0  0  0  0  0
    7.0869   -3.7008   46.4717 C   0  0  0  0  0  0  0  0  0  0  0  0
    7.5912   -1.5296   45.5455 C   0  0  0  0  0  0  0  0  0  0  0  0
    8.7765   -1.4352   46.2248 C   0  0  0  0  0  0  0  0  0  0  0  0
    6.3069   -4.7944   46.6836 O   0  0  0  0  0  0  0  0  0  0  0  0
    4.8984   -4.5252   46.1302 C   0  0  0  0  0  0  0  0  0  0  0  0
    4.2122   -5.9932   46.2216 C   0  0  0  0  0  0  0  0  0  0  0  0
    8.3395   -3.6608   47.2172 C   0  0  0  0  0  0  0  0  0  0  0  0
    4.6690   -6.8778   47.1549 O   0  0  0  0  0  0  0  0  0  0  0  0
    9.1822   -2.5745   47.1243 C   0  0  0  0  0  0  0  0  0  0  0  0
    2.9603   -6.0414   45.6688 C   0  0  0  0  0  0  0  0  0  0  0  0
   10.4349   -2.3996   47.8362 C   0  0  0  0  0  0  0  0  0  0  0  0
   10.5770   -1.5405   48.6790 O   0  0  0  0  0  0  0  0  0  0  0  0
   11.4736   -2.9717   47.2121 O   0  0  0  0  0  0  0  0  0  0  0  0
   12.5933   -2.4739   47.2623 C   0  0  0  0  0  0  0  0  0  0  0  0
   13.5953   -3.3472   47.6421 C   0  0  0  0  0  0  0  0  0  0  0  0
   13.5116   -4.5719   47.3764 C   0  0  0  0  0  0  0  0  0  0  0  0
   14.3836   -5.0995   46.3577 O   0  0  0  0  0  0  0  0  0  0  0  0
  1  2  2  0
  2  3  1  0
  3  4  2  0
  2  5  1  0
  3  6  1  0
  4  7  1  0
  4  8  1  0
  7  9  1  0
  1 10  1  0
  6 10  1  0
  6 11  2  0
  7 12  2  0
  5 13  2  0
  9 13  1  1
 12 14  1  0
  8 15  2  0
  8 16  1  0
 11 16  1  0
  9 17  1  0
 14 17  2  0
 11 18  1  0
 18 19  2  0
 18 20  1  0
 20 21  2  0
 19 22  1  0
 16 23  2  0
 22 23  1  0
 23 24  1  0
 19 25  1  0
 24 26  1  0
 21 27  1  0
 25 27  2  0
 15 28  1  0
 24 28  2  0
 27 29  1  0
 29 30  2  0
 29 31  1  0
 31 32  1  0
 32 33  1  0
 33 34  1  0
 34 35  1  0
M  END
$$$$
O14757_Pocket2Mol_idx-in-all-generaetd-1012
     RDKit          3D

 36 41  0  0  0  0  0  0  0  0999 V2000
    1.5482   -0.3111   41.9233 C   0  0  0  0  0  0  0  0  0  0  0  0
    2.7284    0.2018   42.1525 N   0  0  0  0  0  0  0  0  0  0  0  0
    3.7893   -0.3016   42.7005 C   0  0  0  0  0  0  0  0  0  0  0  0
    3.3781   -1.7350   43.0000 C   0  0  0  0  0  0  0  0  0  0  0  0
    2.0339   -1.9619   42.6217 C   0  0  0  0  0  0  0  0  0  0  0  0
    4.1166   -2.4997   43.8458 C   0  0  0  0  0  0  0  0  0  0  0  0
    1.1731   -3.0051   42.5773 C   0  0  0  0  0  0  0  0  0  0  0  0
    0.4701   -3.2344   41.4901 C   0  0  0  0  0  0  0  0  0  0  0  0
    5.3799   -1.7814   44.2691 C   0  0  0  0  0  0  0  0  0  0  0  0
    5.0159   -0.0180   43.1201 N   0  0  0  0  0  0  0  0  0  0  0  0
    5.7693   -0.6937   43.8418 C   0  0  0  0  0  0  0  0  0  0  0  0
    0.8078   -3.6166   43.6782 C   0  0  0  0  0  0  0  0  0  0  0  0
    0.0663   -4.7011   43.7415 N   0  0  0  0  0  0  0  0  0  0  0  0
    6.2223   -2.6843   45.1565 C   0  0  0  0  0  0  0  0  0  0  0  0
    6.9599   -0.2351   44.2608 N   0  0  0  0  0  0  0  0  0  0  0  0
    5.9065   -3.9037   45.7499 N   0  0  0  0  0  0  0  0  0  0  0  0
   -0.5459   -5.1185   42.5870 C   0  0  0  0  0  0  0  0  0  0  0  0
    5.7480   -4.0340   46.9810 C   0  0  0  0  0  0  0  0  0  0  0  0
    7.4448   -1.8511   45.4198 C   0  0  0  0  0  0  0  0  0  0  0  0
    7.7572   -0.7827   45.0128 C   0  0  0  0  0  0  0  0  0  0  0  0
    8.4076   -2.7217   46.4541 C   0  0  0  0  0  0  0  0  0  0  0  0
    9.3167   -2.0988   47.1049 N   0  0  0  0  0  0  0  0  0  0  0  0
   -0.4719   -4.3893   41.5406 C   0  0  0  0  0  0  0  0  0  0  0  0
    8.3667   -4.0284   46.5743 N   0  0  0  0  0  0  0  0  0  0  0  0
    9.5309   -4.3147   47.3094 C   0  0  0  0  0  0  0  0  0  0  0  0
    5.3113   -3.3789   47.8005 O   0  0  0  0  0  0  0  0  0  0  0  0
    9.9022   -5.6301   47.7684 C   0  0  0  0  0  0  0  0  0  0  0  0
    5.4470   -5.5868   47.2096 C   0  0  0  0  0  0  0  0  0  0  0  0
   11.2254   -5.8679   48.0402 C   0  0  0  0  0  0  0  0  0  0  0  0
   10.0516   -3.0534   47.7209 C   0  0  0  0  0  0  0  0  0  0  0  0
   11.5274   -7.2102   48.3725 C   0  0  0  0  0  0  0  0  0  0  0  0
    9.0023   -6.6738   47.5167 C   0  0  0  0  0  0  0  0  0  0  0  0
    9.3381   -7.9176   47.8145 C   0  0  0  0  0  0  0  0  0  0  0  0
    8.3400   -9.0109   47.7496 O   0  0  0  0  0  0  0  0  0  0  0  0
   10.5556   -8.2549   48.2724 C   0  0  0  0  0  0  0  0  0  0  0  0
    7.3516   -8.9961   48.6079 C   0  0  0  0  0  0  0  0  0  0  0  0
  1  2  1  0
  2  3  2  0
  3  4  1  0
  1  5  2  0
  4  5  1  0
  4  6  2  0
  5  7  1  0
  7  8  2  0
  6  9  1  0
  3 10  1  0
  9 11  2  0
 10 11  1  0
  7 12  1  0
 12 13  2  0
  9 14  1  0
 11 15  1  0
 14 16  1  0
 13 17  1  0
 16 18  1  0
 14 19  2  0
 15 20  2  0
 19 20  1  0
 19 21  1  0
 21 22  2  0
  8 23  1  0
 17 23  2  0
 21 24  1  0
 24 25  1  0
 18 26  2  0
 25 27  1  0
 18 28  1  0
 27 29  2  0
 22 30  1  0
 25 30  2  0
 29 31  1  0
 27 32  1  0
 32 33  2  0
 33 34  1  0
 31 35  2  0
 33 35  1  0
 34 36  1  0
M  END
$$$$
O14757_Pocket2Mol_idx-in-all-generaetd-1013
     RDKit          3D

 48 55  0  0  0  0  0  0  0  0999 V2000
    5.3420    0.2589   42.8836 O   0  0  0  0  0  0  0  0  0  0  0  0
    5.1627   -0.7554   43.4753 C   0  0  0  0  0  0  0  0  0  0  0  0
    4.0509   -1.4657   43.4177 N   0  0  0  0  0  0  0  0  0  0  0  0
    5.9969   -1.2317   44.6840 C   0  0  0  0  0  0  0  0  0  0  0  0
    2.9618   -1.1021   42.5918 C   0  0  1  0  0  0  0  0  0  0  0  0
    7.3392   -0.8596   44.8412 C   0  0  0  0  0  0  0  0  0  0  0  0
    1.9754   -2.0820   42.2741 C   0  0  0  0  0  0  0  0  0  0  0  0
    5.5910   -2.4282   45.3439 C   0  0  0  0  0  0  0  0  0  0  0  0
    6.5874   -2.9636   46.1581 C   0  0  0  0  0  0  0  0  0  0  0  0
    4.2763   -3.0680   45.0493 N   0  0  0  0  0  0  0  0  0  0  0  0
    3.6188   -2.5886   44.2024 C   0  0  0  0  0  0  0  0  0  0  0  0
    8.1921   -1.4071   45.7505 C   0  0  0  0  0  0  0  0  0  0  0  0
    1.0154   -1.8839   41.2980 C   0  0  0  0  0  0  0  0  0  0  0  0
    2.5720   -3.3564   43.9063 C   0  0  0  0  0  0  0  0  0  0  0  0
    0.2502   -2.8976   41.0751 C   0  0  0  0  0  0  0  0  0  0  0  0
    6.1761   -4.1775   47.0209 C   0  0  0  0  0  0  0  0  0  0  0  0
    1.7266   -3.1047   43.0115 C   0  0  2  0  0  0  0  0  0  0  0  0
    2.3696   -4.5367   44.7536 N   0  0  0  0  0  0  0  0  0  0  0  0
    1.2264   -5.2346   44.4693 C   0  0  0  0  0  0  0  0  0  0  0  0
    0.7187   -3.8955   42.5465 C   0  0  0  0  0  0  0  0  0  0  0  0
    9.4576   -0.8949   46.0327 N   0  0  0  0  0  0  0  0  0  0  0  0
    0.8625   -6.3901   45.2462 C   0  0  0  0  0  0  0  0  0  0  0  0
    7.6467   -2.5139   46.4892 C   0  0  0  0  0  0  0  0  0  0  0  0
   10.4908   -1.5336   45.8242 C   0  0  0  0  0  0  0  0  0  0  0  0
    0.3057   -4.9299   43.2909 C   0  0  0  0  0  0  0  0  0  0  0  0
   11.5916   -1.4291   46.7436 C   0  0  0  0  0  0  0  0  0  0  0  0
   10.5566   -2.3672   44.8649 O   0  0  0  0  0  0  0  0  0  0  0  0
    2.4730    0.2084   42.8389 O   0  0  0  0  0  0  0  0  0  0  0  0
   11.6027   -2.2081   47.7725 N   0  0  0  0  0  0  0  0  0  0  0  0
   12.6189   -0.5862   46.5415 C   0  0  0  0  0  0  0  0  0  0  0  0
   13.6413   -0.4484   47.4129 C   0  0  0  0  0  0  0  0  0  0  0  0
   10.4764   -3.1097   48.1134 C   0  0  0  0  0  0  0  0  0  0  0  0
    9.5762   -2.4717   49.0753 C   0  0  0  0  0  0  0  0  0  0  0  0
    9.7761   -1.2394   49.5167 C   0  0  0  0  0  0  0  0  0  0  0  0
    8.6397   -3.3252   49.7339 C   0  0  0  0  0  0  0  0  0  0  0  0
    8.9861   -0.7034   50.5819 C   0  0  0  0  0  0  0  0  0  0  0  0
   14.7137    0.5128   47.0925 C   0  0  0  0  0  0  0  0  0  0  0  0
    8.1815   -1.5423   51.2387 C   0  0  0  0  0  0  0  0  0  0  0  0
    8.4156   -4.7176   49.2102 O   0  0  0  0  0  0  0  0  0  0  0  0
   13.6915   -1.2597   48.4795 C   0  0  0  0  0  0  0  0  0  0  0  0
   14.7842   -1.1839   49.3622 C   0  0  0  0  0  0  0  0  0  0  0  0
   12.5774   -2.1710   48.6835 C   0  0  0  0  0  0  0  0  0  0  0  0
   14.8423   -1.9939   50.5370 O   0  0  0  0  0  0  0  0  0  0  0  0
    7.9254   -2.8787   50.8112 C   0  0  0  0  0  0  0  0  0  0  0  0
   14.6734    1.3692   45.9797 O   0  0  0  0  0  0  0  0  0  0  0  0
   15.7515    0.5735   47.7680 O   0  0  0  0  0  0  0  0  0  0  0  0
    7.1807   -5.2370   49.3980 C   0  0  0  0  0  0  0  0  0  0  0  0
    6.2664   -4.3768   48.3338 C   0  0  0  0  0  0  0  0  0  0  0  0
  1  2  2  0
  2  3  1  0
  2  4  1  0
  3  5  1  0
  4  6  2  0
  5  7  1  0
  4  8  1  0
  8  9  2  0
  8 10  1  0
  3 11  1  0
 10 11  2  0
  6 12  1  0
  7 13  2  0
 11 14  1  0
 13 15  1  0
  9 16  1  0
 17  7  1  6
 14 17  1  0
 14 18  2  0
 18 19  1  0
 15 20  2  0
 17 20  1  0
 12 21  1  0
 19 22  1  0
  9 23  1  0
 12 23  2  0
 21 24  1  0
 19 25  2  0
 20 25  1  0
 24 26  1  0
 24 27  2  0
  5 28  1  1
 26 29  1  0
 26 30  2  0
 30 31  1  0
 29 32  1  0
 32 33  1  0
 33 34  1  0
 33 35  2  0
 34 36  2  0
 31 37  1  0
 36 38  1  0
 35 39  1  0
 31 40  2  0
 40 41  1  0
 29 42  1  0
 40 42  1  0
 41 43  1  0
 35 44  1  0
 38 44  2  0
 37 45  1  0
 37 46  2  0
 39 47  1  0
 16 48  2  3
 47 48  1  0
M  END
$$$$
O14757_Pocket2Mol_idx-in-all-generaetd-1014
     RDKit          3D

 45 53  0  0  0  0  0  0  0  0999 V2000
    1.5482   -0.3111   41.9233 C   0  0  0  0  0  0  0  0  0  0  0  0
    2.7284    0.2018   42.1525 N   0  0  0  0  0  0  0  0  0  0  0  0
    3.7893   -0.3016   42.7005 C   0  0  0  0  0  0  0  0  0  0  0  0
    3.3781   -1.7350   43.0000 C   0  0  0  0  0  0  0  0  0  0  0  0
    2.0339   -1.9619   42.6217 C   0  0  0  0  0  0  0  0  0  0  0  0
    5.0090    0.1219   42.9340 N   0  0  0  0  0  0  0  0  0  0  0  0
    4.2895   -2.4979   43.6707 C   0  0  0  0  0  0  0  0  0  0  0  0
    5.8391   -0.6675   43.6343 C   0  0  0  0  0  0  0  0  0  0  0  0
    6.9849   -0.2377   44.0028 N   0  0  0  0  0  0  0  0  0  0  0  0
    4.0426   -3.8794   44.0832 C   0  0  0  0  0  0  0  0  0  0  0  0
    7.6796   -0.8734   44.9326 C   0  0  0  0  0  0  0  0  0  0  0  0
    1.1064   -2.9576   42.4211 C   0  0  0  0  0  0  0  0  0  0  0  0
    5.5298   -1.9496   44.0315 C   0  0  0  0  0  0  0  0  0  0  0  0
    3.8954   -4.1817   45.4718 C   0  0  0  0  0  0  0  0  0  0  0  0
    0.6765   -3.5480   43.4006 C   0  0  1  0  0  0  0  0  0  0  0  0
    0.5804   -3.2191   41.1635 C   0  0  0  0  0  0  0  0  0  0  0  0
    2.8083   -4.8227   45.9203 N   0  0  0  0  0  0  0  0  0  0  0  0
   -0.1574   -4.5754   42.9329 N   0  0  0  0  0  0  0  0  0  0  0  0
    6.5271   -2.5531   44.9677 C   0  0  0  0  0  0  0  0  0  0  0  0
   -0.2272   -4.3703   41.5137 C   0  0  0  0  0  0  0  0  0  0  0  0
    7.5095   -2.0029   45.3993 C   0  0  0  0  0  0  0  0  0  0  0  0
    8.2550   -2.6982   46.3988 C   0  0  0  0  0  0  0  0  0  0  0  0
    8.8975   -0.3029   45.3267 O   0  0  0  0  0  0  0  0  0  0  0  0
    4.8299   -4.4637   46.4212 C   0  0  0  0  0  0  0  0  0  0  0  0
    4.2707   -4.9248   47.6295 N   0  0  0  0  0  0  0  0  0  0  0  0
    3.2045   -5.2092   47.1521 C   0  0  0  0  0  0  0  0  0  0  0  0
    1.4482   -4.6186   45.4134 C   0  0  1  0  0  0  0  0  0  0  0  0
    1.2398   -3.5043   44.6236 O   0  0  0  0  0  0  0  0  0  0  0  0
    6.3317   -3.9297   46.0870 C   0  0  2  0  0  0  0  0  0  0  0  0
    9.5296   -2.5449   46.9776 C   0  0  0  0  0  0  0  0  0  0  0  0
    9.7921   -1.7530   47.9018 O   0  0  0  0  0  0  0  0  0  0  0  0
    7.3972   -3.8130   46.7939 C   0  0  0  0  0  0  0  0  0  0  0  0
    1.2392   -5.7793   44.5610 C   0  0  0  0  0  0  0  0  0  0  0  0
   10.4982   -3.2564   46.4837 N   0  0  0  0  0  0  0  0  0  0  0  0
   10.3664   -4.3024   45.6489 C   0  0  0  0  0  0  0  0  0  0  0  0
   11.8563   -2.7253   46.7001 C   0  0  0  0  0  0  0  0  0  0  0  0
   12.5920   -2.4093   45.4967 C   0  0  0  0  0  0  0  0  0  0  0  0
   10.3017   -5.6302   46.4426 C   0  0  0  0  0  0  0  0  0  0  0  0
   13.9027   -1.9790   45.6656 C   0  0  0  0  0  0  0  0  0  0  0  0
   12.3588   -2.5019   47.9049 C   0  0  0  0  0  0  0  0  0  0  0  0
   14.3482   -1.8556   47.0808 C   0  0  0  0  0  0  0  0  0  0  0  0
   15.7562   -1.3730   47.2074 C   0  0  0  0  0  0  0  0  0  0  0  0
   13.6705   -2.1198   47.9738 C   0  0  0  0  0  0  0  0  0  0  0  0
   16.5920   -1.4753   46.2743 O   0  0  0  0  0  0  0  0  0  0  0  0
   16.1315   -1.0337   48.3575 O   0  0  0  0  0  0  0  0  0  0  0  0
  1  2  1  0
  2  3  2  0
  3  4  1  0
  1  5  2  0
  4  5  1  0
  3  6  1  0
  4  7  2  0
  6  8  1  0
  8  9  1  0
  7 10  1  0
  9 11  1  0
  5 12  1  0
  7 13  1  0
  8 13  2  0
 10 14  1  0
 12 15  1  0
 12 16  2  0
 14 17  1  0
 15 18  1  0
 13 19  1  0
 16 20  1  0
 18 20  2  0
 11 21  1  0
 19 21  2  0
 21 22  1  0
 11 23  2  0
 14 24  2  0
 24 25  1  0
 17 26  1  0
 25 26  2  0
 17 27  1  0
 15 28  1  6
 27 28  1  0
 19 29  1  0
 24 29  1  0
 22 30  1  0
 30 31  2  0
 22 32  2  0
 29 32  1  1
 27 33  1  6
 30 34  1  0
 34 35  1  0
 34 36  1  0
 36 37  2  0
 35 38  1  0
 37 39  1  0
 36 40  1  0
 39 41  2  0
 41 42  1  0
 40 43  2  0
 41 43  1  0
 42 44  2  0
 42 45  1  0
M  END
$$$$
O14757_Pocket2Mol_idx-in-all-generaetd-1015
     RDKit          3D

 34 39  0  0  0  0  0  0  0  0999 V2000
    5.3420    0.2589   42.8836 O   0  0  0  0  0  0  0  0  0  0  0  0
    5.1627   -0.7554   43.4753 C   0  0  0  0  0  0  0  0  0  0  0  0
    4.0509   -1.4657   43.4177 N   0  0  0  0  0  0  0  0  0  0  0  0
    5.9969   -1.2317   44.6840 C   0  0  0  0  0  0  0  0  0  0  0  0
    2.9618   -1.1021   42.5918 C   0  0  1  0  0  0  0  0  0  0  0  0
    7.3392   -0.8596   44.8412 C   0  0  0  0  0  0  0  0  0  0  0  0
    1.9754   -2.0820   42.2741 C   0  0  0  0  0  0  0  0  0  0  0  0
    5.5910   -2.4282   45.3439 C   0  0  0  0  0  0  0  0  0  0  0  0
    6.5874   -2.9636   46.1581 C   0  0  0  0  0  0  0  0  0  0  0  0
    4.2763   -3.0680   45.0493 N   0  0  0  0  0  0  0  0  0  0  0  0
    3.6188   -2.5886   44.2024 C   0  0  0  0  0  0  0  0  0  0  0  0
    8.1921   -1.4071   45.7505 C   0  0  0  0  0  0  0  0  0  0  0  0
    1.0154   -1.8839   41.2980 C   0  0  0  0  0  0  0  0  0  0  0  0
    2.5720   -3.3564   43.9063 C   0  0  0  0  0  0  0  0  0  0  0  0
    0.2502   -2.8976   41.0751 C   0  0  0  0  0  0  0  0  0  0  0  0
    6.1761   -4.1775   47.0209 C   0  0  0  0  0  0  0  0  0  0  0  0
    1.7266   -3.1047   43.0115 C   0  0  2  0  0  0  0  0  0  0  0  0
    2.3696   -4.5367   44.7536 N   0  0  0  0  0  0  0  0  0  0  0  0
    1.2264   -5.2346   44.4693 C   0  0  0  0  0  0  0  0  0  0  0  0
    0.7187   -3.8955   42.5465 C   0  0  0  0  0  0  0  0  0  0  0  0
    9.4576   -0.8949   46.0327 N   0  0  0  0  0  0  0  0  0  0  0  0
    0.8625   -6.3901   45.2462 C   0  0  0  0  0  0  0  0  0  0  0  0
    7.6467   -2.5139   46.4892 C   0  0  0  0  0  0  0  0  0  0  0  0
   10.4908   -1.5336   45.8242 C   0  0  0  0  0  0  0  0  0  0  0  0
    0.3057   -4.9299   43.2909 C   0  0  0  0  0  0  0  0  0  0  0  0
   11.5916   -1.4291   46.7436 C   0  0  0  0  0  0  0  0  0  0  0  0
   10.5566   -2.3672   44.8649 O   0  0  0  0  0  0  0  0  0  0  0  0
   11.6051   -2.2111   47.7709 N   0  0  0  0  0  0  0  0  0  0  0  0
    2.4805    0.2099   42.8350 O   0  0  0  0  0  0  0  0  0  0  0  0
   12.6177   -0.5842   46.5430 C   0  0  0  0  0  0  0  0  0  0  0  0
   13.6401   -0.4467   47.4142 C   0  0  0  0  0  0  0  0  0  0  0  0
   13.6146   -1.1990   48.5196 C   0  0  0  0  0  0  0  0  0  0  0  0
   10.4916   -3.0956   48.0694 O   0  0  0  0  0  0  0  0  0  0  0  0
   12.4921   -2.0595   48.5785 C   0  0  0  0  0  0  0  0  0  0  0  0
  1  2  2  0
  2  3  1  0
  2  4  1  0
  3  5  1  0
  4  6  2  0
  5  7  1  0
  4  8  1  0
  8  9  2  0
  8 10  1  0
  3 11  1  0
 10 11  2  0
  6 12  1  0
  7 13  2  0
 11 14  1  0
 13 15  1  0
  9 16  1  0
 17  7  1  6
 14 17  1  0
 14 18  2  0
 18 19  1  0
 15 20  2  0
 17 20  1  0
 12 21  1  0
 19 22  1  0
  9 23  1  0
 12 23  2  0
 21 24  1  0
 19 25  2  0
 20 25  1  0
 24 26  1  0
 24 27  2  0
 26 28  2  0
  5 29  1  1
 26 30  1  0
 30 31  2  0
 31 32  1  0
 28 33  1  0
 28 34  1  0
 32 34  2  0
M  CHG  2  28   1  33  -1
M  END
$$$$
O14757_Pocket2Mol_idx-in-all-generaetd-1016
     RDKit          3D

 36 42  0  0  0  0  0  0  0  0999 V2000
    5.1775    0.2381   42.7925 N   0  0  0  0  0  0  0  0  0  0  0  0
    3.8485    0.3515   42.4285 N   0  0  0  0  0  0  0  0  0  0  0  0
    5.5201   -0.8216   43.5188 C   0  0  0  0  0  0  0  0  0  0  0  0
    4.5575   -1.7838   43.9113 C   0  0  0  0  0  0  0  0  0  0  0  0
    2.9777   -0.5504   42.6073 C   0  0  0  0  0  0  0  0  0  0  0  0
    4.8521   -2.9209   44.7316 C   0  0  0  0  0  0  0  0  0  0  0  0
    3.2351   -1.5675   43.1903 C   0  0  0  0  0  0  0  0  0  0  0  0
    1.6955   -0.2711   41.8967 C   0  0  0  0  0  0  0  0  0  0  0  0
    0.8864   -1.3663   42.0618 C   0  0  0  0  0  0  0  0  0  0  0  0
    2.3187   -2.7500   43.4543 C   0  0  0  0  0  0  0  0  0  0  0  0
    1.1071   -2.5907   42.7445 C   0  0  0  0  0  0  0  0  0  0  0  0
    6.0979   -2.8249   45.5633 C   0  0  0  0  0  0  0  0  0  0  0  0
    0.0423   -3.6939   42.8205 C   0  0  0  0  0  0  0  0  0  0  0  0
    4.2011   -4.0423   44.9363 C   0  0  0  0  0  0  0  0  0  0  0  0
    4.5424   -5.0339   45.7893 C   0  0  0  0  0  0  0  0  0  0  0  0
   -0.0110   -4.4040   41.6463 N   0  0  0  0  0  0  0  0  0  0  0  0
    2.8431   -3.9954   44.0809 C   0  0  0  0  0  0  0  0  0  0  0  0
    7.0703   -1.6758   45.5388 C   0  0  0  0  0  0  0  0  0  0  0  0
    6.5324   -3.6602   46.4424 C   0  0  0  0  0  0  0  0  0  0  0  0
    5.6842   -4.8828   46.5405 C   0  0  0  0  0  0  0  0  0  0  0  0
    6.7957   -0.7421   44.3455 N   0  0  0  0  0  0  0  0  0  0  0  0
   -0.5371   -3.9067   43.6730 O   0  0  0  0  0  0  0  0  0  0  0  0
    8.1253   -1.3380   46.2529 C   0  0  0  0  0  0  0  0  0  0  0  0
    8.4826   -2.3424   47.1646 C   0  0  0  0  0  0  0  0  0  0  0  0
    7.6160   -3.5262   47.3486 C   0  0  0  0  0  0  0  0  0  0  0  0
    9.6963   -2.1931   47.9970 C   0  0  0  0  0  0  0  0  0  0  0  0
    9.5527   -1.4028   48.9318 O   0  0  0  0  0  0  0  0  0  0  0  0
   10.7595   -2.8202   47.7301 O   0  0  0  0  0  0  0  0  0  0  0  0
   11.5009   -2.2828   46.6278 C   0  0  0  0  0  0  0  0  0  0  0  0
   12.6280   -1.6044   46.9222 C   0  0  0  0  0  0  0  0  0  0  0  0
   13.3270   -1.0085   45.8437 C   0  0  0  0  0  0  0  0  0  0  0  0
   13.3294   -1.4807   44.7187 C   0  0  0  0  0  0  0  0  0  0  0  0
   14.2954   -0.9482   43.6825 C   0  0  0  0  0  0  0  0  0  0  0  0
   11.2330   -3.1312   45.5311 C   0  0  0  0  0  0  0  0  0  0  0  0
   10.3678   -4.0018   45.2291 C   0  0  0  0  0  0  0  0  0  0  0  0
   12.2487   -2.5002   44.4805 C   0  0  0  0  0  0  0  0  0  0  0  0
  1  2  2  0
  1  3  1  0
  3  4  2  0
  2  5  1  0
  4  6  1  0
  4  7  1  0
  5  7  2  0
  5  8  1  0
  8  9  2  0
  7 10  1  0
  9 11  1  0
 10 11  2  0
  6 12  2  0
 11 13  1  0
  6 14  1  0
 14 15  2  0
 13 16  1  0
 10 17  1  0
 14 17  1  0
 12 18  1  0
 12 19  1  0
 15 20  1  0
 19 20  2  0
  3 21  1  0
 18 21  2  0
 13 22  2  0
 18 23  1  0
 23 24  2  0
 19 25  1  0
 24 25  1  0
 24 26  1  0
 26 27  2  0
 26 28  1  0
 28 29  1  0
 29 30  2  0
 30 31  1  0
 31 32  2  0
 32 33  1  0
 29 34  1  0
 34 35  1  0
 32 36  1  0
 34 36  2  0
M  END
$$$$
