Q92769_NoSeriseID_idx-in-all-actives-610
     RDKit          3D

 27 29  0  0  0  0  0  0  0  0999 V2000
   24.2530  -17.9630   -0.5950 C   0  0  0  0  0  0  0  0  0  0  0  0
   24.4040  -16.6300   -1.0010 C   0  0  0  0  0  0  0  0  0  0  0  0
   25.5550  -15.9140   -0.6640 C   0  0  0  0  0  0  0  0  0  0  0  0
   26.5710  -16.5190    0.0860 C   0  0  0  0  0  0  0  0  0  0  0  0
   26.4390  -17.8580    0.4730 C   0  0  0  0  0  0  0  0  0  0  0  0
   25.2860  -18.5720    0.1350 C   0  0  0  0  0  0  0  0  0  0  0  0
   23.0260  -18.7510   -0.9780 C   0  0  0  0  0  0  0  0  0  0  0  0
   21.9780  -18.5730   -0.0080 N   0  0  0  0  0  0  0  0  0  0  0  0
   20.6980  -18.9730   -0.2300 C   0  0  0  0  0  0  0  0  0  0  0  0
   19.9020  -18.4250   -0.9780 O   0  0  0  0  0  0  0  0  0  0  0  0
   20.4430  -20.0720    0.5200 O   0  0  0  0  0  0  0  0  0  0  0  0
   19.1520  -20.0720    1.1270 C   0  0  0  0  0  0  0  0  0  0  0  0
   27.7840  -15.7150    0.4180 C   0  0  0  0  0  0  0  0  0  0  0  0
   28.8830  -16.1650    0.1170 O   0  0  0  0  0  0  0  0  0  0  0  0
   27.5310  -14.4940    1.0050 N   0  0  0  0  0  0  0  0  0  0  0  0
   28.4600  -13.5480    1.4880 C   0  0  0  0  0  0  0  0  0  0  0  0
   28.7630  -13.3600    2.8380 C   0  0  0  0  0  0  0  0  0  0  0  0
   29.0740  -12.7410    0.5070 C   0  0  0  0  0  0  0  0  0  0  0  0
   29.7020  -12.3920    3.2300 C   0  0  0  0  0  0  0  0  0  0  0  0
   30.0450  -11.8140    0.8890 C   0  0  0  0  0  0  0  0  0  0  0  0
   30.3440  -11.6310    2.2420 C   0  0  0  0  0  0  0  0  0  0  0  0
   28.8760  -13.0370   -0.8690 N   0  0  0  0  0  0  0  0  0  0  0  0
   30.0410  -12.1840    4.6420 C   0  0  0  0  0  0  0  0  0  0  0  0
   31.0630  -11.4230    5.1820 C   0  0  0  0  0  0  0  0  0  0  0  0
   29.0890  -12.9030    5.8780 S   0  0  0  0  0  0  0  0  0  0  0  0
   31.0700  -11.4450    6.6080 C   0  0  0  0  0  0  0  0  0  0  0  0
   30.0480  -12.2160    7.1140 C   0  0  0  0  0  0  0  0  0  0  0  0
  1  2  2  0
  1  7  1  0
  1  6  1  0
  2  3  1  0
  3  4  2  0
  4 13  1  0
  4  5  1  0
  5  6  2  0
  7  8  1  0
  8  9  1  0
  9 10  2  0
  9 11  1  0
 11 12  1  0
 13 14  2  0
 13 15  1  0
 15 16  1  0
 16 18  1  0
 16 17  2  0
 17 19  1  0
 18 22  1  0
 18 20  2  0
 19 21  2  0
 19 23  1  0
 20 21  1  0
 23 24  2  0
 23 25  1  0
 24 26  1  0
 25 27  1  0
 26 27  2  0
M  END
>  <vina_dock>  (1) 
-7.224

$$$$
Q92769_Sries38678_idx-in-all-actives-539
     RDKit          3D

 35 38  0  0  0  0  0  0  0  0999 V2000
   26.6080  -17.8150    0.1480 C   0  0  0  0  0  0  0  0  0  0  0  0
   27.7630  -16.8210    0.3040 C   0  0  0  0  0  0  0  0  0  0  0  0
   28.9340  -17.0890   -0.6410 C   0  0  0  0  0  0  0  0  0  0  0  0
   30.1970  -16.3430   -0.2280 C   0  0  0  0  0  0  0  0  0  0  0  0
   29.9020  -15.0710    0.2170 N   0  0  0  0  0  0  0  0  0  0  0  0
   31.3120  -16.8450   -0.3130 O   0  0  0  0  0  0  0  0  0  0  0  0
   30.7850  -14.0890    0.7110 C   0  0  0  0  0  0  0  0  0  0  0  0
   31.1920  -13.1040   -0.2170 C   0  0  0  0  0  0  0  0  0  0  0  0
   32.1060  -12.1210    0.1770 C   0  0  0  0  0  0  0  0  0  0  0  0
   32.5510  -12.0670    1.4970 C   0  0  0  0  0  0  0  0  0  0  0  0
   31.2390  -14.0310    2.0280 C   0  0  0  0  0  0  0  0  0  0  0  0
   32.1160  -13.0170    2.4200 C   0  0  0  0  0  0  0  0  0  0  0  0
   30.8610  -13.2580   -1.5910 N   0  0  0  0  0  0  0  0  0  0  0  0
   25.6240  -17.4380   -0.9640 C   0  0  0  0  0  0  0  0  0  0  0  0
   25.2700  -15.9440   -0.9780 C   0  0  0  0  0  0  0  0  0  0  0  0
   25.8810  -15.1580   -2.1390 C   0  0  0  0  0  0  0  0  0  0  0  0
   27.0020  -14.2140   -1.7190 C   0  0  0  0  0  0  0  0  0  0  0  0
   28.0620  -14.1460   -2.3290 O   0  0  0  0  0  0  0  0  0  0  0  0
   26.6370  -13.4590   -0.6140 N   0  0  0  0  0  0  0  0  0  0  0  0
   27.4090  -12.4870    0.0560 C   0  0  0  0  0  0  0  0  0  0  0  0
   27.9610  -11.3560   -0.5750 C   0  0  0  0  0  0  0  0  0  0  0  0
   27.6240  -12.6870    1.4320 C   0  0  0  0  0  0  0  0  0  0  0  0
   28.7190  -10.4210    0.1380 C   0  0  0  0  0  0  0  0  0  0  0  0
   28.3720  -11.7580    2.1390 C   0  0  0  0  0  0  0  0  0  0  0  0
   28.9050  -10.6470    1.4840 C   0  0  0  0  0  0  0  0  0  0  0  0
   28.7790  -11.6430    3.5550 C   0  0  0  0  0  0  0  0  0  0  0  0
   29.6140   -9.8500    2.3720 N   0  0  0  0  0  0  0  0  0  0  0  0
   28.4350  -12.5430    4.4920 C   0  0  0  0  0  0  0  0  0  0  0  0
   29.5920  -10.3740    3.6530 C   0  0  0  0  0  0  0  0  0  0  0  0
   30.1250   -9.8910    4.6340 O   0  0  0  0  0  0  0  0  0  0  0  0
   28.7400  -12.5670    5.8790 C   0  0  0  0  0  0  0  0  0  0  0  0
   29.2780  -13.5820    6.6560 C   0  0  0  0  0  0  0  0  0  0  0  0
   28.5270  -11.5020    6.7220 N   0  0  0  0  0  0  0  0  0  0  0  0
   29.3900  -13.1130    7.9850 C   0  0  0  0  0  0  0  0  0  0  0  0
   28.9180  -11.8230    7.9970 C   0  0  0  0  0  0  0  0  0  0  0  0
  1 14  1  0
  1  2  1  0
  2  3  1  0
  3  4  1  0
  4  6  2  0
  4  5  1  0
  5  7  1  0
  7  8  2  0
  7 11  1  0
  8 13  1  0
  8  9  1  0
  9 10  2  0
 10 12  1  0
 11 12  2  0
 14 15  1  0
 15 16  1  0
 16 17  1  0
 17 18  2  0
 17 19  1  0
 19 20  1  0
 20 21  2  0
 20 22  1  0
 21 23  1  0
 22 24  2  0
 23 25  2  0
 24 25  1  0
 24 26  1  0
 25 27  1  0
 26 29  1  0
 26 28  2  3
 27 29  1  0
 28 31  1  0
 29 30  2  0
 31 32  2  0
 31 33  1  0
 32 34  1  0
 33 35  1  0
 34 35  2  0
M  END
>  <vina_dock>  (2) 
-5.752

$$$$
Q92769_NoSeriseID_idx-in-all-actives-996
     RDKit          3D

 18 19  0  0  0  0  0  0  0  0999 V2000
   24.4470  -17.5030   -0.5640 C   0  0  0  0  0  0  0  0  0  0  0  0
   24.8440  -16.4810   -1.3970 C   0  0  0  0  0  0  0  0  0  0  0  0
   26.1310  -16.0920   -1.5420 N   0  0  0  0  0  0  0  0  0  0  0  0
   27.0520  -16.7350   -0.8140 C   0  0  0  0  0  0  0  0  0  0  0  0
   26.7650  -17.7430    0.0230 N   0  0  0  0  0  0  0  0  0  0  0  0
   25.4650  -18.0970    0.1420 C   0  0  0  0  0  0  0  0  0  0  0  0
   23.0260  -17.8710   -0.4600 C   0  0  0  0  0  0  0  0  0  0  0  0
   22.1630  -17.0040   -0.3500 O   0  0  0  0  0  0  0  0  0  0  0  0
   22.7060  -19.2090   -0.5340 N   0  0  0  0  0  0  0  0  0  0  0  0
   21.3160  -19.4770   -0.6080 O   0  0  0  0  0  0  0  0  0  0  0  0
   28.3560  -16.2970   -0.9680 N   0  0  0  0  0  0  0  0  0  0  0  0
   28.4950  -14.8660   -1.1080 C   0  0  0  0  0  0  0  0  0  0  0  0
   28.2520  -14.2110    0.2240 C   0  0  0  0  0  0  0  0  0  0  0  0
   27.1340  -13.4060    0.4590 C   0  0  0  0  0  0  0  0  0  0  0  0
   29.1290  -14.4140    1.2870 C   0  0  0  0  0  0  0  0  0  0  0  0
   26.9480  -12.8310    1.7130 C   0  0  0  0  0  0  0  0  0  0  0  0
   28.9760  -13.8620    2.5130 N   0  0  0  0  0  0  0  0  0  0  0  0
   27.8890  -13.0840    2.6970 C   0  0  0  0  0  0  0  0  0  0  0  0
  1  2  2  0
  1  7  1  0
  1  6  1  0
  2  3  1  0
  3  4  2  0
  4 11  1  0
  4  5  1  0
  5  6  2  0
  7  9  1  0
  7  8  2  0
  9 10  1  0
 11 12  1  0
 12 13  1  0
 13 14  2  0
 13 15  1  0
 14 16  1  0
 15 17  2  0
 16 18  2  0
 17 18  1  0
M  END
>  <vina_dock>  (3) 
-6.64

$$$$
Q92769_NoSeriseID_idx-in-all-actives-1065
     RDKit          3D

 19 20  0  0  0  0  0  0  0  0999 V2000
   24.3970  -17.0940   -0.9460 C   0  0  0  0  0  0  0  0  0  0  0  0
   24.4200  -18.4370   -0.8610 N   0  0  0  0  0  0  0  0  0  0  0  0
   23.2480  -19.0710   -0.6240 C   0  0  0  0  0  0  0  0  0  0  0  0
   22.0460  -18.4200   -0.4860 C   0  0  0  0  0  0  0  0  0  0  0  0
   22.1210  -17.0510   -0.5720 C   0  0  0  0  0  0  0  0  0  0  0  0
   23.2710  -16.3780   -0.8040 N   0  0  0  0  0  0  0  0  0  0  0  0
   25.6300  -16.5020   -1.1940 N   0  0  0  0  0  0  0  0  0  0  0  0
   26.0750  -15.1790   -1.3000 C   0  0  0  0  0  0  0  0  0  0  0  0
   27.9250  -12.7120    0.9590 C   0  0  0  0  0  0  0  0  0  0  0  0
   27.2060  -13.2840   -0.2260 C   0  0  0  0  0  0  0  0  0  0  0  0
   27.0610  -12.5350   -1.3960 C   0  0  0  0  0  0  0  0  0  0  0  0
   26.7220  -14.6010   -0.1950 C   0  0  0  0  0  0  0  0  0  0  0  0
   26.4130  -13.0790   -2.5100 C   0  0  0  0  0  0  0  0  0  0  0  0
   26.2810  -12.2850   -3.7750 C   0  0  0  0  0  0  0  0  0  0  0  0
   25.9380  -14.4000   -2.4530 C   0  0  0  0  0  0  0  0  0  0  0  0
   20.7590  -19.0850   -0.2340 C   0  0  0  0  0  0  0  0  0  0  0  0
   20.3310  -19.2090    0.9110 O   0  0  0  0  0  0  0  0  0  0  0  0
   20.0430  -19.5200   -1.3300 N   0  0  0  0  0  0  0  0  0  0  0  0
   18.7380  -19.9840   -1.0290 O   0  0  0  0  0  0  0  0  0  0  0  0
  1  7  1  0
  1  2  2  0
  1  6  1  0
  2  3  1  0
  3  4  2  0
  4  5  1  0
  4 16  1  0
  5  6  2  0
  7  8  1  0
  8 15  1  0
  8 12  2  0
  9 10  1  0
 10 11  2  0
 10 12  1  0
 11 13  1  0
 13 14  1  0
 13 15  2  0
 16 18  1  0
 16 17  2  0
 18 19  1  0
M  END
>  <vina_dock>  (4) 
-7.08

$$$$
Q92769_Sries55813_idx-in-all-actives-387
     RDKit          3D

 27 27  0  0  0  0  0  0  0  0999 V2000
   25.0860  -17.3640   -0.7630 C   0  0  0  0  0  0  0  0  0  0  0  0
   24.0600  -18.1570    0.0470 C   0  0  0  0  0  0  0  0  0  0  0  0
   22.6100  -17.7580   -0.2490 C   0  0  0  0  0  0  0  0  0  0  0  0
   21.8510  -18.8530   -1.0000 C   0  0  0  0  0  0  0  0  0  0  0  0
   20.5400  -19.2340   -0.3430 C   0  0  0  0  0  0  0  0  0  0  0  0
   20.3230  -19.1930    0.8650 O   0  0  0  0  0  0  0  0  0  0  0  0
   19.5850  -19.6600   -1.2410 N   0  0  0  0  0  0  0  0  0  0  0  0
   18.3990  -20.1630   -0.6520 O   0  0  0  0  0  0  0  0  0  0  0  0
   26.5120  -17.4860   -0.2410 C   0  0  0  0  0  0  0  0  0  0  0  0
   27.3050  -16.4730   -0.8680 O   0  0  0  0  0  0  0  0  0  0  0  0
   27.7840  -15.5890    0.1330 N   0  0  0  0  0  0  0  0  0  0  0  0
   27.2520  -14.3160    0.0430 C   0  0  0  0  0  0  0  0  0  0  0  0
   26.6520  -13.8680   -0.9280 O   0  0  0  0  0  0  0  0  0  0  0  0
   27.4210  -13.4600    1.2530 C   0  0  0  0  0  0  0  0  0  0  0  0
   27.8860  -14.0590    2.4320 C   0  0  0  0  0  0  0  0  0  0  0  0
   27.1000  -12.0960    1.2510 C   0  0  0  0  0  0  0  0  0  0  0  0
   28.0610  -13.3060    3.6020 C   0  0  0  0  0  0  0  0  0  0  0  0
   27.2580  -11.3230    2.4140 C   0  0  0  0  0  0  0  0  0  0  0  0
   27.7400  -11.9380    3.5830 C   0  0  0  0  0  0  0  0  0  0  0  0
   28.5470  -13.9680    4.8720 C   0  0  0  0  0  0  0  0  0  0  0  0
   28.0660  -15.2340    5.0230 F   0  0  0  0  0  0  0  0  0  0  0  0
   29.9020  -14.0740    4.9120 F   0  0  0  0  0  0  0  0  0  0  0  0
   28.1830  -13.2950    5.9970 F   0  0  0  0  0  0  0  0  0  0  0  0
   26.9020   -9.8530    2.3910 C   0  0  0  0  0  0  0  0  0  0  0  0
   27.3300   -9.2380    1.2560 F   0  0  0  0  0  0  0  0  0  0  0  0
   25.5660   -9.6140    2.4720 F   0  0  0  0  0  0  0  0  0  0  0  0
   27.4710   -9.1740    3.4250 F   0  0  0  0  0  0  0  0  0  0  0  0
  1  9  1  0
  1  2  1  0
  2  3  1  0
  3  4  1  0
  4  5  1  0
  5  7  1  0
  5  6  2  0
  7  8  1  0
  9 10  1  0
 10 11  1  0
 11 12  1  0
 12 13  2  0
 12 14  1  0
 14 16  2  0
 14 15  1  0
 15 17  2  0
 16 18  1  0
 17 19  1  0
 17 20  1  0
 18 24  1  0
 18 19  2  0
 20 22  1  0
 20 21  1  0
 20 23  1  0
 24 25  1  0
 24 26  1  0
 24 27  1  0
M  END
>  <vina_dock>  (5) 
-8.155

$$$$
Q92769_NoSeriseID_idx-in-all-actives-1614
     RDKit          3D

 33 36  0  0  0  0  0  0  0  0999 V2000
   25.3540  -18.1030   -0.4110 C   0  0  0  0  0  0  0  0  0  0  0  0
   24.2500  -17.0760   -0.6750 C   0  0  0  0  0  0  0  0  0  0  0  0
   22.9110  -17.5420   -0.0990 C   0  0  0  0  0  0  0  0  0  0  0  0
   22.3060  -18.6670   -0.9350 C   0  0  0  0  0  0  0  0  0  0  0  0
   20.9640  -19.1180   -0.3990 C   0  0  0  0  0  0  0  0  0  0  0  0
   20.6020  -19.0010    0.7690 O   0  0  0  0  0  0  0  0  0  0  0  0
   20.1570  -19.6890   -1.3570 N   0  0  0  0  0  0  0  0  0  0  0  0
   18.8430  -19.9960   -0.9260 O   0  0  0  0  0  0  0  0  0  0  0  0
   26.5110  -17.5540    0.4280 C   0  0  0  0  0  0  0  0  0  0  0  0
   27.7850  -17.3120   -0.3810 C   0  0  0  0  0  0  0  0  0  0  0  0
   27.7240  -16.0730   -1.1280 N   0  0  0  0  0  0  0  0  0  0  0  0
   27.6130  -15.9560   -2.4840 C   0  0  0  0  0  0  0  0  0  0  0  0
   27.7860  -14.8130   -0.6030 C   0  0  0  0  0  0  0  0  0  0  0  0
   27.5940  -14.6970   -2.8610 N   0  0  0  0  0  0  0  0  0  0  0  0
   27.9050  -14.4880    0.6900 N   0  0  0  0  0  0  0  0  0  0  0  0
   27.6960  -13.9570   -1.6910 C   0  0  0  0  0  0  0  0  0  0  0  0
   27.9280  -13.1540    0.8720 C   0  0  0  0  0  0  0  0  0  0  0  0
   27.7350  -12.5650   -1.4210 C   0  0  0  0  0  0  0  0  0  0  0  0
   27.8520  -12.2150   -0.1020 N   0  0  0  0  0  0  0  0  0  0  0  0
   28.0520  -12.6670    2.2670 C   0  0  0  0  0  0  0  0  0  0  0  0
   27.7590  -11.3330    2.6090 C   0  0  0  0  0  0  0  0  0  0  0  0
   28.4640  -13.5190    3.3120 C   0  0  0  0  0  0  0  0  0  0  0  0
   27.8680  -10.8730    3.9240 C   0  0  0  0  0  0  0  0  0  0  0  0
   28.5900  -13.0670    4.6370 C   0  0  0  0  0  0  0  0  0  0  0  0
   28.2770  -11.7380    4.9350 C   0  0  0  0  0  0  0  0  0  0  0  0
   29.0010  -14.0180    5.7300 C   0  0  0  0  0  0  0  0  0  0  0  0
   29.7110  -15.1240    5.1910 O   0  0  0  0  0  0  0  0  0  0  0  0
   27.6310  -11.5320   -2.3740 N   0  0  0  0  0  0  0  0  0  0  0  0
   28.3310  -10.2740   -2.0540 C   0  0  0  0  0  0  0  0  0  0  0  0
   26.2520  -11.3390   -2.8650 C   0  0  0  0  0  0  0  0  0  0  0  0
   28.1810   -9.2620   -3.2030 C   0  0  0  0  0  0  0  0  0  0  0  0
   26.2160  -10.2810   -3.9770 C   0  0  0  0  0  0  0  0  0  0  0  0
   26.8040   -9.0450   -3.5460 O   0  0  0  0  0  0  0  0  0  0  0  0
  1  2  1  0
  1  9  1  0
  2  3  1  0
  3  4  1  0
  4  5  1  0
  5  7  1  0
  5  6  2  0
  7  8  1  0
  9 10  1  0
 10 11  1  0
 11 12  1  0
 11 13  1  0
 12 14  2  0
 13 16  2  0
 13 15  1  0
 14 16  1  0
 15 17  2  0
 16 18  1  0
 17 19  1  0
 17 20  1  0
 18 28  1  0
 18 19  2  0
 20 21  2  0
 20 22  1  0
 21 23  1  0
 22 24  2  0
 23 25  2  0
 24 25  1  0
 24 26  1  0
 26 27  1  0
 28 30  1  0
 28 29  1  0
 29 31  1  0
 30 32  1  0
 31 33  1  0
 32 33  1  0
M  END
>  <vina_dock>  (6) 
-7.664

$$$$